12

C -2.937875116 -1.190829399 0.881818208
C -0.272164007 -0.831703068 0.142778730
C 1.132784874 1.370356442 -0.441252467
N 0.775352909 3.772332007 -0.566566216
N 3.452888035 0.243452321 -0.963776178
N 3.534985769 -2.229166800 -0.760632188
O 1.236090910 -2.837301945 -0.083576653
H -3.383384985 -0.088474898 2.570401374
H -3.310174085 -3.175297661 1.280464098
H -4.215236303 -0.576154762 -0.621078541
H -1.031184788 4.215964131 -0.122456199
H 5.033318055 1.169925324 -1.481703622

