16

C -0.971120504 2.777993817 -2.741188150
C -0.614734220 1.232229519 -0.369067726
C -1.854852401 -1.536526240 -0.465057895
C 1.593576353 -0.263585009 0.005388101
C 2.486288795 -1.429496423 2.408930173
O 2.319083257 -3.918385594 2.087472206
H 0.018995905 4.579509756 -2.587019115
H -2.969360580 3.174495094 -3.058381874
H -0.240507617 1.781874900 -4.393226337
H -1.269198987 2.167635976 1.341739375
H -0.613632831 -3.112777886 0.298454500
H -2.372263098 -1.967586016 -2.402461527
H -3.460443784 -1.499156641 0.818439591
H 2.576482702 -0.960266201 -1.663014075
H 4.449154142 -0.647588110 2.609991533
H 1.422252025 -0.602658757 4.025803825

