13

O 3.185406940 -0.591945918 0.465442927
C 3.080825924 2.055808371 0.868126141
C 1.163005733 0.781049035 -0.646291475
C -1.439684692 0.218144674 0.340527627
C -2.444543403 -2.299273239 -0.633710037
H -1.194901626 -3.841864120 -0.075832498
H 4.561628487 3.141563744 -0.050078819
H 2.623255332 2.631301559 2.786322747
H 1.316001531 0.938476619 -2.694819619
H -1.372754391 0.205847451 2.405568142
H -2.703595016 1.758440785 -0.215060357
H -4.324300882 -2.693455993 0.115726299
H -2.574593448 -2.303537425 -2.694512614

