13

O 3.780578072 -1.441860409 0.055917147
C 2.751701585 0.709896443 0.857976875
C 0.503770239 1.158721762 -0.783704063
C -2.082771815 1.150377600 -0.035014471
C -1.620485373 -1.815155321 -0.330258118
H 0.462481877 -2.376173263 -0.451971958
H 3.913441126 2.459644620 0.565657201
H 2.164522406 0.793139030 2.877705651
H 0.935155275 1.135622449 -2.792868758
H -2.455543367 1.635670286 1.922416648
H -3.485971319 1.866343995 -1.346069455
H -2.232675209 -2.693463533 1.423976287
H -2.593283368 -2.518866350 -1.989930043

