18

C -3.817920913 1.085227346 1.239068872
C -2.002272487 -0.831589156 2.393342767
C -0.716555763 -2.552909275 0.466184871
C 1.016451274 -1.115622929 -1.332611355
C 3.303887174 -0.013507441 -0.232408742
C 4.313031085 2.077720369 -1.748877674
H -4.752384094 2.196729519 2.703652256
H -2.847689921 2.410883507 -0.011528955
H -5.287826256 0.147115613 0.131174961
H -3.029527721 -2.003162774 3.750690088
H 0.417267780 -3.955970111 1.469640120
H -2.150110977 -3.579505071 -0.618018356
H -0.027123390 0.125157619 -2.641534898
H 2.004153577 -2.481384672 -2.585847769
H -0.533141383 0.150484012 3.470637212
H 3.681601663 2.227693400 -3.724414297
H 3.465055207 3.684849706 -0.717249897
H 6.349639612 2.335943961 -1.577846084

