17

C -3.288246629 -1.033663938 -0.721920147
C -1.083458845 0.013350159 0.265740280
O -2.029856082 3.461329725 -0.878229845
C 0.419549813 0.243964058 2.599944785
C 1.690900348 0.040923040 0.001567603
C 2.997917403 -2.365927489 -0.756403851
O 2.870331202 2.165271872 -0.955756332
H -4.727356769 -1.682638768 0.584332797
H -3.485609323 1.481076422 -1.159198369
H -3.169762370 -2.000771194 -2.525043034
H -2.558735358 4.617838258 0.424219856
H 0.568466600 2.066009755 3.511109288
H 0.377056487 -1.368938051 3.865792003
H 4.946767956 -2.318491376 -0.084071572
H 2.063957267 -4.018045989 0.045071537
H 3.021517078 -2.539545869 -2.810039830
H 1.515635166 3.335389457 -1.365898370

