15

O 5.200663300 -1.647849836 0.920597221
C 2.856419341 -2.216969752 -0.226271328
C 0.850919259 -0.527374260 0.953166613
H 0.845445157 -0.885024979 2.987751848
C 1.244461187 2.233384121 0.357850841
H 2.841980681 3.340213984 0.964949018
C -0.610296822 2.999088353 -1.136490721
H -0.918399205 4.816994454 -2.015367873
O -2.392913326 1.230010621 -1.676937785
C -1.791304747 -0.962199164 -0.189937922
H -1.877843867 -2.612686755 -1.426795929
H -3.238246101 -1.157761214 1.268865734
H 2.917343676 -1.871778016 -2.272207184
H 2.351811197 -4.208636151 0.079963837
H 6.508027460 -2.583850385 0.090706835

