17

O 4.534832057 0.404792507 1.300935180
C 2.887112802 -0.886007882 -0.354401411
C 0.339196674 -1.120590036 0.933444978
C -1.078797175 1.391309291 1.235071232
C -2.345341361 1.732196306 -1.125871235
O -2.757523888 -0.524818065 -2.310147857
C -1.619447290 -2.451846382 -0.742741735
H 6.081675446 0.764356498 0.433495198
H 2.668688921 0.138838084 -2.146872572
H 3.616910971 -2.780153339 -0.795445706
H 0.574471073 -2.108901738 2.726853954
H -2.174695104 1.453519604 2.958507203
H -1.593119758 4.093917416 1.256429125
H -1.922804495 3.186202136 -2.493075897
H -3.363095109 4.114217610 0.407743995
H -0.782075478 -3.824634032 -2.031011177
H -3.095934814 -3.377047127 0.368143707

