13

C -2.877712586 0.965167640 0.572920968
C -0.475852521 0.565626682 -0.971517366
C 1.912219799 -4.226733075 -0.122491348
C 1.691472557 2.089553059 0.030456621
O 3.661466651 1.237781213 0.766747928
H -4.446841118 -0.075825015 -0.258780721
H -2.628101856 0.301921165 2.508909988
H -3.403969167 2.960377484 0.638737011
H -0.792083184 1.133089309 -2.937749903
H 3.707596226 -3.723626395 -1.072081919
H 0.008769425 -1.478355670 -1.022221855
H 2.343281824 -3.749532537 1.869097364
H 1.358552778 4.162526418 0.082258796

