12

C -4.164430770 0.644922009 -1.282324325
C -1.421984931 0.967554346 -1.922128087
C 0.453377158 0.094560743 -0.582380049
C 2.301119559 -0.725284200 0.767174723
O 3.800884200 -2.806348628 1.024229424
C 4.210454143 -0.659900167 2.686229548
H -5.084764620 2.484555292 -1.098468222
H -5.141685666 -0.374661334 -2.789067404
H -4.401141738 -0.393898482 0.478130208
H 3.702762136 -0.989212988 4.646149927
H 5.960415518 0.357031342 2.353855560
H -0.991822265 2.007474978 -3.644440766

