12

C -3.630106664 0.987501539 -1.464160519
C -1.275942342 -0.053006950 -0.345119548
C -0.564681441 -2.320676429 0.408984600
C 1.944039291 -1.982200798 1.311560940
O 3.724541929 -3.102724052 2.244916042
C 3.289951691 0.526377845 1.296072933
H -4.404149823 2.468624089 -0.251128728
H -3.232575411 1.853794570 -3.296101521
H -5.034977083 -0.494379491 -1.706924507
H 3.582400547 1.440016264 3.110190133
H 4.806928733 0.767506634 -0.064829606
H 0.344267716 1.479746470 -0.043489779

