12

C -2.289231726 -1.122035790 -1.083142373
C -1.799060089 -0.982504196 1.525957058
O -1.609645696 -2.736154355 3.125288024
C 0.932211100 0.751819186 1.524978766
C 2.858142601 0.818135628 -0.430770024
O 1.250044723 2.926592506 0.151317136
H -2.313658477 0.613727298 -2.170782332
H -2.598306601 -2.907197227 -2.047861997
H -2.813539055 0.828605864 2.104501549
H 1.348645870 0.769965621 3.532061399
H 2.508477581 -0.079430726 -2.238688393
H 4.824250832 1.090268285 0.081428469

