12

N 1.723128455 -0.522115776 1.706057765
C 1.410803498 -1.046406853 -3.703849712
O 3.178742065 -2.130998325 -4.442392494
N -0.534620169 0.041023403 -3.254604874
C -0.976059209 -0.164311157 1.378377668
C -1.504335171 1.295518563 -1.045511765
H 2.579897645 1.053797761 2.360523969
H 2.123715868 -1.955146648 2.896585942
H -1.862246105 -2.022829475 1.233619205
H -1.898367181 0.835339260 2.947549059
H -3.537121216 1.540167043 -1.284142525
H -0.674338412 3.187954933 -0.924089775

