12

C -1.883725261 2.644894189 0.988799932
C -1.403475858 0.147804022 2.324289264
O 0.491115801 -1.336968194 1.183403928
C 2.948783598 -0.400259621 1.512043118
H 3.272315180 1.359851719 0.467162918
H 3.364183837 -0.060064756 3.517789356
H 4.249207871 -1.828753903 0.800009281
H -0.926005466 0.482861629 4.320099719
H -3.110140093 -1.010348176 2.281974384
H -2.304014260 2.322319205 -1.004303377
H -3.497139619 3.601585614 1.848392013
H -0.264405831 3.915336710 1.116437004

