15

C -3.761254376 1.151473150 -1.293976018
O -3.411882868 0.350022084 0.958555886
C -0.955724622 -2.477976230 1.317092924
C 0.743800549 -1.389355371 -0.325573979
O 0.132393173 -1.136512812 -2.654642247
O 2.739128160 -0.140533508 0.615320432
C 4.181438343 1.325682598 -1.110636906
H -5.338627197 0.355907844 -2.385485644
H -1.746194074 0.026513802 -2.625173555
H -3.213062666 3.108435673 -1.707114349
H -0.607903125 -2.439609082 3.327068312
H -2.260644743 -3.858147040 0.583742674
H 4.870740268 0.168894253 -2.672152373
H 3.072896086 2.889190045 -1.870525638
H 5.763779859 2.060553284 -0.026227263

