13

C -3.364708576 0.020872195 0.104371180
C -0.674286029 -0.609888868 -0.190641713
O 0.211603065 -2.887841612 -0.667317701
C 1.684847990 0.850344234 -0.932959507
O 2.157700986 3.207864464 0.045781393
C 2.501513109 -1.430432007 0.668977618
O 1.326555557 -0.844141435 2.813033572
H -4.301390655 -1.361717635 1.302525706
H -3.563724724 1.916790669 0.875999742
H -4.220698575 -0.021790300 -1.777555327
H 2.035672092 0.817208019 -2.961533750
H 2.061797045 2.996230256 1.861042482
H 4.252935186 -2.521767042 0.636614433

