13

C -3.273981483 -0.608952867 0.008311847
N -2.428534059 1.875610626 0.859562223
C -1.121639382 0.668463423 -1.221033855
C 1.510014535 -0.329787312 -0.841177702
C 3.720924823 0.198227716 1.965127633
O 1.796316471 -1.531488513 1.545222344
H -2.857058049 -2.225759246 1.193146411
H -5.091450112 -0.638080728 -0.932433464
H -1.388400284 1.697961839 2.462715406
H -1.384809634 1.569154856 -3.045637542
H 2.216226598 -1.534809726 -2.355455364
H 5.417299802 -0.633916717 0.999093156
H 2.772602920 1.433122732 -0.764681985

