10

C -4.777626224 -2.156788646 0.303990283
C -2.918093992 -0.050164821 -0.233898753
O -1.122641636 0.300007420 1.721633720
O 0.449058737 -1.881664232 1.788526774
H 2.030824718 -1.192166361 1.206974784
H -3.868104914 1.782145585 -0.318505080
H -1.934176187 -0.353237793 -2.031613319
H -3.807628803 -3.968587076 0.433394740
H -6.170953969 -2.275142306 -1.213380049
H -5.767573616 -1.812750436 2.079064002

