16

C -4.125888974 -0.452928632 0.298704662
C -2.009359867 -1.225714783 -1.472996161
O 0.415750122 -0.611639907 -0.574576160
C 2.011190690 2.558865182 -0.184699677
C 3.967535160 1.593859623 1.234096530
O 2.626364763 -2.805895075 1.467306328
H -3.812460303 -1.266144982 2.166220722
H -5.950678818 -1.110816921 -0.407545234
H -4.219980876 1.598951282 0.490201231
H -2.263303814 -0.450282675 -3.381318343
H -1.970909194 -3.288297387 -1.702546976
H 0.480753923 3.550142809 0.743006486
H 2.303944548 2.986046446 -2.164576037
H 3.874093740 1.549844273 3.271482188
H 5.712535059 0.994070057 0.361582691
H 2.989262382 -3.613997108 -0.122999666

