19

C 5.121795051 0.054137195 0.564567131
C 2.657289129 -0.832582585 1.763630162
C 0.361317940 0.497333170 0.778125780
C -2.059431033 -0.619971142 0.561983025
C -3.280522884 0.184048459 -1.913659468
O -5.788643382 0.362849545 -1.009672656
C -4.667714064 0.571476424 1.416476947
H 5.136324059 -0.356109988 -1.457484004
H 5.366178855 2.091442691 0.793158891
H 6.747885843 -0.875539688 1.427002305
H 2.765623367 -0.509655092 3.814172849
H 2.446748732 -2.871519670 1.510598895
H 0.641167142 -0.494706810 -2.675762676
H 0.451442872 2.548124904 0.709897596
H -2.113008548 -2.660235722 0.831536338
H -0.633790672 -0.988985635 -3.470689009
H -2.638551720 1.975963417 -2.747893106
H -4.448046801 2.541301387 1.985148790
H -5.657886844 -0.535657232 2.841546270

