19

C -4.662972779 1.370374451 0.567824263
C -3.504788173 -1.192236886 0.578838948
C -0.627571130 -2.109604395 -1.641465377
O 2.013258958 -1.829497907 -2.436020322
C 2.844086742 -0.771839549 -0.125636514
C 4.971649545 1.095725285 -0.457237491
C 0.281809736 0.277878482 0.558932082
H -6.634497872 0.956892133 1.073510760
H -4.706046724 2.218782642 -1.314227948
H -3.966639146 2.773002238 1.930648068
H -3.142941298 -1.857514949 2.506751524
H -0.850739376 -4.032384381 -0.964880780
H -1.784320357 -1.700300053 -3.278105357
H 3.410684838 -2.273686291 1.198909376
H 6.627670746 0.148779404 -1.240733834
H 5.503749405 1.929261425 1.354233015
H 4.412592685 2.600569283 -1.751894074
H -0.058214166 2.049692877 -0.425400632
H -0.122769251 0.479031419 2.558190134

