19

C 4.123153520 -1.461045816 -0.719248963
C 1.435630134 -0.680360553 0.169429329
O 1.458954229 -0.557523952 2.846228029
C 0.851443185 1.750054936 -1.217633142
C -3.174714756 2.643927783 1.114737082
C -4.217502878 0.357874255 0.672220104
C -0.404517703 -2.460795766 -0.752015434
H 5.428937397 0.063310927 -0.247545297
H 4.211317294 -1.812372227 -2.748142456
H 4.694998478 -3.154941361 0.297187609
H 1.302041463 1.198519980 3.272416072
H 2.479056454 2.697032299 -2.067241403
H -0.803638632 1.804501158 -2.393444264
H -2.443872739 3.124856222 2.964114209
H -3.391926566 4.202981353 -0.187512345
H -5.276515319 -0.023691100 -1.037389893
H -4.354850044 -1.021106255 2.172884501
H -0.194366401 -3.184535341 -2.652539019
H -1.670796043 -3.438239634 0.506157492

