13

N 3.801594019 1.204111169 0.401720228
C 2.507507868 -0.462750370 -0.739434620
O 1.303888954 0.373504652 -3.039236756
C -1.076888513 0.733597124 -2.749415697
C -1.215844441 -1.275069421 0.892054628
C -2.305941592 1.043916251 -0.262829194
H 4.993715537 0.393270205 1.663826922
H 2.851191754 -2.469141288 -0.992715350
H -2.116214846 0.686533835 -4.530359907
H -2.237102837 -3.004656922 0.483596751
H -0.461794263 -1.151187216 2.784890902
H -1.676955378 2.795007380 0.627773557
H -4.355696981 1.123892200 -0.494457083

