13

C 3.783914856 -0.570143165 0.411848745
C 1.034241118 -0.401098471 -0.096220546
N -0.514240267 1.315419307 0.879800453
C -3.033310329 1.049153192 -0.275154442
C -2.912649351 -1.753129936 -0.965361583
O -0.115565559 -2.074927184 -1.340863789
H 4.085263585 -1.458956195 2.251701860
H 4.657629333 1.294295948 0.438223614
H 4.678311308 -1.731145108 -1.028371458
H -4.503378189 1.441997679 1.115038607
H -3.221871208 2.447355637 -1.829306535
H -3.703718489 -2.161617009 -2.823893413
H 0.136662801 2.916939596 1.662192876

