9

O -3.953996198 -1.357531910 0.038407474
C -1.610817591 -0.430763127 0.049844626
N 0.431946757 -1.843177521 -0.571207535
C 2.295580261 -0.220409851 -0.309516503
N 1.393683051 2.014435955 0.423038229
N -1.149212622 1.922628694 0.668964069
H -3.843254146 -3.098244796 -0.469889642
H 4.274281136 -0.594312252 -0.629734110
H 2.320286314 3.629760467 0.780245599

