9

O -3.834530982 -0.981246148 0.040977842
C -1.439888613 -0.256703250 -0.109984479
N 0.483948146 -1.838811196 -0.456996683
C 2.475947288 -0.317647050 -0.355395407
N 1.932925887 2.128409173 -0.155428443
N -0.826471966 2.179291391 0.017079005
H -3.879986208 -2.789396500 -0.150474243
H 4.406670170 -0.969102409 -0.485292195
H 0.711179681 2.851079239 1.653611629

