14

C 3.548035405 0.799236496 -0.346980040
C 1.845781791 -0.396305350 1.047648762
O -2.383342846 -0.908003425 2.598509047
C -0.889611533 -0.878330643 0.382200813
C -1.971466455 1.014500396 -1.496245896
O -2.111110242 3.460584927 -0.420493202
H -0.417518962 4.034745877 -0.100696910
H 3.119621662 1.568156683 -2.199593550
H 5.475884921 1.020637036 0.302821317
H 2.390060161 -1.152949933 2.877022855
H -1.040054425 -2.775322122 -0.432973256
H -3.909122610 0.477364737 -1.944697388
H -0.885135887 1.016387420 -3.258928643
H -2.779475948 0.826228645 2.983873979

