14

C 2.801493601 1.542842139 0.171691880
C 1.601462615 -0.712176077 0.925002135
O -1.570005384 -0.352573157 2.567455650
C -1.018373579 -1.193247492 0.074210112
C -2.049572143 0.943914004 -1.635390134
O -1.816357413 3.119327545 -0.171918439
H 0.846982770 2.929635457 0.204273971
H 2.992774230 1.700221006 -1.878992745
H 4.470714481 2.126339848 1.203143516
H 2.332383358 -1.981630630 2.353217796
H -1.629302759 -3.113972382 -0.315505745
H -4.027749355 0.546664887 -2.100464111
H -0.990979598 1.037307614 -3.418283351
H -1.939111226 1.582818331 2.005946587

