16

C -1.850129087 2.613665784 0.262537591
C -0.659430249 0.277999689 1.420836432
C -1.700162085 -2.184369822 0.363300150
O -0.737889108 -4.322155325 1.633292274
N 2.349562744 0.355691980 -3.022194412
C 3.332294992 0.423549551 -0.852268107
O 2.076573778 0.332786572 1.328283523
H -0.951997818 4.314380727 1.003489056
H -3.846825748 2.676716251 0.777554327
H -1.686813739 2.614749561 -1.787130512
H -0.995151887 0.267861100 3.456511982
H -3.739463755 -2.190103648 0.680635244
H -1.361536353 -2.288820843 -1.671489289
H 1.060772778 -4.351025011 1.408868399
H 3.711483978 0.449338624 -4.364945206
H 5.354199239 0.553513367 -0.450355410

