15

C -1.651214606 -2.865161989 1.921242315
C -0.812536994 -1.219247214 -0.240378360
C -1.624837374 1.524501251 -0.374816065
C 1.076636537 0.842697911 0.113568874
O 1.992574904 1.118679467 2.590309223
N 2.827430394 1.266468389 -1.885430286
H -1.654960554 -1.814676559 3.692425637
H -0.387246797 -4.479242286 2.155738317
H -3.554590733 -3.590026613 1.587334777
H -0.672882435 -2.153230801 -2.057752219
H 2.096755618 2.889362313 2.969319819
H -2.107220846 2.314669972 -2.196798607
H -2.699627252 2.232377766 1.217352159
H 4.386439575 0.184057888 -1.656943689
H 3.368412269 3.098185062 -1.975713236

