16

C -4.960095174 0.598716391 0.059033041
N -2.875232736 -1.053794945 0.917564381
C -0.651573543 0.203369359 1.951436114
C 1.397878961 -0.231308638 0.382926448
O 1.225646374 -1.511989280 -1.598256543
O 3.616871665 0.807943296 1.107445082
C 5.694568110 0.345640395 -0.519083597
H -5.656849819 1.686470754 1.658608632
H -6.483580659 -0.537186909 -0.741653253
H -4.197989717 1.879373902 -1.354765861
H -2.007123603 -1.930825249 -0.636389159
H -3.566841752 -2.429978622 2.070733523
H -0.773810987 1.203186583 3.713263212
H 7.310943593 1.260307429 0.365227633
H 5.371382934 1.145693706 -2.392365684
H 6.051069989 -1.674827263 -0.722792161

