16

C -5.201589511 0.602745042 0.229644772
N -3.069061019 -1.097546829 0.452256267
C -0.694928225 -0.016066319 1.759320584
C 1.487092384 -0.428020586 0.221929020
O 1.503304061 -1.765793879 -1.663172869
O 3.568730873 0.748966172 1.088247052
C 5.825072370 0.267743843 -0.287847297
H -5.788052011 1.212922263 2.108146339
H -6.783852244 -0.368277443 -0.661041675
H -4.690017330 2.274901555 -0.875315774
H -2.434761274 -1.915602674 -1.168919347
H -2.216930238 -1.951997495 2.314425271
H -1.015911492 1.755430583 2.718310049
H 7.305330351 1.313188221 0.682017182
H 5.654190786 0.917347611 -2.236505268
H 6.265155134 -1.745813956 -0.297777544

