11

O 4.497175371 -3.198638840 2.745817715
C 2.514338302 -2.817136867 1.878497107
C 0.572636508 1.224713247 -1.799393172
C -0.905189925 2.820487786 -0.523752789
N -2.488713087 0.986977725 0.635375850
C -0.868027535 -0.952632558 -0.624994715
N 0.392846717 -2.618862663 1.095439898
H 1.953306092 1.371488842 -3.289695066
H -1.145508778 4.849172861 -0.413365798
H -2.467910793 0.910250480 2.547321657
H -1.988937181 -2.090124475 -1.927550051

