11

O 4.256006161 -1.815540428 1.510925761
C 2.083296176 -1.606155353 0.867048487
C 1.359749655 0.690537012 -1.007189291
C -0.542290813 2.288226732 -0.232546239
N -2.423162154 0.768096455 0.631403532
C -1.375882115 -1.525411324 -0.378647712
N 0.000472658 -3.015264843 1.174574901
H 2.767973544 1.184831389 -2.409635985
H -0.753582452 4.320021654 -0.425496082
H -3.126515628 0.831021198 2.412517553
H -2.253187430 -2.127044583 -2.145097874

