10

O 4.821426183 0.919725736 -0.045808114
C 3.249953181 -0.622549145 0.429697472
N 0.657532454 -0.176110343 0.111207000
C -0.546102353 1.923278023 -0.744492850
N -2.975612021 1.549202163 -0.757105222
C -3.196344259 -0.870437352 0.128782473
N -1.066312491 -1.982491363 0.674482503
H 3.593725770 -2.538223609 1.154958996
H 0.453992151 3.605700171 -1.312494729
H -4.992258596 -1.808094283 0.360772452

