12

O 4.212181919 0.368949940 1.876564182
C 4.016092523 -0.061350299 -0.507132950
O 1.829106073 -0.683020229 -1.467424870
C -0.277480543 -0.832443539 0.217060991
C -2.777556515 -0.847155397 -1.048989277
C -1.932144958 1.428929278 0.439709279
H 6.046509475 0.500180326 0.505942555
H 0.067512242 -2.009455865 1.849704635
H -2.775419235 -0.683960652 -3.086731300
H -4.233740728 -2.054930329 -0.276259440
H -1.381509549 3.085171406 -0.624059924
H -2.785494801 1.809464146 2.257426936

