15

C 1.921285798 2.027989902 0.707380500
C 2.667097526 0.289591911 -1.391925228
C 0.099285096 -2.866152715 0.847905599
O -1.711602864 -1.904451381 2.305032709
C -3.272392999 -0.237326773 1.213539390
C -0.306233444 1.302720423 -0.873542606
C 0.496693139 -1.404328729 -1.495466365
H 1.959626773 1.370257496 2.655201605
H 2.569794394 3.969727015 0.531967334
H 3.923406294 0.780552302 -2.932015756
H 1.638071070 -3.645584107 1.951173404
H -4.423892964 0.724784896 2.611086667
H -4.256310653 -0.842934089 -0.478252077
H -1.022194813 2.567348559 -2.310822886
H -0.227750926 -2.082572392 -3.300773019

