17

C -4.360682249 0.327570191 0.120729046
C -1.572082230 0.309786621 0.713526891
C -0.363416085 -2.301781038 0.523771403
C 2.420567994 -2.174293349 -0.049802901
C 3.484589532 0.077202682 -0.453217552
C 2.068217598 2.263890669 -0.756769267
O -0.402712448 2.178033249 -0.973787305
H -5.354482698 -0.955664831 1.392428330
H -4.686817400 -0.295131681 -1.817956934
H -5.150728667 2.215862599 0.347909786
H -1.235298132 1.062340457 2.610647381
H -1.276707247 -3.407143529 -0.974789672
H -0.767068803 -3.292200522 2.296358035
H 3.427797537 -3.929167370 -0.361468060
H 5.512404408 1.134893260 0.325345171
H 5.367066044 2.714095336 1.486509082
H 2.941507397 4.089121064 -1.096736968

