17

C -3.927929297 -0.880903392 0.428075691
C -1.539518224 0.033153242 -0.830013615
O -0.787082307 2.383484235 0.309148252
C 1.515481494 2.958264430 -0.575730292
C 3.230889152 -0.510819409 0.215055576
C 1.898692592 -2.323321441 1.871855022
C 0.706405930 -1.729601618 -0.530789241
H -5.442145052 0.502035735 0.224090300
H -3.588721643 -1.221788914 2.431585589
H -4.535929875 -2.650246498 -0.438336166
H -1.891661639 0.407412896 -2.846547563
H 1.808117584 2.878204576 -2.612740348
H 2.302052592 4.625510584 0.335337494
H 4.946205989 -0.707924231 -0.884243237
H 1.074923425 -1.624318871 3.617697494
H 3.265392395 1.323445541 1.287078952
H 0.942541345 -3.074353971 -2.077780009

