17

C -4.168694502 -2.067473084 1.093971751
C -1.962369181 -1.558575829 -0.682224995
C 0.394299860 -0.623445234 0.683616665
C 2.613255109 -0.101693004 -1.075999265
C 4.962934279 0.816781299 0.309077180
H 6.521312386 1.167085160 -0.996100907
H 5.601706780 -0.576393548 1.693348866
H 4.588424822 2.575441160 1.325178193
H 3.061764030 -1.823722980 -2.133469917
H 2.048228358 1.303185598 -2.486932851
H -0.064477115 1.101131867 1.737444737
H 0.960513150 -2.022837715 2.103348400
H -1.501259283 -3.284372199 -1.727815259
H -2.523334967 -0.162718062 -2.103754918
H -5.824633160 -2.751345750 0.071596488
H -3.673451294 -3.490102412 2.506775183
H -4.720368996 -0.353448459 2.105652165

