8

O -3.837604942 2.005940577 1.824511166
C -2.202252187 1.153219559 0.733974483
C -0.526224645 0.340056159 -1.271373268
O -1.583254820 0.999727027 -3.310818803
C 1.658536105 -0.853295325 -0.593092831
O 2.463898054 -1.409234118 1.758285695
H 1.265142558 -0.907168242 3.029679051
H 2.966933114 -1.453631211 -2.044145662

