16

C -1.291275958 0.975898091 -2.854459544
C -1.167450425 -1.205192848 -0.971109846
C -3.508940184 -1.265842796 0.708168346
H -3.631402525 0.451929703 1.850209268
H -3.475502917 -2.879998153 1.993569202
H -5.229662300 -1.389800496 -0.423405232
C 1.234177732 -1.050312634 0.644022499
C 3.598526771 -1.318984729 -0.903601497
O 5.340693593 0.133001703 -0.893700976
H 3.657926834 -3.028765614 -2.127750339
H 1.318494723 0.728519619 1.689273690
H 1.233470219 -2.602112018 2.017921252
H -1.099237227 -2.981041941 -2.038965431
H 0.346559916 1.004441384 -4.110432583
H -1.344469443 2.788912768 -1.864517424
H -2.983854779 0.844827519 -4.026367058

