16

C 1.438509453 2.151145394 1.264364992
C 0.637799442 -0.338383412 0.235306826
C 2.578242679 -1.949196127 -0.998133308
C -1.732142317 -1.456385411 1.087141034
O -3.665854368 -0.039859464 1.595172303
C -3.626376439 1.768224974 -1.993418874
N -1.671693209 1.546208025 -2.968552760
H 2.292779517 3.276536903 -0.233675634
H 2.884421983 1.855799947 2.713199095
H -0.168522072 3.149846659 2.067062446
H 4.401785133 -1.836107187 -0.041273584
H 1.967610544 -3.911416341 -1.139598187
H 2.832094786 -1.220568302 -2.912796580
H -2.064575812 -3.304537259 0.167248774
H -0.511847684 -1.995042980 2.842519971
H -5.550795611 2.268757640 -1.640280745

