15

C -4.133070727 0.001628528 0.553443164
C -1.485413570 -0.617634950 -0.259201582
C 0.460502446 1.310625242 -0.524909811
C 1.667278620 3.033883143 -1.743873547
N 2.660804436 4.863123405 -2.774731035
N 0.547531175 -0.304315505 1.600722239
C 2.531642279 -2.208025300 1.619310927
H -4.123183453 1.621115842 1.824215216
H -5.302826902 0.454550886 -1.083753038
H -4.982130099 -1.605812235 1.529465146
H -1.285583045 -2.243541739 -1.509288313
H 3.945263074 4.393271728 -4.127817308
H 2.947360086 -2.938551336 -0.278613359
H 1.952636449 -3.765090255 2.839469386
H 4.250341991 -1.378647634 2.395035394

