15

C -3.960201813 0.112218684 0.337263050
C -1.286084880 -0.260267727 -0.525886460
C 0.569994708 1.783329385 -0.504698151
C 1.033886907 4.495994878 -0.690243122
N 2.507746805 3.465063748 -2.339498328
N 0.770597848 -0.049864203 1.395451174
C 2.786553577 -1.902007833 1.294450717
H -4.063985836 1.640858170 1.711244950
H -5.171896547 0.584758458 -1.263447379
H -4.683085305 -1.613372179 1.206186069
H -0.987607250 -1.750163728 -1.915471848
H 2.180375867 1.259977520 -2.516101681
H 3.235918336 -2.490796642 -0.650918677
H 2.235543322 -3.561984664 2.380691863
H 4.483398928 -1.097165974 2.140451264

