12

N 4.973376358 1.384368194 -1.380469387
C 3.255853360 -0.133006937 -1.056736928
C 1.354239308 -1.705410874 -0.875924096
N -0.969452046 -1.137726016 0.339282619
C -3.104518555 -0.524634724 -1.287762069
C -1.851644779 1.452283080 0.244192923
H 1.587129874 -3.623107043 -1.548657658
H 6.226914637 1.477450226 0.078158827
H -4.902464895 -1.304634678 -0.696823091
H -2.767736327 -0.487343492 -3.310080430
H -0.696529692 2.818926797 -0.760058770
H -2.728011903 2.142155532 1.960121805

