17

C -2.820175584 -1.820043400 0.045867659
C -1.907589063 0.002931721 -1.918323010
N -1.835633546 2.644774380 -1.264914694
C -0.091612845 -1.845036558 -0.740886667
C 1.968017856 -1.222371215 1.096588870
C 3.851705890 0.776887688 0.598700839
N 1.987552654 1.074229555 2.610433597
H -0.784072918 3.639332969 -2.511761112
H -3.213922888 -1.022735142 1.889977515
H -4.052316569 -3.351395229 -0.516145507
H -2.436988505 -0.450422118 -3.853508065
H -3.594305123 3.390762816 -1.262065687
H 0.435838837 -3.379504508 -1.995899688
H 2.609404131 -2.873919717 2.137426682
H 5.792869037 0.551615742 1.213556700
H 3.615937063 1.883139862 -1.113006887
H 0.588480520 2.233958938 1.989116459

