17

C -3.773376572 -0.532960933 -0.274586711
C -1.635166580 -0.271256636 -2.139329617
N -1.326728127 2.468604265 -2.321611786
C 0.512880911 -1.731046332 -1.327670439
C 2.205393271 -1.345604110 0.797174786
C 3.829900208 0.990014213 0.952667045
N 1.853874524 0.546288585 2.773947687
H -3.723073272 1.955614960 -1.144190089
H -3.256634100 -0.455570223 1.718903198
H -5.340848721 -1.816095365 -0.648771608
H -2.268224151 -0.963086939 -3.976039003
H -0.585841139 3.105970261 -0.662360440
H 0.944867163 -3.437417754 -2.392504049
H 3.077541694 -3.070042731 1.482615679
H 5.740732268 0.778968617 1.658330483
H 3.540155380 2.377239654 -0.527067179
H 0.317734299 1.632584382 2.435647120

