15

C 3.543815307 -2.382531360 -0.137355613
C 2.166545604 -0.378011800 1.159120002
C -1.656730169 3.599812654 -0.245041542
N -2.012415270 1.618614525 1.626065205
C -0.617253924 -0.659080215 1.077045625
C -1.646203733 -2.075835934 -1.124418924
N -2.439150786 -3.094999947 -2.868302657
H 2.583307920 -4.177567919 -0.531965217
H 3.785065057 -1.431522058 -1.989322760
H 5.450571624 -2.656333155 0.586508647
H 0.334153902 4.139042980 -0.261686798
H -2.216091332 3.048834789 -2.168889752
H -2.756024579 5.250445621 0.306878559
H -3.867542229 1.216536213 1.840542506
H -0.759259113 -1.938156800 2.734037162

