10

C -2.379896250 -0.248464517 -0.202256934
C -0.441475984 1.274522610 1.176813470
N 1.927881679 1.147137438 0.960268450
C 3.190949771 -0.563670797 -0.569256128
O 3.432083228 -2.777319941 -0.125769569
H -3.554263187 -1.256277455 1.163855940
H -1.538881065 -1.618747978 -1.484479157
H -3.629072398 1.013703517 -1.255793119
H -1.164913052 2.667709230 2.516704901
H 4.131021489 0.362324409 -2.187909430

