15

C -3.966920016 0.488594170 0.712926752
C -2.310786226 -1.663175533 -0.186576931
N 1.048664981 1.251942084 -2.598633259
C 1.785742093 0.106169859 -0.634641993
O 0.235276609 -1.401002735 0.689388096
C 4.356462188 0.163735490 0.561212698
H -5.917583194 0.159798586 0.126423698
H -3.335856824 2.272917286 -0.097327491
H -3.925923995 0.629056133 2.770124978
H -2.940976289 -3.462341692 0.595137231
H -2.302597154 -1.779496850 -2.244589989
H 2.476055418 2.273669019 -3.359530878
H 5.644045659 1.350429677 -0.516700728
H 5.120172759 -1.747226470 0.672886932
H 4.212175721 0.888545350 2.485455766

