17

C -3.134613615 0.156634844 2.174760678
C -3.691518417 0.356308144 -0.548201669
C -1.656130105 -1.514736148 0.402811148
C 1.215274934 -1.089105555 0.077258486
C 0.614628376 -0.707186085 -2.547630193
C 4.379827933 1.944956564 0.560003518
O 2.046523901 1.020690232 1.446396980
H -2.090542274 1.674760896 3.054046634
H -4.452559656 -0.837954660 3.380891662
H -5.385151460 -0.514168627 -1.290387125
H -3.070642001 2.025563947 -1.534744171
H -2.189459913 -3.484128647 0.356553280
H 2.210301570 -2.799711740 0.699543636
H 0.314666876 -2.591583276 -3.380742430
H 4.263014343 2.441986339 -1.444805207
H 5.890694432 0.547665629 0.828051796
H 4.826429743 3.625633305 1.659907535

