13

C -4.051996809 -0.089308835 -1.303358886
N -2.326301161 -0.093448431 0.800380196
C 0.123512481 -0.041342219 0.714881484
O 0.989465569 -0.045729123 2.988353273
O 1.530581180 0.009251249 -1.329354053
C 4.203908226 0.058059983 -0.933644136
H -5.262890658 1.581719191 -1.252203376
H -5.263942499 -1.759040867 -1.253225000
H -3.023220666 -0.089189158 -3.093709926
H -1.421784110 -0.093231982 3.179072049
H 4.734824305 1.721017310 0.156833095
H 5.040139891 0.128723004 -2.807873033
H 4.809892239 -1.639390552 0.060687288

