15

O -2.961296571 2.085799591 1.164324592
C -2.951632757 -0.334609818 -0.018075627
C -0.436620862 -1.294361106 -0.768760430
C 1.756169939 -1.066167171 2.678414094
C 3.322052318 0.337702695 0.768321333
O 5.511735426 0.876758032 0.927212245
C 1.527647116 0.694109331 -1.424359637
H -4.672332536 2.636793613 1.385752797
H -3.955734179 -1.721295270 1.141885190
H -3.931842447 -0.255681381 -1.857360162
H 0.591762067 -2.511382279 1.241399301
H 0.511747340 0.197006084 3.720582235
H 2.743031824 -2.389705535 3.910200491
H 0.804612219 2.631924772 -1.358006515
H 2.465529908 0.372458273 -3.230345666

