16

C 4.292485680 -0.395208818 0.495856954
C 1.681503099 -0.630977399 1.681018233
C -0.222310688 1.130460170 0.501909067
O -0.703560078 0.505419497 -2.150749175
C -3.027141413 0.703551801 1.097438699
C -3.215176967 0.092914186 -1.674413810
N -4.956116129 -0.555861730 -3.127734936
H 5.048166332 1.512092345 0.727832401
H 5.622453081 -1.710745874 1.360811398
H 4.211610863 -0.802918779 -1.523605936
H 1.762252476 -0.209291798 3.705148067
H 0.981962827 -2.569038881 1.500009758
H 0.389450652 3.099331445 0.623100491
H -4.316721039 -0.793467030 -4.925667822
H -4.102204168 2.358732111 1.672491505
H -3.441656202 -0.875352945 2.350177057

