12

C 2.139551622 -0.709594371 -0.960799879
C 0.669170049 1.563057616 -0.164264122
C -2.074406697 0.784840109 -0.591107787
O -2.153043378 -1.629113296 -1.626423346
C -0.028417815 -2.562788442 -0.282485842
C -0.859182332 0.349958173 1.908244401
H 3.793019235 -1.065466121 0.210968306
H 2.640844770 -0.868442368 -2.955137840
H 1.231031792 3.532657305 -0.191319010
H -3.586161575 2.085802955 -1.044713904
H -0.520144395 -2.373699385 1.945216042
H -1.277899210 0.934526204 3.823891464

