12

C 4.217764151 1.797891369 1.150421895
O 2.610410410 -1.158828531 2.065316906
C 1.803734893 0.868203412 1.142234676
C -0.811868597 1.494738178 0.278029792
O -2.476793979 -0.530600476 0.347188855
C -2.104680978 -2.305647380 -1.615946308
H -2.274406995 -1.397019930 -3.471436717
H 4.857133333 2.659386366 2.908792477
H -0.656073188 2.341403946 -1.613370233
H -1.541284098 2.956659636 1.544321284
H -0.261075623 -3.228591736 -1.472693748
H -3.584227497 -3.719834206 -1.420490385

