9

O -3.295199120 -0.512058975 -0.226594017
C -0.834854054 -0.096137076 -0.404156501
N 0.809432022 -1.951297559 -0.240211006
N 2.794336698 -1.782139481 1.030386927
N 1.386663456 3.031800835 1.216053407
C -0.072959491 2.660791283 -0.528521910
H -3.622637919 -2.113033870 0.577728961
H 3.986794814 -3.171132950 0.380057447
H -1.097490515 3.920586312 -1.812778423

