13

C -0.912287944 3.666246864 0.177616171
C -1.481573401 -2.924878638 -1.120045058
C 1.016397001 -2.389837948 0.063280692
C 1.964366886 0.101596892 -1.095658029
N -0.285831300 1.361236888 0.025087928
C -1.258736764 -0.964003475 1.043297120
H -2.597816141 4.175046099 1.220151731
H 0.256127904 5.094302182 -0.703940537
H -2.305013094 -4.583257612 -0.181629118
H 2.232747019 -3.577157502 1.202711184
H 3.672316078 0.926696577 -0.290432707
H 1.926252282 0.193814015 -3.156126370
H -2.258969917 -0.930094569 2.823501030

