13

C -1.188143115 3.150550469 -0.369193733
C -1.935106064 -1.907907425 -0.796541615
C 0.807151973 -2.264397304 -0.145668593
C 2.320388491 0.206543834 -0.652566065
N 0.309186973 1.554655762 0.698395438
C -0.836502009 -0.811029332 1.624774371
H -3.144554973 3.193709886 0.222206602
H -0.458061600 4.570498011 -1.653237709
H -2.938753669 -3.685307227 -0.471315421
H 1.759847402 -4.047309665 0.144690774
H 4.093291463 0.261471199 0.392259541
H 2.550528749 0.835549530 -2.609113982
H -1.387227331 -1.038105910 3.576720333

