12

C 0.437528649 0.987429729 2.199743349
H -0.830576981 1.663993690 3.647623273
C 2.197254712 -1.210742974 2.221313571
O 2.288045205 -3.065678522 0.365594825
H 2.207110767 -2.216410431 -1.243855454
H 2.481331004 -2.092802481 4.051933201
C 3.271146856 1.368322228 1.930997063
H 4.568322747 2.393723490 3.123827493
C 1.518269803 2.394179273 0.028724952
O 1.542762317 1.383425750 -2.442347428
H -0.120793732 1.568807977 -3.143151208
H 1.262267471 4.435340944 0.039778111

