18

C 4.931412212 0.982882878 0.160070291
O 3.073799186 2.007449221 -1.411682145
C 1.474929785 0.372016719 -2.202505883
C 0.167127284 -0.887821075 1.529368354
N -1.893894029 -1.085383758 -0.353393185
C -4.401023007 -0.924786536 0.712725609
C -1.294171944 0.830973199 -2.229863750
H 6.190269842 2.479949406 0.777267580
H 5.907035159 -0.616237686 -0.713039587
H 2.576747169 -0.432488692 1.306823812
H 2.164464713 -1.470368364 -2.801388796
H 0.197449981 -2.608928694 2.671877588
H -0.183367061 0.733737361 2.798711962
H -4.754831686 0.898268501 1.661638959
H -4.647540123 -2.429588602 2.102504014
H -5.821665061 -1.180705342 -0.762886292
H -1.699022428 2.775721818 -1.602787993
H -2.240213856 0.485605190 -4.034308802

