15

C -3.446202638 0.333296666 0.229788542
C -1.192448101 -1.203751063 -0.335039126
C 1.338688261 -0.036635667 0.695500359
C 3.682352546 -1.061744248 -0.613077648
C 1.012951898 2.769406637 0.564783581
N -1.062321144 3.697226297 0.425114320
H -4.266339410 0.145882926 2.105666943
H -2.920767444 3.980069297 0.089218940
H -4.859185386 0.492213203 -1.252899816
H -1.298844065 -3.076371953 0.538985814
H -0.979765737 -1.475756257 -2.371457603
H 1.478039632 -0.416349524 2.729479199
H 3.759938692 -3.115997299 -0.443865505
H 3.664959072 -0.584182564 -2.620468572
H 5.396502440 -0.279309817 0.216339418

