16

C 1.729385131 2.193478359 1.212855820
C 0.338204020 0.098584083 -0.196294640
C 2.189196201 -1.682008260 -1.491611513
C -1.540032022 -1.325951828 1.539122081
O -3.993519725 -0.508463619 0.708575922
C -3.562263078 0.860487150 -1.396972592
N -1.328888557 1.276130143 -2.097704809
H 2.839985092 3.321366687 -0.106842186
H 3.000518422 1.402414380 2.635079367
H 0.390316808 3.446502669 2.158094257
H 3.388088249 -2.630026844 -0.102733638
H 1.180174499 -3.118446743 -2.574062907
H 3.397001558 -0.630254276 -2.788722095
H -1.436596143 -3.375522836 1.311767487
H -1.339593723 -0.852326500 3.534296624
H -5.251976696 1.524037437 -2.344847197

