15

C -4.759398889 -0.583821419 0.569087470
N -2.516837994 0.580619486 -1.030760639
C -0.330368006 -1.018617845 -1.092469324
C 1.616819078 0.186818740 -0.030558043
C 4.193989715 -0.759060220 0.587265936
C 0.606969279 2.688211833 0.520577747
N -1.721289657 2.975050867 -0.071607846
H -3.304052563 0.891590303 -2.754681400
H -3.849061728 -0.889499662 2.413782007
H -4.929468099 -2.465272905 -0.310821794
H -0.531067125 -2.914714425 -1.809207483
H 5.644811829 0.470497774 -0.210835100
H 4.479335034 -2.657613576 -0.155348772
H 4.483991886 -0.823163245 2.629773035
H 1.624739392 4.254680140 1.356493789

