15

C -5.421213141 -0.996608488 -0.010321457
N -2.204723306 0.584459296 -1.048353365
C -0.149888068 -0.987215529 -1.186958654
C 1.810544332 0.211795874 -0.047977179
C 4.449751749 -0.705351029 0.333733608
C 0.748745093 2.573441168 0.726886706
N -1.633933798 2.787794126 0.120763779
H -3.874673167 0.398402191 -2.133479535
H -5.747126250 0.394683946 1.490698756
H -4.525608455 -2.635956616 0.892008783
H -0.291116127 -2.819851081 -2.068812068
H 5.812541520 0.533932895 -0.594109050
H 4.688768429 -2.599726238 -0.438703019
H 4.931134044 -0.774373974 2.338468673
H 1.683813988 4.099882374 1.711174671

