11

C -2.837699827 -0.045805544 -0.056317920
C -0.115391401 -0.716575869 0.359183306
C 1.873726815 1.061172304 -0.463100706
N 4.190666707 0.559114383 -0.175241711
N 0.613324371 -3.404314798 0.441977801
N 0.551109636 -2.390284831 2.484196792
H -3.215700421 0.289057138 -2.057958161
H -3.347015789 1.661217966 0.987373888
H -4.066144319 -1.570874506 0.576696093
H 1.172581334 2.810599775 -1.322763198
H 5.298726404 1.979101969 -0.840294273

