12

O 2.703698667 2.068250895 2.179369493
C 3.243189020 1.013769091 0.192676665
C 1.588431706 -0.555245868 -1.242242138
C -0.978417361 -0.765602867 -0.381654171
C -2.846850297 0.932697969 0.642669644
O -3.222110996 -0.585553768 -1.614528352
H 5.165133010 1.217855563 -0.613175328
H 0.260542399 -2.695577267 0.462994296
H 2.113562049 -1.414405977 -3.018269376
H -1.442794142 -2.922535926 1.089998923
H -3.985260129 0.381996760 2.251833328
H -2.565658747 2.930080846 0.302490218

