13

C -3.673907473 0.633847175 -0.105882526
O -2.179973147 -1.600843465 -0.226872714
C 0.326216486 -1.340646886 -0.059044568
O 1.046795532 0.450632066 1.681179313
C 1.945493813 -2.768760313 -1.328385757
C 2.844022832 2.157683317 1.014234285
O 3.691239626 3.610432140 2.492019484
H -3.121538052 1.968616521 -1.583685338
H -5.609193856 0.026537405 -0.429533066
H -3.526748850 1.537778807 1.739073019
H 1.245792008 -4.098251635 -2.706692523
H 3.943778146 -2.699808137 -0.924360724
H 3.358409552 2.023655513 -0.997707836

