12

O 2.483240629 -1.982915474 1.193877319
C 3.446420202 0.093239181 1.507542036
C 0.070636243 1.728799089 -1.050464643
C -0.419942668 -0.907351602 -1.308199514
C -2.422931777 -0.517468051 0.689223596
O -1.721464495 2.135868262 0.818580659
H 5.023216259 0.021967178 2.920126317
H 1.349144531 3.138927671 -1.764695325
H 0.102039031 -2.319313577 -2.673874273
H -1.365349972 1.050236496 -2.902797264
H -1.999093759 -1.490689893 2.455226346
H -4.404158327 -0.749314014 0.165594848

