10

C -2.451238703 -0.228671129 0.333509392
C -0.079305550 0.121408365 -2.421471680
N -1.041355634 -0.842698780 -4.168528717
O 2.740432222 -1.939470878 1.496762982
C 2.801595230 0.267065922 0.898263720
N 1.187352964 1.507452255 -0.721813397
H -3.880800718 -1.150469252 -0.789071641
H -1.385902482 -1.436926618 1.599641373
H -2.876814399 1.668922323 0.954349317
H 4.185133325 1.594737042 1.702106877

