17

C -4.622083358 -1.326565422 -0.983225466
C -2.796959052 0.877018115 -1.292751286
C -0.518503432 0.602776883 0.409186404
O 1.020639776 -1.450409134 -0.265014852
C 1.748329370 2.072107769 -0.093800751
C 6.001130065 0.029423244 0.387308875
O 5.280805357 -2.160486140 0.908866898
H -6.214681154 -1.156985802 -2.280678259
H -3.669522553 -3.114126300 -1.366620794
H -5.378398580 -1.406953483 0.936524759
H -2.134548213 0.980813174 -3.248152329
H -3.741635031 2.667154048 -0.863698909
H -1.080661106 0.563918388 2.405760629
H 3.208101436 -2.045881640 0.593125221
H 2.734645597 3.068859876 1.378579018
H 2.167060800 2.616800349 -2.014552437
H 8.091694241 0.171201080 0.626067777

