14

C -4.147456986 0.353321357 0.125508712
C -1.644452524 -1.043494483 -0.161766131
C 0.516223364 0.416346255 0.993251238
N 5.166064285 -0.336837729 -0.834770547
C 2.939215272 0.683622145 -0.189241426
N 1.625028520 2.637844830 -0.480333421
H -4.057122634 2.190383667 -0.807541389
H -4.588158069 0.680663476 2.116440102
H -5.707850636 -0.713360916 -0.699816984
H -1.765790610 -2.904509072 0.737227458
H -1.240549926 -1.371826932 -2.161458197
H 0.370532340 0.709958993 3.030258497
H 6.480172009 0.772661335 -1.640733448
H 5.754765752 -1.902123786 0.052773002

