17

C -3.911639631 1.586557362 -0.401207035
C -1.394728807 0.330775582 -0.332406397
C -0.540444910 -1.509645717 -1.800544223
H -1.474999516 -2.474664579 -3.341074282
O 1.844525369 -2.327268379 -1.295845486
C 2.892713005 -0.619019325 0.563521055
C 4.900052169 0.981511107 -0.704054147
H 6.344562239 -0.210596408 -1.562932139
H 5.804399389 2.225926714 0.671822279
H 4.047750916 2.145133627 -2.181166094
H 3.736867535 -1.799532086 2.028678783
C 0.642532054 0.932747272 1.567022923
H 1.092441602 2.950043308 1.638574814
H 0.078516873 0.367952126 3.475998592
H -5.097605876 0.806894630 -1.896021294
H -3.728637192 3.619375949 -0.730145426
H -4.913842918 1.354889563 1.392573518

