19

C -3.087826642 1.444581653 -0.867874600
C -1.794801685 -0.684408214 0.643409623
C -0.614236107 -2.697839024 -0.749493028
O 1.822112688 -2.605531515 -0.900843555
C 2.753982050 -0.447231523 0.606120697
C 3.776704550 1.549177880 -1.159023419
C 0.461979154 0.271293334 2.230188632
H -4.677847059 0.613739903 -1.873877918
H -1.801751663 2.348700311 -2.204127438
H -3.761381554 2.875799654 0.458749385
H -3.498029265 -1.741041982 1.448682359
H -1.597005035 -4.325729175 -1.505577533
H -5.365810151 -3.204421855 -0.934077110
H 4.280733813 -1.258532900 1.723449614
H 5.246707838 0.759730902 -2.366976703
H 4.599189061 3.082949429 -0.054178939
H 2.293171182 2.334015476 -2.352799996
H 0.389437311 2.298577858 2.574146943
H 0.542423321 -0.690828975 4.050504908

