11

N -3.664103366 -0.606559340 0.498680262
C -1.614360657 0.481067277 -0.596110005
O -1.720485012 2.334874546 -1.914281320
C 0.865670688 -0.847004124 0.035850013
C 4.420546108 1.616070840 -0.490226969
O 2.827189775 0.087538237 -1.541342528
H -3.528154409 -2.103949390 1.651543003
H -5.348706410 0.243237610 0.293402336
H 0.718025100 -2.875763390 -0.304097392
H 1.371675754 -0.479627136 2.004513551
H 5.688343674 2.120485854 -2.088920833

