8

O 4.430414617 0.679189169 2.625019429
C 2.526278952 0.478974519 1.470269796
C 1.085560183 -1.690098650 0.060123715
N -0.619994367 0.054658476 -0.446557817
H -2.235272354 -0.179370725 -1.436669918
C 0.378281672 2.355139213 0.737738024
H -0.757602031 3.096461991 2.291017272
H 0.887117038 3.856600696 -0.580951057

