12

O 3.022357874 -0.311442248 -1.695628707
C 1.764165086 0.572443756 0.438675429
C -0.874115987 1.644538620 0.092346966
C -2.031229686 -0.733940506 -1.027823815
C 0.050085811 -1.164917153 2.055430388
O -1.398279489 1.028088320 2.716374931
H 4.427375975 -1.324535837 -1.162389040
H 2.957319944 1.713050470 1.678724068
H -1.394306113 3.558510743 -0.513755703
H -4.045819181 -0.976704003 -0.690848514
H -1.334072529 -1.414027427 -2.833912835
H -1.196335437 -2.612297679 0.896659702

