14

C -4.353331856 -1.225911768 -0.303804901
N -0.409799715 -0.264320736 -0.181735396
C -1.015209024 1.580490737 1.326259683
O -3.300374268 1.837849344 1.816522160
C 1.970970364 -0.945240308 -1.032591160
O 2.211931912 -2.732628371 -2.430575398
C 4.221119436 0.603059209 -0.172070845
H -6.082980434 -0.146732150 -0.217346699
H -3.802525295 -1.802812215 -2.178946025
H -4.145639012 -2.666243767 1.125532615
H 0.355289261 2.875734043 2.170712544
H 4.012968031 2.576747603 -0.734236683
H 5.916495751 -0.174998333 -1.031190041
H 4.408907473 0.538735407 1.881542439

