12

O 1.119789227 2.127435700 -1.529151621
C 0.298769064 -0.491952837 0.260852427
C -1.785920445 -1.980738453 -0.822350209
C -2.201859313 -0.342922042 1.494345682
C 2.880667418 -0.902461709 0.960729108
C 3.637247845 1.085098750 -0.310006679
H 0.627451680 3.649522769 -0.647230858
H -2.617884503 -1.329724326 -2.570527135
H -1.636161142 -4.008521959 -0.613153502
H -3.339716646 1.336472462 1.240135320
H -2.334012491 -1.211454248 3.340308584
H 5.269433778 2.150500374 -0.902772418

