15

C -1.837609047 -1.263666020 -1.628235820
O -2.804028101 -3.699266426 -1.173913364
C 1.200486466 -1.154435315 2.201202236
C 3.428841761 -0.254211930 1.346907964
C 3.026650273 1.776511631 -0.150408915
C 0.330283101 2.664884090 0.103494650
C -0.973918282 0.064600344 0.784670525
H -0.247522016 -1.315128459 -2.963880979
H -3.367118223 -0.194899946 -2.508467603
H 0.912731482 -2.250022233 3.910795793
H -1.446963067 -4.757087906 -0.599269268
H 4.275522270 2.451790786 -1.629791802
H 0.005995855 4.015585453 1.632679813
H -0.365448069 3.534488752 -1.639385488
H -2.610880177 0.243748082 2.036300048

