15

O 5.420113850 -0.486174905 1.391128255
C 3.313098776 -0.909095536 0.085193824
C 0.972407975 0.065231003 0.813237402
C -2.606740826 2.198055842 -1.346607441
C -3.742159789 -0.040114501 -0.065991731
C -1.048151864 -0.292074048 -1.090305512
O -0.444861995 -1.727743431 -2.982177610
H 6.772361632 -1.509599967 0.742450566
H 1.554156364 -2.250238588 1.369791093
H 3.272205292 -1.868109113 -1.747950745
H 0.805877145 1.143912016 2.549668187
H -2.180187423 3.864360611 -0.235876352
H -3.111900014 2.548985542 -3.295243302
H -5.084114914 -1.165506275 -1.118060808
H -4.084843027 0.073918074 1.951080732

