14

O 2.828594787 -2.588516553 1.798650812
C 1.845452279 -1.561546346 -0.468629024
C -0.695373860 -2.303009341 -1.136080934
C -2.863195823 1.840011153 0.533264423
C -0.398238200 2.565992794 0.538902648
C 1.600693667 1.241296349 -0.583915848
H 2.310050537 -1.502286027 3.155898054
H 3.140857894 -2.096973674 -1.990551215
H -1.185028960 -2.578435148 -3.101989950
H -2.003357945 -2.966167850 0.284426591
H -3.630185919 0.820891548 -1.057072996
H -4.204032249 2.578341587 1.898312983
H 0.104198648 4.310614786 1.518712831
H 3.152883487 2.281279456 -1.438241111

