16

C -2.238216207 2.806866187 -0.637370985
C -0.040433015 1.102148690 -0.233765358
C 0.203482648 -1.358690048 0.287809068
C -1.868898735 -3.235798188 0.633026240
C 2.896227499 -1.990356970 0.476572923
C 4.496095620 -0.037326589 0.099397119
N 2.534882989 2.101441251 -0.389411270
H -3.994593751 1.739225955 -0.519830719
H -2.191548306 3.709998124 -2.497368127
H -2.334201425 4.310516180 0.779694007
H -1.684973921 -4.757546145 -0.749167938
H -3.740894655 -2.399957658 0.431873209
H -1.744181762 -4.100335209 2.503020921
H 3.538913319 -3.889234641 0.888582974
H 2.954513890 2.842659678 -2.114442396
H 2.892253008 3.477678766 0.906240330

