15

N 3.864535278 0.479060180 -0.836783635
C 1.665502731 -0.999296888 -0.212523305
C -0.130250072 -0.360668612 1.984981304
N 0.321484063 -0.138566757 4.306248026
C -0.620543276 -0.867821593 -1.970730803
C -1.909373305 1.616337897 -1.749426980
C -2.376301670 -0.338122233 0.273651731
H 5.200813987 0.280108869 0.514750852
H 3.438334460 2.339855675 -0.937450593
H 2.243542552 -2.968573018 0.032796707
H -0.966713115 -2.126606223 -3.540964825
H -0.869855146 3.324080769 -1.299453219
H -3.477755943 1.916274169 -3.028566739
H -4.242705399 -1.070624128 0.666428377
H -1.296281559 0.152617853 5.309268884

