12

O -1.000138213 3.592209076 4.281923169
C 0.348962533 2.816654892 2.771551759
C 1.941132855 1.803853001 1.080283614
H 3.728499753 2.752513241 0.812770148
C 2.041710939 -1.329602722 1.013433570
N 0.959416202 0.219026892 -1.006762459
C -1.657337357 -0.672614018 -0.458748516
H -3.046353484 0.805439144 -0.074949959
H -2.320314395 -1.759447914 -2.074184843
C -0.633863785 -2.277584588 1.738523941
H -1.313816366 -1.874854868 3.644339723
H -0.784290917 -4.309285043 1.443205309

