15

C 4.335973305 0.147984169 1.250031759
O 2.144934753 0.950819819 -0.063565436
C 0.384171740 -1.604620612 -1.061385087
O 1.515441072 -3.435254906 -1.540363877
C -1.926142356 -0.555611871 -0.161681037
C -2.994555996 1.776307786 -1.423324747
O -3.710165705 -2.364251529 0.506120283
H 3.840483562 -0.775976405 3.033556145
H 5.505357014 1.799509144 1.628134682
H 5.380776291 -1.187574327 0.076574027
H 0.254951814 0.732249409 1.101661897
H -1.521465595 3.095098969 -1.993994315
H -4.272840257 2.740732689 -0.125757003
H -4.073347615 1.268218389 -3.120777135
H -4.902322750 -2.579981076 -0.850405064

