12

C -3.841909436 -0.622801820 -0.432193914
N -1.337161475 0.102416296 0.452520054
C 0.690705424 -0.841317409 -0.545418726
O 1.577820951 -2.210344202 -2.058738259
C 3.188057129 0.872711089 1.462129347
H -4.092492222 -0.197160267 -2.436691137
H -5.228686257 0.448931823 0.643480620
H -4.195018236 -2.635555767 -0.137964671
H 0.676127586 1.095807431 1.633899594
H 4.229371983 1.773580628 -0.059790632
H 4.159821388 -0.780208315 2.194166937
H 3.048191885 2.250102736 3.020978619

