17

O 3.112035375 -1.124651096 2.403932074
C 2.285641454 -0.749380306 -0.085583901
C 0.186566405 -2.585261689 -0.903462980
C -2.281566940 -1.415756300 0.049415469
C -1.928469497 1.434290450 -0.138102527
C -0.693062801 2.582385507 -2.242977864
C 1.068509430 1.823646729 -0.475235790
H 1.702134864 -0.919775153 3.534390921
H 3.970648767 -0.920785363 -1.259007921
H 0.537531387 -4.470109542 -0.147198062
H 0.176595851 -2.701652415 -2.960003979
H -2.637094854 -1.926643814 2.022025775
H -3.913118209 -2.051066897 -1.041022267
H -2.941364495 2.602088018 1.251160247
H 0.590869814 2.733835868 2.435286863
H -0.976626751 4.376949918 -3.162036394
H 1.855438801 3.310024740 1.133111305

