11

C -2.911617220 -0.934958856 -1.142953112
C -1.343026297 0.320024836 0.760844178
C 1.322977928 0.487570222 0.131379014
C 2.912621931 1.098966675 2.013879884
C 2.307904261 -0.169057280 -2.337759742
N 2.956513447 -0.691614798 -4.342627824
H -3.429337304 0.711459039 -2.327759236
H -4.686701768 -1.647592417 -0.384470147
H -2.009341234 -2.301542347 -2.413833577
H 4.950224511 1.025453324 1.804332500
H 2.107628743 1.630783813 3.817783700

