19

C 4.709955868 0.702369721 2.309772199
C 3.431426548 -0.269840456 -0.050745893
O 0.989839980 -1.279813201 0.522505645
C -0.813722400 -2.062051100 -2.067092436
C -1.020214493 0.524317496 1.070211223
C -2.966635217 -0.834853412 -0.530616123
C -4.749362611 0.830138035 -2.038394205
H 4.905254717 -0.792990517 3.714474243
H 3.662077051 2.266666695 3.153443734
H 6.592889920 1.395201295 1.834640476
H 4.460925832 -1.839776959 -0.896206772
H 3.189625527 1.185012274 -1.497776914
H -0.828092047 -4.122314898 -1.803725161
H -0.500495325 2.362730829 0.284469336
H -1.317625676 0.662427355 3.104356586
H -4.066325676 -2.138920624 0.649826925
H -5.919873731 -0.320243024 -3.288357858
H -6.016847654 1.912185368 -0.815250886
H -3.672206077 2.134447396 -3.219623436

