16

C 3.572141508 -0.891516906 0.085055269
C 1.000237405 0.206099729 -0.623634754
C -1.162062382 -1.510387737 0.231930868
C -3.784101127 -0.484481540 -0.333328281
C -0.987478408 4.299041008 1.405201707
C 0.681259269 2.825845273 0.434122569
H 3.758239695 -1.051175086 2.134370069
H 5.115065415 0.288875856 -0.607921984
H 3.797029915 -2.773893130 -0.727655731
H 0.912649468 0.386901053 -2.686018390
H -0.914137457 -3.340107328 -0.699176443
H -0.967107954 -1.850023262 2.263123024
H -5.237904870 -1.838249475 0.217864843
H -4.022136717 -0.079998910 -2.343925540
H -4.159742813 1.265143276 0.707694138
H 2.297309625 4.162031857 0.493768618

