12

O 1.363531980 2.331600992 1.535703774
C 2.601486802 0.774290638 0.318985014
C 1.258798350 -1.108997719 -1.236948656
C -1.389293936 -1.303877559 0.140027289
C -1.853683907 1.353033568 0.855596047
O -3.496173062 -1.692565839 -1.144840457
H 4.660143406 0.833556417 0.545450983
H 2.339652605 -2.843270910 -1.489162673
H 0.876488179 -0.297566801 -3.105879573
H -1.086725747 -2.528313450 1.821927362
H -2.864573093 1.800930880 2.581282814
H -2.206046814 2.590510724 -0.735926930

