14

C -3.530938599 0.552299351 -1.601870796
C -2.578997700 -0.522707808 0.886649331
N -0.433983258 0.859553701 1.932614971
C 1.856432779 0.643646614 0.974870269
N 7.077439037 -1.352547644 -2.273637461
C 3.949520023 0.350771114 0.093418271
N 6.334137394 0.261187041 -0.727786235
H -2.034289304 0.527181206 -3.020877481
H -4.169371383 2.500743952 -1.373108677
H -5.113573042 -0.563319799 -2.312336689
H -1.990636082 -2.485317929 0.649258760
H -4.069927211 -0.505984903 2.312115270
H -0.807820615 2.416610643 2.957180728
H 5.615077442 -2.548700836 -2.782351318

