14

C 2.664273028 2.144893368 0.295355935
C 1.481493900 -0.451836616 0.270448986
O 1.158211290 -1.501097994 2.773248941
C -1.520241997 -1.793043881 2.427396954
C -1.334342287 -0.631237104 -0.161258758
C -2.907297288 0.019975085 -1.976036569
H 2.763723172 2.899936275 -1.623054380
H 1.549559775 3.432933491 1.455846953
H 4.577179705 2.049325118 1.059561728
H 2.586031166 -1.746754718 -0.912085045
H -4.925186282 -0.282310343 -1.802436595
H -2.610398845 -0.729797489 3.826236426
H -2.097989893 -3.779161156 2.472411667
H -2.230112287 0.879696443 -3.707221229

