14

C 2.549374599 1.859208389 0.126750545
C 1.464003597 -0.756690050 0.066850328
O 0.854432921 -1.893001436 2.337255053
C -1.836085908 -1.537298797 2.404784378
C -2.099304481 -0.446525710 -0.224242801
C -3.710933029 1.088728290 -1.373945958
H 2.463333555 2.699012336 -1.755247525
H 1.516896162 3.056956491 1.441283400
H 4.534276327 1.764329776 0.697719275
H 2.543133495 -2.028931515 -1.161651744
H -0.893126934 -1.624030008 -1.589192415
H -2.381405178 -0.185943627 3.865516500
H -2.783499402 -3.341709154 2.745866281
H -3.066196345 1.857419329 -3.183326521

