12

C 3.578802622 0.152558346 -0.430855648
N 1.769504829 -0.125888244 1.202105754
C -0.489232689 -0.866515660 1.919305289
C -1.990437132 -3.042122066 0.990618113
H -3.613162114 -3.375413157 2.212245172
H -2.703343607 -2.680062086 -0.909836818
H -0.854367272 -4.783584795 0.925179656
C 1.436547558 -0.460380030 3.904842910
H 1.381568017 1.232752274 5.066738542
H 2.567283855 -2.014877017 4.673083249
H 3.192384243 -0.201350545 -2.403561612
H 5.356684739 0.916849989 0.207497428

