17

C 3.290454056 0.545739507 -1.446711431
N 2.217097573 -0.611844772 0.653183703
C 1.181070154 0.634159338 2.891880259
C -0.197740167 -0.968397069 1.101519846
C -1.680930701 1.977392579 -1.917655048
C -2.132301612 -2.951908922 0.852194162
H 3.537528207 -0.739980430 -3.034921699
H 0.897578354 1.706947902 -1.903306660
H 4.984833938 1.623173584 -1.010679124
H 0.841549921 2.663684038 2.773375288
H 1.930004824 -0.041817258 4.681126150
H -2.623992722 0.526877923 -3.039404791
H -1.506131998 3.661016537 -3.108189915
H -2.906330863 2.511032245 -0.347014263
H -4.008005610 -2.102076501 0.981965416
H -1.974640514 -3.902714757 -0.968227372
H -1.966739116 -4.354552960 2.361547822

