9

O 5.445447140 -0.350941076 0.435320050
C 3.340255842 -0.807004745 0.853911470
N 1.271818412 -1.609741524 1.377481825
C -1.196437993 -0.550761832 1.354578136
C -1.298258269 2.176955992 0.525269785
O 0.523676916 3.372333224 -0.076943714
H -3.215386916 3.017866448 0.512150437
H -2.437154990 -1.640474329 0.104226484
H -2.051425869 -0.670407725 3.237271607

