11

O 4.984037928 0.209430920 0.467147517
C 2.783041389 -0.090220420 0.399996647
N 1.113627794 -1.989127816 0.440834913
C -1.326272004 -0.930283050 1.032898505
C -1.120637620 1.516164951 -0.372713802
O 1.137041727 2.368968285 -0.102182556
H 0.217252647 -1.263751587 -2.294550341
H -2.875136946 -2.142142739 0.437462584
H -1.514273883 -0.494052096 3.049901747
H -2.611670914 2.879723708 -0.750489348
H -0.856671094 -0.065647460 -2.882497259

