14

C 0.584585133 -2.242568587 -0.615162016
C -2.099456509 -1.419876243 -0.281900877
C -2.191182417 0.790304914 1.274694745
O -0.299254572 1.260496345 3.002327892
C 0.794204118 2.249606361 0.697182158
C 2.266038532 0.246484575 -0.643542396
H 0.860290637 -3.367935605 -2.320482694
H 1.250313536 -3.369600529 0.980008586
H -1.550464293 1.283724140 -0.954860318
H -3.759232028 -2.221916167 -1.142425085
H -3.912250409 1.884468680 1.535382256
H 1.322347251 4.225526731 0.766595257
H 2.690208612 0.878589914 -2.567112060
H 4.056322751 -0.171349140 0.287063628

