16

C -2.484438375 1.358775841 -0.692652334
C -0.894993606 -0.148433622 1.173666679
C -0.717904460 -2.942613963 0.407194274
O 0.458590610 -3.299370407 -1.956612584
C 1.737166361 0.856382211 1.561247183
C 2.919247481 2.548257790 0.141877727
H -2.598624226 3.344397006 -0.147638463
H -4.402155690 0.603107775 -0.766050071
H -1.705756052 1.248569055 -2.598260794
H -1.835834764 -0.124691537 3.020925953
H -2.613165290 -3.738665213 0.229736273
H 0.271777690 -4.004486883 1.891740062
H 2.757221777 0.018802832 3.139940980
H 4.845884587 3.106961082 0.549770538
H 2.011934297 3.455655312 -1.454945572
H 2.054792152 -2.430892494 -1.926217908

