12

N 0.888047105 2.036492252 1.403332144
C 0.731566386 -0.499770256 0.438944639
C -1.806397461 -0.853468915 -0.898396379
O -3.793407612 -0.406427272 0.785503516
C 4.345988022 -1.613489380 -2.704766004
N 2.743686349 -1.144858580 -1.270892295
H 2.317166735 2.251371895 2.648616874
H 1.116940276 3.303335091 -0.011193301
H 0.829837493 -1.807070902 2.030966447
H -1.868937758 0.415220470 -2.543707518
H -1.972214031 -2.789029326 -1.584213006
H -3.395565158 1.135865089 1.668987329

