12

N 1.060311250 2.110674736 1.250560013
C 0.706317416 -0.330741907 0.495940934
C -1.723190930 -0.838826164 -0.946995543
O -3.739276010 -0.859791617 0.786888553
C 2.928417226 -0.912459059 -2.468738738
N 3.932853224 -1.943209985 -0.769319637
H 2.487203555 2.409941308 2.472051919
H 0.999958311 3.413753829 -0.139545408
H 0.982108222 -1.686662694 2.001707156
H -1.977949444 0.574329098 -2.435468541
H -1.645259399 -2.695242426 -1.822196818
H -3.874783036 0.786406919 1.538298557

