12

N -0.918708648 -1.978274911 1.200516494
C -0.520842800 -0.108755760 -0.701773267
C -1.265299915 2.435074855 0.031499202
N -1.839578255 4.457624235 0.565708639
C -0.859203516 -0.726547765 -3.470268092
H -1.710447335 0.696497246 -4.663874859
H -1.396968057 -2.654449192 -3.889049429
C 1.727114266 -0.260649716 -2.456149288
H 2.668145039 1.484939438 -2.947404892
H 2.959802874 -1.868413037 -2.179784798
H -2.244772839 -3.266741432 0.757527633
H 0.676786155 -2.803454966 1.822803723

