16

C 3.510354229 -1.972155638 1.568965127
C 1.129964779 -0.666843116 0.814633134
C 1.141048438 1.438597419 -1.126723785
C -1.634838107 2.033990330 -1.492930976
C -3.094736350 0.406488688 0.250752465
N -3.111156331 -0.081891584 -2.497052429
C -1.203584219 -1.167661319 1.608832396
H 3.167939105 -3.380892588 3.032375728
H 4.905059300 -0.619231957 2.273507353
H 4.363420953 -2.923849777 -0.054921658
H 2.186671376 3.083668016 -0.431868711
H 2.035107328 0.836835980 -2.890890156
H -2.226761311 3.941715945 -1.938141343
H -4.826734575 1.024991116 1.148544301
H -4.735158995 0.596970681 -3.256118337
H -1.696215864 -2.604220914 2.980331593

