16

C 3.298624438 -1.475819487 1.877736058
C 1.017092174 -0.586732769 0.466342550
C 1.285394412 1.307730692 -1.682253207
C -0.775583437 2.372844586 -0.230350641
C -3.011826827 0.555838392 -0.329105178
N -3.486067752 -0.131910064 -2.871288556
C -1.435625863 -1.496540523 0.707629396
H 2.789411051 -2.709078926 3.446557868
H 4.339525839 0.132250858 2.643386414
H 4.578945635 -2.494328861 0.616560470
H 3.055652183 2.344641387 -1.645545333
H 0.754307407 0.514800948 -3.503043691
H -0.667106184 4.133954155 0.809402184
H -4.581418417 1.167516396 0.877656805
H -5.291771664 -0.781223476 -3.011389525
H -2.003544064 -3.193152946 1.707752113

