15

C -3.178910742 -0.004721178 -1.459214426
O -1.700168963 -3.117654211 -1.022225615
C -0.232919006 -1.792389185 0.958533851
C 2.460766116 -1.380698138 0.238290005
C 2.886674007 1.039083805 -0.281996894
C 0.601464563 2.678473715 0.081358473
C -1.498594164 0.789632228 0.772275868
H -0.707809827 -3.186466452 -2.544209071
H -5.013298863 -0.615252610 -0.699995299
H -0.523498167 -2.885431115 2.678606260
H 3.840023111 -2.890981940 0.153955061
H 4.699046479 1.781597564 -0.882940687
H 0.941000122 4.071783300 1.571084153
H 0.124970952 3.714397010 -1.642072149
H -2.505746001 1.349133117 2.484879362

