9

O -3.717501906 -0.623689311 0.339179818
C -1.350453847 0.102393090 -0.121203953
N 0.628224313 -1.179794683 0.864103916
C 2.694267725 0.110736345 -0.015795503
N 1.995154077 1.996651251 -1.402597891
N -0.611418847 1.998889272 -1.476022066
H -4.814049353 0.533125226 -0.539376194
H 4.615870279 -0.409668889 0.415354262
H 0.560066276 -2.717384385 1.971574528

