9

C -0.925424810 -1.375761588 -1.967374064
O 0.664576861 -2.698021930 -2.853907574
C -2.541636454 -0.783878787 0.225182883
O -4.421901514 -2.460367894 0.973240758
H -3.640575483 -3.977739605 1.587081138
H -1.768201447 0.418468909 1.705612376
C -2.886647891 0.537120711 -2.368156043
H -4.500698596 -0.053509409 -3.487631122
H -2.423634793 2.528954257 -2.476581536

