15

C 4.348864147 1.011980295 0.753228279
O 1.744446286 1.255802643 1.347971559
C -0.121202498 -1.723602323 0.167025295
O 1.257491812 -3.320740186 -0.347489681
C -2.691931059 -0.627431101 0.205127730
C -2.038040656 0.906864638 -2.065729150
O -4.628217390 -2.437476942 0.261573660
H 5.064792577 -0.712430906 1.624374543
H 5.369511331 2.634395173 1.508971897
H 4.633449853 0.898722829 -1.289097576
H -2.833524988 0.561931512 1.881594387
H -1.965326111 -0.172651294 -3.814441719
H 0.787680594 1.917007949 -0.171318621
H -3.016379328 2.705263361 -2.220168661
H -5.144211908 -2.707368553 -1.458106101

