11

C 3.655412138 0.700056772 -0.883694158
O 1.863066265 1.156385058 0.681812090
C -0.535962479 0.764935718 0.367875082
C -2.078695033 -0.148191945 -1.663771099
O -1.893311672 -0.963761722 -3.758711787
O -4.269370191 0.264585676 -0.259502577
C -2.856876636 1.242613507 1.894272692
H -3.362760231 3.206608571 2.269780605
H -3.164174090 0.069052426 3.561652828
H 5.518131242 1.180206190 -0.218117443
H 3.218062806 -0.105671009 -2.711651183

