13

C 3.673304575 -0.153974601 -0.757805139
O 1.697706140 1.001244062 0.627341150
C -0.506284028 -0.410799455 0.642714809
C -2.765606700 0.888512979 1.876936685
O -4.190490188 0.695226991 -0.469377110
C -2.183272212 -0.301079198 -1.731387957
O -2.025897748 -0.789127217 -3.909080828
H 4.147275383 -2.007306112 0.039358970
H 5.307597364 1.084184746 -0.607799416
H 3.162458332 -0.385195556 -2.746774691
H -0.184877803 -2.360704324 1.273472924
H -2.416928911 2.856325705 2.364251548
H -3.714984223 -0.117308000 3.398149075

