13

C 3.608112255 0.671781272 0.195736868
C 0.850226334 0.176366816 0.044374492
C -0.396852218 -2.362018062 0.340983486
N -3.058016892 -1.842934106 0.038456588
C -3.131218212 0.528428387 -0.340151761
O -5.239357143 1.837849892 -0.720618145
N -0.817420594 1.883286127 -0.360929980
H 4.343876593 0.068521507 2.027201792
H 3.994506578 2.673204762 -0.069522892
H 4.609995952 -0.412356646 -1.246756902
H 0.275590080 -3.711859410 -1.076544432
H 0.005042602 -3.192317593 2.193910822
H -4.766971495 3.577575434 -0.955405599

