15

C -4.423209866 -0.731650101 0.481076764
C -1.654821961 -0.231843261 0.586291933
C 0.164134751 -1.958672877 0.550086122
H -0.394333780 -3.923846884 0.434413738
C 2.927825779 -1.323714373 0.657969491
H 3.823438705 -2.244512019 2.284469163
H 3.910119743 -2.068043006 -1.008338831
C 3.237247230 1.489512291 0.818680077
H 5.110794653 2.304249550 0.919623861
C 1.280709913 3.045326361 0.842954611
H 1.438593772 5.080044708 0.958125085
O -1.189708527 2.318309282 0.729046720
H -5.255722020 0.186668772 -1.168748006
H -5.352185774 0.034623978 2.156699432
H -4.792144820 -2.752591684 0.375649642

