11

O -3.035487880 -0.011803721 2.353915143
C -1.663558411 0.413382409 0.585401967
C -0.887476483 2.505494970 -0.754855088
C 2.014867851 -0.734734512 0.690924330
C 0.118037056 -2.176635003 -0.448007482
H 0.243851582 2.290684434 -2.434540969
H -1.865579091 4.285795747 -0.475920268
H 2.224297656 -0.739150764 2.726212638
H 3.445382402 0.253221373 -0.376930196
H -0.759631446 -3.696314769 0.596637598
H 0.134403539 -2.391109904 -2.483040752

