16

C -4.999987481 0.049875617 0.674571207
C -2.597747431 1.349634083 1.558627456
N -0.355073851 0.205965616 0.450588659
C 1.076899153 1.310913444 -1.200535713
C 3.212368021 -0.335563770 -1.945819527
C 5.320313521 -0.736954770 -0.206258391
O 3.605184748 -2.730283769 -0.691696548
H -6.651179241 0.912152300 1.557557134
H -4.994808441 -1.955576145 1.164712118
H -5.193663528 0.213895549 -1.371613715
H -2.433755656 1.252039726 3.616909308
H 0.044184990 -1.599601273 1.011936397
H -2.569388367 3.330462034 1.001130168
H 3.624624285 -0.387310141 -3.955100837
H 7.215925121 -1.000594714 -0.947975517
H 5.213371746 0.082407139 1.675601087

