10

N 2.452129123 -0.585059718 1.732376397
C 0.524658837 0.219532054 0.638170339
C -1.277848679 -0.837089695 -1.313318668
H -0.492399851 -1.146386914 -3.191667565
H -2.430250233 -2.433016244 -0.709207865
O -2.685464303 1.529439030 -1.187207096
C -1.088548502 2.558279990 0.583950714
N -1.066060496 4.645201984 1.671843764
H -2.517806913 5.779776636 1.124501769
H 3.134893786 0.741935692 2.952253815

