12

N 3.282309280 -0.630768792 0.116429163
C 1.081661829 0.287458392 -0.714789474
C -1.082392756 -1.106953300 -1.748793733
O -2.927466826 0.325409894 -0.816522161
C -1.069523948 1.733347943 0.656428948
N -1.414357581 3.258719356 2.371836587
H 4.220075589 0.696902781 1.130319291
H 1.340342905 -3.360838606 1.247219790
H 1.103297134 1.287278035 -2.668783502
H -1.437313521 -2.470308118 -3.230378018
H 0.024536714 -4.013048363 1.012955299
H -3.263043805 3.551128301 2.805037121

