17

C 4.921305975 -1.101499116 -1.064358703
O 2.606983108 -1.909835551 0.000228562
C 0.734366507 -0.232874390 -0.201491141
C 0.435631005 2.099637621 -1.125285987
H 1.658467432 3.463768001 -2.027928297
C -2.341829135 2.144625178 -0.418067134
H -3.667750122 2.219908427 -2.000085110
H -2.897990916 3.546361807 0.991836514
C -1.950231300 -0.583113735 0.653102312
C -3.447271202 -2.694447494 -0.582003672
H -5.448745072 -2.562325573 -0.094331878
H -3.279245901 -2.601395188 -2.638365960
H -2.764859464 -4.543287920 0.028499545
H -2.139717502 -0.661209558 2.709977547
H 5.593879458 0.617612367 -0.132817964
H 4.697131091 -0.732467786 -3.086994104
H 6.276499878 -2.619847022 -0.779087858

