19

C 4.727958873 -0.910211891 -0.577981371
O 2.280956389 -1.724203237 0.156148882
C 0.634496673 0.108764737 0.539981624
C 0.226427910 2.540383868 -0.580534486
C -2.624782079 2.300744939 -0.327056903
C -2.173076176 -0.328837063 0.929903329
C -3.154139701 -2.589013211 -0.535597819
H 5.550387412 0.205596873 0.959478941
H 4.634129890 0.215038550 -2.305871294
H 5.844477608 -2.604106548 -0.894118700
H 1.723708412 0.891190910 3.500987688
H 1.086902871 2.325021495 1.921111131
H 1.453006146 3.726034397 -1.699724311
H -3.681884820 2.168407532 -2.098669117
H -3.556729960 3.688072312 0.885197983
H -2.711271650 -0.442423398 2.912165109
H -5.214593322 -2.628977725 -0.460619949
H -2.585629373 -2.493179927 -2.517455216
H -2.439098913 -4.354936876 0.251054632

