12

O 1.028810630 4.360754568 2.713332661
C 0.754644157 2.133658001 2.405406438
N 2.747253378 -0.477549250 -1.882740563
C 0.696504843 -1.678498680 -2.034388080
C -1.653323654 -0.735880442 -0.792173456
O -2.087486682 -1.543199978 1.721929537
C -1.634532690 1.071513622 1.307834834
H 4.169361292 -1.382736265 -2.808165430
H 2.182264043 0.728182813 2.982465812
H 0.488739527 -3.461239188 -3.066379478
H -3.332666853 -0.785377566 -1.980795825
H -3.267092392 2.299665773 1.526627287

