15

C -2.649484239 1.843243246 0.412441986
C -1.513866080 -2.754604847 -0.887945437
N -1.497160315 0.099852939 -1.387693130
C 0.874866548 -1.279776956 -0.884057590
C 2.253150977 -0.715215304 1.535819444
O 3.463142483 1.678801339 1.546414761
H -4.543162197 2.308284342 -0.250687723
H -2.815397053 0.880180099 2.216432049
H -1.511638962 3.551387704 0.603944829
H -1.793604430 -3.651759184 -2.729919732
H -1.599357082 0.728373260 -3.188579979
H 2.120826080 -1.196822382 -2.534361405
H 3.608142378 -2.248494598 1.863301517
H 0.942202290 -0.729098971 3.120673578
H 4.847674195 1.639960550 0.379363805

