11

C -3.556214064 0.129596246 0.249191173
C -0.787140227 0.009115736 0.064939928
C 1.215883917 1.420003988 -0.560117412
C 2.733681856 -0.843464667 0.052376141
N 4.885176982 -1.769529168 0.171673908
O 0.498490892 -2.206832807 0.683038975
H -4.141399846 -0.259053181 2.189368828
H -4.246507320 1.980988558 -0.319111531
H -4.396866441 -1.317934324 -0.957192675
H 1.575214999 3.311208880 -1.205964990
H 6.212866772 -0.489618552 -0.355945562

