11

C -3.242612105 0.049408382 0.254315411
C -0.456622328 -0.229043801 0.119603431
C 1.445622816 1.326351221 -0.593733089
C 3.636456390 -0.172858237 -0.242474142
N 3.090304394 -2.412880947 0.603014781
O 0.501736705 -2.456494863 0.834590381
H -3.905557018 -0.222177670 2.187613537
H -3.797794725 1.925948527 -0.377788264
H -4.171430165 -1.353556758 -0.937108609
H 1.308747856 3.240188078 -1.268059614
H 5.591148218 0.305116049 -0.579973823

