11

C -3.346082604 0.187831067 0.223197272
C -0.620127290 -0.647649394 0.292167797
C 1.296141323 1.119006427 -0.527155921
C 3.530027487 -0.122084226 -0.264564662
N 4.568539990 -2.088967244 0.373389454
O -0.056822213 -2.771584754 1.026194550
H -4.126796742 0.051990825 2.125159279
H -3.565034833 2.111038735 -0.474063404
H -4.404365101 -1.106016336 -0.981352162
H 1.024001637 3.012294610 -1.204533126
H 5.700516420 0.254138382 -0.588439078

