16

C -3.261876578 0.798673056 2.289127772
C -2.848931093 -0.541321535 -0.217828163
N -1.250693560 0.917701840 -1.965163160
C 1.197365149 1.168015888 -2.093428831
C 2.668971662 -0.249902561 -0.134855581
C 5.194241803 -1.055387134 -1.190395915
O 6.100528034 -3.108286706 -0.868994054
H -1.477852851 1.080802722 3.282142927
H -4.135728854 2.645318413 2.007950301
H -4.496043236 -0.321456398 3.503090178
H -4.651111668 -0.853592560 -1.170632554
H -2.238009509 1.908945886 -3.262322686
H -1.999638208 -2.395483675 0.071993482
H 1.793010490 -1.864140423 0.821267755
H 3.111350425 1.183293511 1.307282997
H 6.172829220 0.414028260 -2.313184761

