16

C -2.595956707 -0.447864638 2.086903229
C -2.320000719 0.010010465 -0.708286132
N -1.426727539 2.531007085 -1.470372030
C 0.588516651 0.981585411 -2.386268652
C 2.695423160 0.836743705 -0.456359467
C 3.667097505 -1.768981072 0.126953880
O 2.465484687 -3.676613486 -0.145471684
H -0.882634646 0.034647392 3.117569287
H -4.120064744 0.725145759 2.829354097
H -3.033351885 -2.428361981 2.452367323
H -3.949899574 -0.558192726 -1.826547799
H -2.480708585 3.110415880 -2.958279982
H -0.850131696 -1.384148911 -1.646165371
H 2.312656299 1.774780717 1.361662549
H 4.246985138 1.913586222 -1.306358372
H 5.599890677 -1.850245985 0.929830178

