16

C 2.876157908 -1.184259596 0.118087606
C 0.105641719 -0.361841111 0.054915309
C -0.873052279 -0.020789350 -2.601922856
C -1.600054750 2.367738036 -3.252528670
C -1.560637312 -2.118721001 1.634853395
C -1.072635912 3.647596363 -0.906137188
N -0.146065625 2.240593180 0.926187579
H 3.594374627 -1.255893822 2.053146503
H 3.053439787 -3.070941542 -0.692123815
H 4.041796615 0.104081844 -0.988816883
H -0.938210811 -1.676593798 -3.820988240
H -3.520147507 -1.482495417 1.607366195
H -0.906765900 -2.214012274 3.591613945
H -1.490572919 -4.023611970 0.851418071
H -1.367808713 5.644069866 -0.512113814
H 0.318958539 2.839493121 2.671097547

