10

C 2.222687666 1.100187249 -2.513466382
C 2.236868492 2.151821671 0.051939954
O 0.287613614 3.368266553 0.865471473
C -1.820836196 3.827696938 -0.333031065
H -2.094138310 3.164370830 -2.239415106
H -3.182626321 4.891633533 0.735920901
H 3.752463766 2.015774769 1.405704922
H 1.914183603 2.591692994 -3.933743172
H 0.658212037 -0.251559265 -2.764442081
H 3.995294310 0.145039617 -2.928174113

