14

C -3.684212169 -0.349593569 -0.766874974
C -1.076822751 -0.537472465 0.389165833
O 0.553283104 -2.085670995 -1.039456970
C 0.458839544 1.940822278 0.306661675
C 2.867774705 0.569757774 0.048620480
C 4.852337888 -0.662484670 0.410571025
H -3.545390469 0.276645832 -2.727775649
H -4.583245007 -2.204504192 -0.750893145
H -4.882221242 0.967444401 0.281434871
H -1.232761250 -1.191273787 2.360459321
H 3.078512692 -2.265593596 -0.162711977
H 0.023132213 3.003016168 -1.406775471
H 0.427033242 3.185718329 1.952075559
H 6.756026462 -0.609156788 1.097437868

