23

C     3.80339   1.09571  -0.07504
O     2.43259   1.42858   0.15411
C     1.76968   0.63412   1.01367
O     2.32745  -0.18716   1.73353
N     0.40891   0.87209   0.94068
N    -0.27317   0.09502   1.83130
C    -1.62284  -0.07046   1.25817
C    -1.65520  -0.54076  -0.03311
C    -3.07751  -0.11023  -0.64381
O    -3.96356  -0.99301  -0.67872
O    -3.20511   1.10563  -0.92289
C    -0.51254  -0.03910  -0.86096
C     0.69608  -0.88353  -1.17916
O     1.49238  -0.45072  -2.06114
O     0.86252  -1.92548  -0.47850
H     3.88399   0.06912  -0.46262
H     4.39905   1.18682   0.84584
H     4.16301   1.80628  -0.82561
H     0.21022  -0.78056   2.05182
H    -2.15219  -0.71014   2.09339
H    -2.07661   0.97841   1.35094
H    -1.61882  -1.69687  -0.09747
H    -0.64979   0.85694  -1.48767
23

C     3.80310   1.09553  -0.07480
O     2.43271   1.42881   0.15541
C     1.76986   0.63515   1.01650
O     2.32805  -0.18876   1.73368
N     0.41174   0.87788   0.94782
N    -0.27231   0.09533   1.82793
C    -1.61860  -0.06069   1.28862
C    -1.65769  -0.55058  -0.06390
C    -3.07785  -0.11144  -0.64672
O    -3.96686  -0.99225  -0.67750
O    -3.20599   1.10600  -0.92118
C    -0.51760  -0.04523  -0.87215
C     0.69640  -0.88400  -1.17981
O     1.49365  -0.45073  -2.06070
O     0.86352  -1.92501  -0.47814
H     3.88379   0.06913  -0.46276
H     4.39918   1.18656   0.84580
H     4.16290   1.80630  -0.82550
H     0.21143  -0.77795   2.05686
H    -2.15034  -0.71028   2.09862
H    -2.07623   0.97800   1.34938
H    -1.61942  -1.69785  -0.09846
H    -0.64968   0.85664  -1.48854
23

C     3.80282   1.09536  -0.07457
O     2.43284   1.42903   0.15671
C     1.77004   0.63617   1.01933
O     2.32865  -0.19037   1.73383
N     0.41457   0.88367   0.95496
N    -0.27145   0.09564   1.82457
C    -1.61435  -0.05091   1.31907
C    -1.66018  -0.56041  -0.09469
C    -3.07818  -0.11264  -0.64962
O    -3.97015  -0.99148  -0.67627
O    -3.20686   1.10637  -0.91947
C    -0.52267  -0.05135  -0.88335
C     0.69671  -0.88447  -1.18045
O     1.49491  -0.45074  -2.06025
O     0.86452  -1.92453  -0.47778
H     3.88359   0.06914  -0.46291
H     4.39931   1.18631   0.84576
H     4.16279   1.80633  -0.82539
H     0.21264  -0.77534   2.06189
H    -2.14849  -0.71042   2.10386
H    -2.07585   0.97759   1.34781
H    -1.62001  -1.69884  -0.09944
H    -0.64958   0.85633  -1.48940
23

C     3.80254   1.09518  -0.07434
O     2.43296   1.42925   0.15801
C     1.77022   0.63720   1.02216
O     2.32924  -0.19197   1.73397
N     0.41740   0.88945   0.96210
N    -0.27059   0.09595   1.82120
C    -1.61010  -0.04114   1.34953
C    -1.66268  -0.57023  -0.12549
C    -3.07851  -0.11385  -0.65253
O    -3.97344  -0.99071  -0.67505
O    -3.20773   1.10674  -0.91777
C    -0.52773  -0.05748  -0.89454
C     0.69703  -0.88494  -1.18109
O     1.49618  -0.45075  -2.05981
O     0.86551  -1.92405  -0.47742
H     3.88339   0.06915  -0.46305
H     4.39944   1.18605   0.84572
H     4.16267   1.80635  -0.82527
H     0.21385  -0.77273   2.06692
H    -2.14663  -0.71056   2.10909
H    -2.07547   0.97718   1.34625
H    -1.62061  -1.69982  -0.10042
H    -0.64948   0.85603  -1.49027
23

C     3.80225   1.09501  -0.07411
O     2.43308   1.42948   0.15931
C     1.77040   0.63823   1.02499
O     2.32984  -0.19357   1.73412
N     0.42023   0.89524   0.96924
N    -0.26973   0.09625   1.81784
C    -1.60585  -0.03137   1.37998
C    -1.66517  -0.58006  -0.15628
C    -3.07885  -0.11505  -0.65544
O    -3.97674  -0.98994  -0.67382
O    -3.20860   1.10711  -0.91606
C    -0.53280  -0.06361  -0.90574
C     0.69735  -0.88541  -1.18173
O     1.49745  -0.45076  -2.05936
O     0.86651  -1.92357  -0.47705
H     3.88320   0.06916  -0.46319
H     4.39957   1.18580   0.84568
H     4.16256   1.80638  -0.82516
H     0.21506  -0.77012   2.07196
H    -2.14478  -0.71070   2.11433
H    -2.07508   0.97677   1.34469
H    -1.62120  -1.70080  -0.10141
H    -0.64937   0.85572  -1.49113
23

C     3.80197   1.09483  -0.07388
O     2.43320   1.42970   0.16061
C     1.77059   0.63925   1.02782
O     2.33044  -0.19517   1.73427
N     0.42306   0.90103   0.97638
N    -0.26886   0.09656   1.81447
C    -1.60160  -0.02160   1.41043
C    -1.66766  -0.58988  -0.18707
C    -3.07918  -0.11626  -0.65835
O    -3.98003  -0.98918  -0.67260
O    -3.20947   1.10748  -0.91435
C    -0.53786  -0.06973  -0.91693
C     0.69767  -0.88588  -1.18238
O     1.49872  -0.45077  -2.05892
O     0.86751  -1.92309  -0.47669
H     3.88300   0.06917  -0.46334
H     4.39970   1.18554   0.84563
H     4.16245   1.80640  -0.82505
H     0.21627  -0.76750   2.07699
H    -2.14293  -0.71084   2.11956
H    -2.07470   0.97636   1.34313
H    -1.62180  -1.70179  -0.10239
H    -0.64927   0.85542  -1.49199
23

C     3.80168   1.09466  -0.07364
O     2.43333   1.42992   0.16191
C     1.77077   0.64028   1.03065
O     2.33103  -0.19677   1.73442
N     0.42589   0.90681   0.98352
N    -0.26800   0.09687   1.81111
C    -1.59735  -0.01183   1.44088
C    -1.67016  -0.59971  -0.21787
C    -3.07952  -0.11746  -0.66126
O    -3.98333  -0.98841  -0.67137
O    -3.21034   1.10785  -0.91265
C    -0.54293  -0.07586  -0.92813
C     0.69799  -0.88635  -1.18302
O     1.49999  -0.45078  -2.05848
O     0.86850  -1.92261  -0.47633
H     3.88280   0.06918  -0.46348
H     4.39983   1.18528   0.84559
H     4.16234   1.80643  -0.82493
H     0.21748  -0.76489   2.08202
H    -2.14107  -0.71098   2.12480
H    -2.07432   0.97595   1.34157
H    -1.62239  -1.70277  -0.10337
H    -0.64917   0.85511  -1.49286
23

C     3.80140   1.09448  -0.07341
O     2.43345   1.43014   0.16320
C     1.77095   0.64131   1.03348
O     2.33163  -0.19837   1.73457
N     0.42872   0.91260   0.99066
N    -0.26714   0.09718   1.80774
C    -1.59310  -0.00206   1.47133
C    -1.67265  -0.60953  -0.24866
C    -3.07985  -0.11867  -0.66417
O    -3.98662  -0.98764  -0.67015
O    -3.21122   1.10822  -0.91094
C    -0.54799  -0.08199  -0.93932
C     0.69831  -0.88682  -1.18366
O     1.50126  -0.45079  -2.05803
O     0.86950  -1.92213  -0.47597
H     3.88260   0.06919  -0.46362
H     4.39996   1.18503   0.84555
H     4.16223   1.80645  -0.82482
H     0.21869  -0.76228   2.08705
H    -2.13922  -0.71112   2.13003
H    -2.07394   0.97554   1.34000
H    -1.62298  -1.70375  -0.10435
H    -0.64906   0.85481  -1.49372
23

C     3.80111   1.09431  -0.07318
O     2.43357   1.43037   0.16450
C     1.77113   0.64233   1.03632
O     2.33222  -0.19997   1.73472
N     0.43154   0.91839   0.99780
N    -0.26628   0.09749   1.80438
C    -1.58885   0.00771   1.50178
C    -1.67514  -0.61935  -0.27945
C    -3.08018  -0.11987  -0.66708
O    -3.98991  -0.98687  -0.66893
O    -3.21209   1.10859  -0.90923
C    -0.55306  -0.08811  -0.95051
C     0.69863  -0.88729  -1.18431
O     1.50253  -0.45080  -2.05759
O     0.87050  -1.92165  -0.47561
H     3.88240   0.06920  -0.46377
H     4.40009   1.18477   0.84551
H     4.16212   1.80648  -0.82471
H     0.21990  -0.75967   2.09209
H    -2.13736  -0.71126   2.13527
H    -2.07355   0.97513   1.33844
H    -1.62358  -1.70474  -0.10534
H    -0.64896   0.85450  -1.49458
23

C     3.80083   1.09414  -0.07295
O     2.43369   1.43059   0.16580
C     1.77131   0.64336   1.03915
O     2.33282  -0.20158   1.73487
N     0.43437   0.92417   1.00494
N    -0.26542   0.09780   1.80101
C    -1.58460   0.01748   1.53223
C    -1.67764  -0.62918  -0.31025
C    -3.08052  -0.12107  -0.66999
O    -3.99321  -0.98610  -0.66770
O    -3.21296   1.10896  -0.90753
C    -0.55812  -0.09424  -0.96171
C     0.69894  -0.88777  -1.18495
O     1.50380  -0.45081  -2.05714
O     0.87149  -1.92118  -0.47525
H     3.88221   0.06921  -0.46391
H     4.40022   1.18452   0.84547
H     4.16201   1.80650  -0.82460
H     0.22111  -0.75706   2.09712
H    -2.13551  -0.71140   2.14050
H    -2.07317   0.97472   1.33688
H    -1.62417  -1.70572  -0.10632
H    -0.64886   0.85420  -1.49545
23

C     3.80054   1.09396  -0.07272
O     2.43382   1.43081   0.16710
C     1.77150   0.64439   1.04198
O     2.33342  -0.20318   1.73502
N     0.43720   0.92996   1.01208
N    -0.26455   0.09811   1.79765
C    -1.58035   0.02725   1.56268
C    -1.68013  -0.63900  -0.34104
C    -3.08085  -0.12228  -0.67290
O    -3.99650  -0.98534  -0.66648
O    -3.21383   1.10933  -0.90582
C    -0.56319  -0.10037  -0.97290
C     0.69926  -0.88824  -1.18559
O     1.50507  -0.45082  -2.05670
O     0.87249  -1.92070  -0.47488
H     3.88201   0.06922  -0.46405
H     4.40035   1.18426   0.84543
H     4.16190   1.80653  -0.82448
H     0.22232  -0.75445   2.10215
H    -2.13366  -0.71154   2.14574
H    -2.07279   0.97431   1.33532
H    -1.62477  -1.70671  -0.10730
H    -0.64875   0.85389  -1.49631
23

C     3.80026   1.09379  -0.07248
O     2.43394   1.43104   0.16840
C     1.77168   0.64541   1.04481
O     2.33401  -0.20478   1.73516
N     0.44003   0.93575   1.01922
N    -0.26369   0.09842   1.79428
C    -1.57610   0.03702   1.59313
C    -1.68262  -0.64883  -0.37183
C    -3.08119  -0.12348  -0.67581
O    -3.99979  -0.98457  -0.66525
O    -3.21470   1.10970  -0.90411
C    -0.56826  -0.10649  -0.98410
C     0.69958  -0.88871  -1.18624
O     1.50634  -0.45083  -2.05625
O     0.87349  -1.92022  -0.47452
H     3.88181   0.06923  -0.46420
H     4.40048   1.18400   0.84539
H     4.16179   1.80655  -0.82437
H     0.22353  -0.75184   2.10718
H    -2.13180  -0.71168   2.15097
H    -2.07241   0.97390   1.33375
H    -1.62536  -1.70769  -0.10829
H    -0.64865   0.85359  -1.49718
23

C     3.79998   1.09361  -0.07225
O     2.43406   1.43126   0.16970
C     1.77186   0.64644   1.04764
O     2.33461  -0.20638   1.73531
N     0.44286   0.94153   1.02636
N    -0.26283   0.09873   1.79092
C    -1.57185   0.04679   1.62358
C    -1.68512  -0.65865  -0.40263
C    -3.08152  -0.12469  -0.67871
O    -4.00309  -0.98380  -0.66403
O    -3.21558   1.11007  -0.90240
C    -0.57332  -0.11262  -0.99529
C     0.69990  -0.88918  -1.18688
O     1.50761  -0.45084  -2.05581
O     0.87448  -1.91974  -0.47416
H     3.88161   0.06924  -0.46434
H     4.40061   1.18375   0.84535
H     4.16168   1.80658  -0.82426
H     0.22474  -0.74923   2.11222
H    -2.12995  -0.71182   2.15621
H    -2.07202   0.97349   1.33219
H    -1.62596  -1.70867  -0.10927
H    -0.64855   0.85329  -1.49804
23

C     3.79969   1.09344  -0.07202
O     2.43418   1.43148   0.17100
C     1.77204   0.64747   1.05047
O     2.33521  -0.20798   1.73546
N     0.44569   0.94732   1.03350
N    -0.26197   0.09903   1.78756
C    -1.56760   0.05656   1.65403
C    -1.68761  -0.66848  -0.43342
C    -3.08186  -0.12589  -0.68162
O    -4.00638  -0.98303  -0.66280
O    -3.21645   1.11044  -0.90070
C    -0.57839  -0.11875  -1.00649
C     0.70022  -0.88965  -1.18752
O     1.50888  -0.45085  -2.05536
O     0.87548  -1.91926  -0.47380
H     3.88142   0.06925  -0.46448
H     4.40074   1.18349   0.84530
H     4.16157   1.80661  -0.82414
H     0.22595  -0.74661   2.11725
H    -2.12810  -0.71196   2.16144
H    -2.07164   0.97308   1.33063
H    -1.62655  -1.70966  -0.11025
H    -0.64844   0.85298  -1.49890
23

C     3.79941   1.09326  -0.07179
O     2.43431   1.43170   0.17230
C     1.77222   0.64849   1.05330
O     2.33580  -0.20958   1.73561
N     0.44852   0.95311   1.04064
N    -0.26111   0.09934   1.78419
C    -1.56335   0.06633   1.68448
C    -1.69010  -0.67830  -0.46421
C    -3.08219  -0.12710  -0.68453
O    -4.00968  -0.98227  -0.66158
O    -3.21732   1.11081  -0.89899
C    -0.58345  -0.12487  -1.01768
C     0.70054  -0.89012  -1.18816
O     1.51015  -0.45086  -2.05492
O     0.87647  -1.91878  -0.47344
H     3.88122   0.06926  -0.46463
H     4.40087   1.18324   0.84526
H     4.16146   1.80663  -0.82403
H     0.22716  -0.74400   2.12228
H    -2.12624  -0.71210   2.16668
H    -2.07126   0.97267   1.32907
H    -1.62714  -1.71064  -0.11124
H    -0.64834   0.85268  -1.49977
23

C     3.79912   1.09309  -0.07155
O     2.43443   1.43193   0.17360
C     1.77241   0.64952   1.05613
O     2.33640  -0.21118   1.73576
N     0.45135   0.95889   1.04778
N    -0.26024   0.09965   1.78083
C    -1.55910   0.07610   1.71493
C    -1.69260  -0.68813  -0.49501
C    -3.08252  -0.12830  -0.68744
O    -4.01297  -0.98150  -0.66035
O    -3.21819   1.11118  -0.89728
C    -0.58852  -0.13100  -1.02888
C     0.70085  -0.89059  -1.18881
O     1.51142  -0.45087  -2.05447
O     0.87747  -1.91830  -0.47308
H     3.88102   0.06927  -0.46477
H     4.40100   1.18298   0.84522
H     4.16134   1.80666  -0.82392
H     0.22838  -0.74139   2.12732
H    -2.12439  -0.71224   2.17191
H    -2.07088   0.97226   1.32751
H    -1.62774  -1.71162  -0.11222
H    -0.64824   0.85237  -1.50063
23

C     3.79884   1.09291  -0.07132
O     2.43455   1.43215   0.17489
C     1.77259   0.65055   1.05896
O     2.33700  -0.21279   1.73591
N     0.45417   0.96468   1.05492
N    -0.25938   0.09996   1.77746
C    -1.55485   0.08587   1.74538
C    -1.69509  -0.69795  -0.52580
C    -3.08286  -0.12950  -0.69035
O    -4.01626  -0.98073  -0.65913
O    -3.21906   1.11154  -0.89558
C    -0.59358  -0.13713  -1.04007
C     0.70117  -0.89106  -1.18945
O     1.51269  -0.45088  -2.05403
O     0.87847  -1.91782  -0.47271
H     3.88082   0.06928  -0.46491
H     4.40113   1.18272   0.84518
H     4.16123   1.80668  -0.82380
H     0.22959  -0.73878   2.13235
H    -2.12254  -0.71238   2.17715
H    -2.07050   0.97185   1.32594
H    -1.62833  -1.71261  -0.11320
H    -0.64813   0.85207  -1.50149
23

C     3.79855   1.09274  -0.07109
O     2.43467   1.43237   0.17619
C     1.77277   0.65157   1.06179
O     2.33759  -0.21439   1.73606
N     0.45700   0.97047   1.06206
N    -0.25852   0.10027   1.77410
C    -1.55060   0.09564   1.77583
C    -1.69758  -0.70777  -0.55659
C    -3.08319  -0.13071  -0.69326
O    -4.01956  -0.97996  -0.65791
O    -3.21993   1.11191  -0.89387
C    -0.59865  -0.14326  -1.05126
C     0.70149  -0.89153  -1.19009
O     1.51396  -0.45089  -2.05359
O     0.87946  -1.91734  -0.47235
H     3.88062   0.06929  -0.46506
H     4.40126   1.18247   0.84514
H     4.16112   1.80671  -0.82369
H     0.23080  -0.73617   2.13738
H    -2.12068  -0.71252   2.18238
H    -2.07011   0.97144   1.32438
H    -1.62893  -1.71359  -0.11419
H    -0.64803   0.85176  -1.50236
23

C     3.79827   1.09256  -0.07086
O     2.43480   1.43260   0.17749
C     1.77295   0.65260   1.06462
O     2.33819  -0.21599   1.73621
N     0.45983   0.97625   1.06920
N    -0.25766   0.10058   1.77073
C    -1.54635   0.10541   1.80628
C    -1.70008  -0.71760  -0.58739
C    -3.08353  -0.13191  -0.69617
O    -4.02285  -0.97920  -0.65668
O    -3.22081   1.11228  -0.89216
C    -0.60371  -0.14938  -1.06246
C     0.70181  -0.89200  -1.19074
O     1.51523  -0.45090  -2.05314
O     0.88046  -1.91687  -0.47199
H     3.88043   0.06930  -0.46520
H     4.40139   1.18221   0.84510
H     4.16101   1.80673  -0.82358
H     0.23201  -0.73356   2.14241
H    -2.11883  -0.71266   2.18761
H    -2.06973   0.97102   1.32282
H    -1.62952  -1.71457  -0.11517
H    -0.64793   0.85146  -1.50322
23

C     3.79799   1.09239  -0.07063
O     2.43492   1.43282   0.17879
C     1.77313   0.65363   1.06745
O     2.33879  -0.21759   1.73635
N     0.46266   0.98204   1.07634
N    -0.25680   0.10089   1.76737
C    -1.54210   0.11518   1.83673
C    -1.70257  -0.72742  -0.61818
C    -3.08386  -0.13312  -0.69908
O    -4.02614  -0.97843  -0.65546
O    -3.22168   1.11265  -0.89046
C    -0.60878  -0.15551  -1.07365
C     0.70213  -0.89247  -1.19138
O     1.51650  -0.45092  -2.05270
O     0.88146  -1.91639  -0.47163
H     3.88023   0.06931  -0.46534
H     4.40152   1.18195   0.84506
H     4.16090   1.80676  -0.82346
H     0.23322  -0.73095   2.14745
H    -2.11698  -0.71280   2.19285
H    -2.06935   0.97061   1.32126
H    -1.63011  -1.71556  -0.11615
H    -0.64783   0.85115  -1.50408
23

C     3.79770   1.09222  -0.07039
O     2.43504   1.43304   0.18009
C     1.77331   0.65465   1.07028
O     2.33938  -0.21919   1.73650
N     0.46549   0.98783   1.08348
N    -0.25593   0.10120   1.76400
C    -1.53785   0.12495   1.86718
C    -1.70506  -0.73725  -0.64897
C    -3.08419  -0.13432  -0.70199
O    -4.02944  -0.97766  -0.65423
O    -3.22255   1.11302  -0.88875
C    -0.61384  -0.16164  -1.08485
C     0.70245  -0.89295  -1.19202
O     1.51777  -0.45093  -2.05225
O     0.88245  -1.91591  -0.47127
H     3.88003   0.06932  -0.46549
H     4.40165   1.18170   0.84501
H     4.16079   1.80678  -0.82335
H     0.23443  -0.72834   2.15248
H    -2.11512  -0.71294   2.19808
H    -2.06897   0.97020   1.31969
H    -1.63071  -1.71654  -0.11714
H    -0.64772   0.85085  -1.50495
23

C     3.79799   1.09239  -0.07063
O     2.43492   1.43282   0.17879
C     1.77313   0.65363   1.06745
O     2.33879  -0.21759   1.73635
N     0.46266   0.98204   1.07634
N    -0.25680   0.10089   1.76737
C    -1.54210   0.11518   1.83673
C    -1.70257  -0.72742  -0.61818
C    -3.08386  -0.13312  -0.69908
O    -4.02614  -0.97843  -0.65546
O    -3.22168   1.11265  -0.89046
C    -0.60878  -0.15551  -1.07365
C     0.70213  -0.89247  -1.19138
O     1.51650  -0.45092  -2.05270
O     0.88146  -1.91639  -0.47163
H     3.88023   0.06931  -0.46534
H     4.40152   1.18195   0.84506
H     4.16090   1.80676  -0.82346
H     0.23322  -0.73095   2.14745
H    -2.11698  -0.71280   2.19285
H    -2.06935   0.97061   1.32126
H    -1.63011  -1.71556  -0.11615
H    -0.64783   0.85115  -1.50408
23

C     3.79827   1.09256  -0.07086
O     2.43480   1.43260   0.17749
C     1.77295   0.65260   1.06462
O     2.33819  -0.21599   1.73621
N     0.45983   0.97625   1.06920
N    -0.25766   0.10058   1.77073
C    -1.54635   0.10541   1.80628
C    -1.70008  -0.71760  -0.58739
C    -3.08353  -0.13191  -0.69617
O    -4.02285  -0.97920  -0.65668
O    -3.22081   1.11228  -0.89216
C    -0.60371  -0.14938  -1.06246
C     0.70181  -0.89200  -1.19074
O     1.51523  -0.45090  -2.05314
O     0.88046  -1.91687  -0.47199
H     3.88043   0.06930  -0.46520
H     4.40139   1.18221   0.84510
H     4.16101   1.80673  -0.82358
H     0.23201  -0.73356   2.14241
H    -2.11883  -0.71266   2.18761
H    -2.06973   0.97102   1.32282
H    -1.62952  -1.71457  -0.11517
H    -0.64793   0.85146  -1.50322
23

C     3.79855   1.09274  -0.07109
O     2.43467   1.43237   0.17619
C     1.77277   0.65157   1.06179
O     2.33759  -0.21439   1.73606
N     0.45700   0.97047   1.06206
N    -0.25852   0.10027   1.77410
C    -1.55060   0.09564   1.77583
C    -1.69758  -0.70777  -0.55659
C    -3.08319  -0.13071  -0.69326
O    -4.01956  -0.97996  -0.65791
O    -3.21993   1.11191  -0.89387
C    -0.59865  -0.14326  -1.05126
C     0.70149  -0.89153  -1.19009
O     1.51396  -0.45089  -2.05359
O     0.87946  -1.91734  -0.47235
H     3.88062   0.06929  -0.46506
H     4.40126   1.18247   0.84514
H     4.16112   1.80671  -0.82369
H     0.23080  -0.73617   2.13738
H    -2.12068  -0.71252   2.18238
H    -2.07011   0.97144   1.32438
H    -1.62893  -1.71359  -0.11419
H    -0.64803   0.85176  -1.50236
23

C     3.79884   1.09291  -0.07132
O     2.43455   1.43215   0.17489
C     1.77259   0.65055   1.05896
O     2.33700  -0.21279   1.73591
N     0.45417   0.96468   1.05492
N    -0.25938   0.09996   1.77746
C    -1.55485   0.08587   1.74538
C    -1.69509  -0.69795  -0.52580
C    -3.08286  -0.12950  -0.69035
O    -4.01626  -0.98073  -0.65913
O    -3.21906   1.11154  -0.89558
C    -0.59358  -0.13713  -1.04007
C     0.70117  -0.89106  -1.18945
O     1.51269  -0.45088  -2.05403
O     0.87847  -1.91782  -0.47271
H     3.88082   0.06928  -0.46491
H     4.40113   1.18272   0.84518
H     4.16123   1.80668  -0.82380
H     0.22959  -0.73878   2.13235
H    -2.12254  -0.71238   2.17715
H    -2.07050   0.97185   1.32594
H    -1.62833  -1.71261  -0.11320
H    -0.64813   0.85207  -1.50149
23

C     3.79912   1.09309  -0.07155
O     2.43443   1.43193   0.17360
C     1.77241   0.64952   1.05613
O     2.33640  -0.21118   1.73576
N     0.45135   0.95889   1.04778
N    -0.26024   0.09965   1.78083
C    -1.55910   0.07610   1.71493
C    -1.69260  -0.68813  -0.49501
C    -3.08252  -0.12830  -0.68744
O    -4.01297  -0.98150  -0.66035
O    -3.21819   1.11118  -0.89728
C    -0.58852  -0.13100  -1.02888
C     0.70085  -0.89059  -1.18881
O     1.51142  -0.45087  -2.05447
O     0.87747  -1.91830  -0.47308
H     3.88102   0.06927  -0.46477
H     4.40100   1.18298   0.84522
H     4.16134   1.80666  -0.82392
H     0.22838  -0.74139   2.12732
H    -2.12439  -0.71224   2.17191
H    -2.07088   0.97226   1.32751
H    -1.62774  -1.71162  -0.11222
H    -0.64824   0.85237  -1.50063
23

C     3.79941   1.09326  -0.07179
O     2.43431   1.43170   0.17230
C     1.77222   0.64849   1.05330
O     2.33580  -0.20958   1.73561
N     0.44852   0.95311   1.04064
N    -0.26111   0.09934   1.78419
C    -1.56335   0.06633   1.68448
C    -1.69010  -0.67830  -0.46421
C    -3.08219  -0.12710  -0.68453
O    -4.00968  -0.98227  -0.66158
O    -3.21732   1.11081  -0.89899
C    -0.58345  -0.12487  -1.01768
C     0.70054  -0.89012  -1.18816
O     1.51015  -0.45086  -2.05492
O     0.87647  -1.91878  -0.47344
H     3.88122   0.06926  -0.46463
H     4.40087   1.18324   0.84526
H     4.16146   1.80663  -0.82403
H     0.22716  -0.74400   2.12228
H    -2.12624  -0.71210   2.16668
H    -2.07126   0.97267   1.32907
H    -1.62714  -1.71064  -0.11124
H    -0.64834   0.85268  -1.49977
23

C     3.79969   1.09344  -0.07202
O     2.43418   1.43148   0.17100
C     1.77204   0.64747   1.05047
O     2.33521  -0.20798   1.73546
N     0.44569   0.94732   1.03350
N    -0.26197   0.09903   1.78756
C    -1.56760   0.05656   1.65403
C    -1.68761  -0.66848  -0.43342
C    -3.08186  -0.12589  -0.68162
O    -4.00638  -0.98303  -0.66280
O    -3.21645   1.11044  -0.90070
C    -0.57839  -0.11875  -1.00649
C     0.70022  -0.88965  -1.18752
O     1.50888  -0.45085  -2.05536
O     0.87548  -1.91926  -0.47380
H     3.88142   0.06925  -0.46448
H     4.40074   1.18349   0.84530
H     4.16157   1.80661  -0.82414
H     0.22595  -0.74661   2.11725
H    -2.12810  -0.71196   2.16144
H    -2.07164   0.97308   1.33063
H    -1.62655  -1.70966  -0.11025
H    -0.64844   0.85298  -1.49890
23

C     3.79998   1.09361  -0.07225
O     2.43406   1.43126   0.16970
C     1.77186   0.64644   1.04764
O     2.33461  -0.20638   1.73531
N     0.44286   0.94153   1.02636
N    -0.26283   0.09873   1.79092
C    -1.57185   0.04679   1.62358
C    -1.68512  -0.65865  -0.40263
C    -3.08152  -0.12469  -0.67871
O    -4.00309  -0.98380  -0.66403
O    -3.21558   1.11007  -0.90240
C    -0.57332  -0.11262  -0.99529
C     0.69990  -0.88918  -1.18688
O     1.50761  -0.45084  -2.05581
O     0.87448  -1.91974  -0.47416
H     3.88161   0.06924  -0.46434
H     4.40061   1.18375   0.84535
H     4.16168   1.80658  -0.82426
H     0.22474  -0.74923   2.11222
H    -2.12995  -0.71182   2.15621
H    -2.07202   0.97349   1.33219
H    -1.62596  -1.70867  -0.10927
H    -0.64855   0.85329  -1.49804
23

C     3.80026   1.09379  -0.07248
O     2.43394   1.43104   0.16840
C     1.77168   0.64541   1.04481
O     2.33401  -0.20478   1.73516
N     0.44003   0.93575   1.01922
N    -0.26369   0.09842   1.79428
C    -1.57610   0.03702   1.59313
C    -1.68262  -0.64883  -0.37183
C    -3.08119  -0.12348  -0.67581
O    -3.99979  -0.98457  -0.66525
O    -3.21470   1.10970  -0.90411
C    -0.56826  -0.10649  -0.98410
C     0.69958  -0.88871  -1.18624
O     1.50634  -0.45083  -2.05625
O     0.87349  -1.92022  -0.47452
H     3.88181   0.06923  -0.46420
H     4.40048   1.18400   0.84539
H     4.16179   1.80655  -0.82437
H     0.22353  -0.75184   2.10718
H    -2.13180  -0.71168   2.15097
H    -2.07241   0.97390   1.33375
H    -1.62536  -1.70769  -0.10829
H    -0.64865   0.85359  -1.49718
23

C     3.80054   1.09396  -0.07272
O     2.43382   1.43081   0.16710
C     1.77150   0.64439   1.04198
O     2.33342  -0.20318   1.73502
N     0.43720   0.92996   1.01208
N    -0.26455   0.09811   1.79765
C    -1.58035   0.02725   1.56268
C    -1.68013  -0.63900  -0.34104
C    -3.08085  -0.12228  -0.67290
O    -3.99650  -0.98534  -0.66648
O    -3.21383   1.10933  -0.90582
C    -0.56319  -0.10037  -0.97290
C     0.69926  -0.88824  -1.18559
O     1.50507  -0.45082  -2.05670
O     0.87249  -1.92070  -0.47488
H     3.88201   0.06922  -0.46405
H     4.40035   1.18426   0.84543
H     4.16190   1.80653  -0.82448
H     0.22232  -0.75445   2.10215
H    -2.13366  -0.71154   2.14574
H    -2.07279   0.97431   1.33532
H    -1.62477  -1.70671  -0.10730
H    -0.64875   0.85389  -1.49631
23

C     3.80083   1.09414  -0.07295
O     2.43369   1.43059   0.16580
C     1.77131   0.64336   1.03915
O     2.33282  -0.20158   1.73487
N     0.43437   0.92417   1.00494
N    -0.26542   0.09780   1.80101
C    -1.58460   0.01748   1.53223
C    -1.67764  -0.62918  -0.31025
C    -3.08052  -0.12107  -0.66999
O    -3.99321  -0.98610  -0.66770
O    -3.21296   1.10896  -0.90753
C    -0.55812  -0.09424  -0.96171
C     0.69894  -0.88777  -1.18495
O     1.50380  -0.45081  -2.05714
O     0.87149  -1.92118  -0.47525
H     3.88221   0.06921  -0.46391
H     4.40022   1.18452   0.84547
H     4.16201   1.80650  -0.82460
H     0.22111  -0.75706   2.09712
H    -2.13551  -0.71140   2.14050
H    -2.07317   0.97472   1.33688
H    -1.62417  -1.70572  -0.10632
H    -0.64886   0.85420  -1.49545
23

C     3.80111   1.09431  -0.07318
O     2.43357   1.43037   0.16450
C     1.77113   0.64233   1.03632
O     2.33222  -0.19997   1.73472
N     0.43154   0.91839   0.99780
N    -0.26628   0.09749   1.80438
C    -1.58885   0.00771   1.50178
C    -1.67514  -0.61935  -0.27945
C    -3.08018  -0.11987  -0.66708
O    -3.98991  -0.98687  -0.66893
O    -3.21209   1.10859  -0.90923
C    -0.55306  -0.08811  -0.95051
C     0.69863  -0.88729  -1.18431
O     1.50253  -0.45080  -2.05759
O     0.87050  -1.92165  -0.47561
H     3.88240   0.06920  -0.46377
H     4.40009   1.18477   0.84551
H     4.16212   1.80648  -0.82471
H     0.21990  -0.75967   2.09209
H    -2.13736  -0.71126   2.13527
H    -2.07355   0.97513   1.33844
H    -1.62358  -1.70474  -0.10534
H    -0.64896   0.85450  -1.49458
23

C     3.80140   1.09448  -0.07341
O     2.43345   1.43014   0.16320
C     1.77095   0.64131   1.03348
O     2.33163  -0.19837   1.73457
N     0.42872   0.91260   0.99066
N    -0.26714   0.09718   1.80774
C    -1.59310  -0.00206   1.47133
C    -1.67265  -0.60953  -0.24866
C    -3.07985  -0.11867  -0.66417
O    -3.98662  -0.98764  -0.67015
O    -3.21122   1.10822  -0.91094
C    -0.54799  -0.08199  -0.93932
C     0.69831  -0.88682  -1.18366
O     1.50126  -0.45079  -2.05803
O     0.86950  -1.92213  -0.47597
H     3.88260   0.06919  -0.46362
H     4.39996   1.18503   0.84555
H     4.16223   1.80645  -0.82482
H     0.21869  -0.76228   2.08705
H    -2.13922  -0.71112   2.13003
H    -2.07394   0.97554   1.34000
H    -1.62298  -1.70375  -0.10435
H    -0.64906   0.85481  -1.49372
23

C     3.80168   1.09466  -0.07364
O     2.43333   1.42992   0.16191
C     1.77077   0.64028   1.03065
O     2.33103  -0.19677   1.73442
N     0.42589   0.90681   0.98352
N    -0.26800   0.09687   1.81111
C    -1.59735  -0.01183   1.44088
C    -1.67016  -0.59971  -0.21787
C    -3.07952  -0.11746  -0.66126
O    -3.98333  -0.98841  -0.67137
O    -3.21034   1.10785  -0.91265
C    -0.54293  -0.07586  -0.92813
C     0.69799  -0.88635  -1.18302
O     1.49999  -0.45078  -2.05848
O     0.86850  -1.92261  -0.47633
H     3.88280   0.06918  -0.46348
H     4.39983   1.18528   0.84559
H     4.16234   1.80643  -0.82493
H     0.21748  -0.76489   2.08202
H    -2.14107  -0.71098   2.12480
H    -2.07432   0.97595   1.34157
H    -1.62239  -1.70277  -0.10337
H    -0.64917   0.85511  -1.49286
23

C     3.80197   1.09483  -0.07388
O     2.43320   1.42970   0.16061
C     1.77059   0.63925   1.02782
O     2.33044  -0.19517   1.73427
N     0.42306   0.90103   0.97638
N    -0.26886   0.09656   1.81447
C    -1.60160  -0.02160   1.41043
C    -1.66766  -0.58988  -0.18707
C    -3.07918  -0.11626  -0.65835
O    -3.98003  -0.98918  -0.67260
O    -3.20947   1.10748  -0.91435
C    -0.53786  -0.06973  -0.91693
C     0.69767  -0.88588  -1.18238
O     1.49872  -0.45077  -2.05892
O     0.86751  -1.92309  -0.47669
H     3.88300   0.06917  -0.46334
H     4.39970   1.18554   0.84563
H     4.16245   1.80640  -0.82505
H     0.21627  -0.76750   2.07699
H    -2.14293  -0.71084   2.11956
H    -2.07470   0.97636   1.34313
H    -1.62180  -1.70179  -0.10239
H    -0.64927   0.85542  -1.49199
23

C     3.80225   1.09501  -0.07411
O     2.43308   1.42948   0.15931
C     1.77040   0.63823   1.02499
O     2.32984  -0.19357   1.73412
N     0.42023   0.89524   0.96924
N    -0.26973   0.09625   1.81784
C    -1.60585  -0.03137   1.37998
C    -1.66517  -0.58006  -0.15628
C    -3.07885  -0.11505  -0.65544
O    -3.97674  -0.98994  -0.67382
O    -3.20860   1.10711  -0.91606
C    -0.53280  -0.06361  -0.90574
C     0.69735  -0.88541  -1.18173
O     1.49745  -0.45076  -2.05936
O     0.86651  -1.92357  -0.47705
H     3.88320   0.06916  -0.46319
H     4.39957   1.18580   0.84568
H     4.16256   1.80638  -0.82516
H     0.21506  -0.77012   2.07196
H    -2.14478  -0.71070   2.11433
H    -2.07508   0.97677   1.34469
H    -1.62120  -1.70080  -0.10141
H    -0.64937   0.85572  -1.49113
23

C     3.80254   1.09518  -0.07434
O     2.43296   1.42925   0.15801
C     1.77022   0.63720   1.02216
O     2.32924  -0.19197   1.73397
N     0.41740   0.88945   0.96210
N    -0.27059   0.09595   1.82120
C    -1.61010  -0.04114   1.34953
C    -1.66268  -0.57023  -0.12549
C    -3.07851  -0.11385  -0.65253
O    -3.97344  -0.99071  -0.67505
O    -3.20773   1.10674  -0.91777
C    -0.52773  -0.05748  -0.89454
C     0.69703  -0.88494  -1.18109
O     1.49618  -0.45075  -2.05981
O     0.86551  -1.92405  -0.47742
H     3.88339   0.06915  -0.46305
H     4.39944   1.18605   0.84572
H     4.16267   1.80635  -0.82527
H     0.21385  -0.77273   2.06692
H    -2.14663  -0.71056   2.10909
H    -2.07547   0.97718   1.34625
H    -1.62061  -1.69982  -0.10042
H    -0.64948   0.85603  -1.49027
23

C     3.80282   1.09536  -0.07457
O     2.43284   1.42903   0.15671
C     1.77004   0.63617   1.01933
O     2.32865  -0.19037   1.73383
N     0.41457   0.88367   0.95496
N    -0.27145   0.09564   1.82457
C    -1.61435  -0.05091   1.31907
C    -1.66018  -0.56041  -0.09469
C    -3.07818  -0.11264  -0.64962
O    -3.97015  -0.99148  -0.67627
O    -3.20686   1.10637  -0.91947
C    -0.52267  -0.05135  -0.88335
C     0.69671  -0.88447  -1.18045
O     1.49491  -0.45074  -2.06025
O     0.86452  -1.92453  -0.47778
H     3.88359   0.06914  -0.46291
H     4.39931   1.18631   0.84576
H     4.16279   1.80633  -0.82539
H     0.21264  -0.77534   2.06189
H    -2.14849  -0.71042   2.10386
H    -2.07585   0.97759   1.34781
H    -1.62001  -1.69884  -0.09944
H    -0.64958   0.85633  -1.48940
23

C     3.80310   1.09553  -0.07480
O     2.43271   1.42881   0.15541
C     1.76986   0.63515   1.01650
O     2.32805  -0.18876   1.73368
N     0.41174   0.87788   0.94782
N    -0.27231   0.09533   1.82793
C    -1.61860  -0.06069   1.28862
C    -1.65769  -0.55058  -0.06390
C    -3.07785  -0.11144  -0.64672
O    -3.96686  -0.99225  -0.67750
O    -3.20599   1.10600  -0.92118
C    -0.51760  -0.04523  -0.87215
C     0.69640  -0.88400  -1.17981
O     1.49365  -0.45073  -2.06070
O     0.86352  -1.92501  -0.47814
H     3.88379   0.06913  -0.46276
H     4.39918   1.18656   0.84580
H     4.16290   1.80630  -0.82550
H     0.21143  -0.77795   2.05686
H    -2.15034  -0.71028   2.09862
H    -2.07623   0.97800   1.34938
H    -1.61942  -1.69785  -0.09846
H    -0.64968   0.85664  -1.48854
