17

C 5.022227290 0.182909464 -1.482526201
C 2.711871695 0.507038501 -2.387192143
C 0.550157063 1.642911565 -0.955916051
C -1.536879543 -0.279498487 -0.454958500
C -3.716506001 0.573319190 1.345201334
C -2.871835783 -1.573138644 3.028069665
C -1.004039798 -2.294223116 1.506084528
H 6.501159723 -0.686250130 -2.599665276
H 5.518013285 0.778593695 0.416354343
H 2.292075197 -0.128369927 -4.298233754
H -0.242802897 3.224009717 -2.032586094
H 1.225473880 2.402489211 0.845066682
H -2.241654545 -1.039658943 -2.246308770
H -3.472853275 2.469178081 2.127293214
H -5.618907917 0.417835265 0.558669958
H -3.573270676 -2.267701302 4.821333756
H 0.405715998 -3.775422030 1.596775811

