17

C 3.045412759 -1.091897436 -0.040927292
C 2.603302696 1.246109444 -1.388148308
C -0.031968062 2.133938833 -1.735113079
C -1.696002514 -0.122955503 -0.981687267
C -3.064835326 0.349668440 1.558795471
C -0.964186570 -1.118374956 2.691255482
C 0.122949097 -1.994482752 0.370857240
H 4.291817284 -2.360634990 -1.128940226
H 3.791781163 -1.072513665 1.875048943
H 3.960900086 1.797287299 -2.828796855
H -0.324420962 2.691756033 -3.707198268
H -0.586403351 3.804498282 -0.613886187
H -2.821670679 -0.813980121 -2.561671047
H -3.180417968 2.372578286 2.051493163
H -4.964907475 -0.449371713 1.768019410
H -0.306610804 -1.282775989 4.626712204
H 0.140261293 -4.000782548 -0.148249884

