11

C -3.147642445 0.290466477 0.535963462
C -0.550499670 -0.029960776 1.027474878
C 0.918663899 0.832922301 -1.030885531
N 3.061561187 -0.678642490 -0.747130965
N 2.968433726 -1.931437445 1.443632935
N 0.887463236 -1.497667386 2.609188570
H -1.551890072 1.135307167 -1.965658382
H -4.529857032 0.680872442 2.002959875
H -3.887026043 -0.792268245 -1.034656857
H 1.250933518 2.836561173 -1.334110210
H 4.639006214 -0.820849766 -1.789679224

