11

C -2.150183694 1.827703631 -2.678818269
C 0.556587064 1.057504723 -2.724441549
C -0.596086176 -0.103415300 -0.784352428
C 0.085233357 -0.344760897 1.911933846
O -1.359216185 0.161456065 3.598652438
C 2.636585006 -1.255217092 2.332928544
C 4.731875841 -2.030333257 2.679697407
H -2.590690589 3.766394846 -2.154257471
H -2.906847382 0.102676606 -0.734807342
H -3.517627841 0.879383844 -3.879558053
H 6.599618385 -2.712372473 2.994589029

