15

C 4.808649801 1.918009712 -0.350014827
N 2.565130966 0.375724305 -0.446746600
C -2.185503166 -4.802389838 0.859244806
C -2.070515788 -2.398859123 0.381742271
C -1.961079613 0.048639925 0.023543077
N -4.113740719 1.621722841 -0.175782097
C 0.476113020 1.419265578 0.005533307
H 5.793470669 1.794348094 -2.159235803
H 4.427653235 3.913823871 0.077731522
H 6.086180572 1.161225308 1.083491387
H -2.398235230 -5.505266856 2.775295628
H -2.042967210 -6.193376458 -0.641558240
H -5.740209229 0.628819350 -0.172507693
H -4.053165038 2.754213560 -1.712200112
H 0.316188087 3.451405602 0.420320727

