15

C 4.217461285 0.272115403 -0.144179886
N 1.559219205 -0.078518461 0.344030480
C 0.377051876 -2.324671858 1.025413224
C -2.335647916 -2.030128694 1.132691464
C -2.630317975 0.482072895 0.145982723
N -4.992636919 1.644227193 -0.164548318
C -0.315640425 1.599111493 -0.202490730
H 4.657335235 0.134537634 -2.158895010
H 4.835497083 2.111024789 0.550530964
H 5.275485853 -1.181630004 0.857863397
H 1.469566535 -3.774044855 1.971624606
H -0.719024690 -3.319675231 -0.697565055
H -6.384660621 0.349668610 -0.025898734
H -5.171107227 2.652575302 -1.769842825
H 0.153240518 3.476312551 -0.865287016

