17

C -4.144298082 -2.286828448 -1.207190648
C -1.555693335 1.045316122 -0.923452711
C 0.522209298 -0.277674826 0.337104993
O 1.113070646 -2.427293473 -0.745140686
C 2.582924249 1.896773424 -0.134439595
C 5.004810724 0.907137420 1.028678879
O 6.313154235 2.147962755 2.397612319
H -5.167539160 -0.487724801 -1.235353425
H -4.716098593 -3.264834737 -2.930135932
H -4.771460652 -3.286234109 0.480389225
H -1.467852175 1.125163533 -2.970439878
H -2.639378324 2.520805909 0.015747409
H 0.216244800 -0.300949014 2.413066159
H -1.957653199 -2.598294752 -1.215698270
H 2.151380098 3.732792058 0.693875912
H 2.897920032 2.065835315 -2.170882242
H 5.453435636 -1.062852894 0.505708569

