10

N 1.097445446 1.842998035 0.249453070
C 2.756647735 -0.577838584 0.453956605
C 0.923748264 -2.351274780 0.677783572
C -1.640022382 -1.342216549 0.634182695
C -1.569698813 1.161888319 0.379517194
H 1.587942267 2.698775931 -1.401929381
H 1.658531607 3.006922647 1.674283362
H 1.328787759 -4.344533632 0.871618487
H -3.362571731 -2.433750572 0.780219578
H -3.027576258 2.579708502 0.262831689

