17

C 3.980217565 0.134882812 -0.494915530
C 1.368753274 0.211516667 0.721946906
C -0.104797427 -1.866566038 1.503678359
C -2.685384519 -1.865185895 0.468028054
C -2.743366135 0.310454790 -1.425038767
C -0.533305997 2.075354602 -0.601572863
O -0.982191673 3.680909816 1.260927693
H 4.712073817 2.054467554 -0.617434242
H 3.837657722 -0.644681145 -2.396625315
H 5.292612876 -1.014191841 0.600685675
H 0.396925974 -3.046408418 3.110199374
H -3.999711281 -1.601152076 2.051728736
H -3.177120264 -3.718150006 -0.323748711
H -2.424457882 -0.387723197 -3.342724844
H -4.525659232 1.339655951 -1.404811214
H 0.359165524 2.914204520 -2.305544333
H 1.620934466 1.143616500 2.650275033

