18

C -4.463569994 -0.000470221 0.287872469
C -2.488241241 -1.839017800 1.283032689
C 0.208795480 -1.038264817 0.979931749
C 1.055061629 0.632485873 -0.871011016
C 4.020539559 -0.009005509 -1.915884167
C 3.370447183 2.237033125 -0.603984192
H -4.370382534 0.192995027 -1.764322104
H -4.210946889 1.872594189 1.115674802
H -6.361848036 -0.654193062 0.755534728
H -2.797048776 -2.164828070 3.301515549
H -2.746554406 -3.697984663 0.396808414
H 1.567771973 -2.270557264 1.886009260
H 2.014437825 1.216141128 3.536749904
H -0.335357525 1.370884828 -2.181026518
H 4.539555163 -1.699858840 -0.893579429
H 4.565451346 -0.029313942 -3.902562539
H 3.409566517 3.946091096 -1.751630873
H 3.014436898 1.981861989 2.538001037

