13

O 3.338456180 2.236154327 1.481464742
C 2.155853685 2.898077635 -0.553283067
C 0.539067375 -2.724470008 -1.036081881
C -1.291645588 -0.603661615 -0.565511900
N -1.257634260 0.633984482 1.889627141
C -0.561130287 2.108458465 -0.359395182
H 2.133162779 1.409611439 2.665310242
H 0.785507107 -3.016988765 -3.062023225
H 2.387656732 -2.345217640 -0.214195940
H -0.186335046 -4.471238861 -0.213499425
H -3.150215534 -0.905777082 -1.387031801
H -2.994643831 1.062407013 2.555099033
H -1.898643572 3.463458747 -1.117083234

