13

O 1.930609197 -0.459277601 2.681182543
C 0.281535480 -0.784431494 0.481942409
C 0.782802814 -3.336171123 1.395812206
N -0.809821665 2.468560972 -1.526429282
C -2.016277077 0.957567597 0.485759562
C 1.079372993 0.470432692 -1.984298999
H 3.659346057 -0.582852216 2.126277033
H -1.927867525 2.884664586 -3.014371721
H -0.652191729 -3.740044581 2.846736705
H -2.374045658 1.973825362 2.244905309
H -3.727383775 -0.054271952 -0.090987346
H 0.684247550 -0.774752052 -3.589455537
H 3.032943741 1.134224524 -2.116873265

