13

O 2.413386373 -0.698500809 2.799580158
C 0.772795902 -0.299965147 0.812250908
C -0.588004724 -2.557745103 -0.425727007
N -1.547762476 0.812705311 -1.833404633
C -1.583126376 1.334722916 0.993285291
C 1.279674816 1.042779694 -1.701516281
H 3.533653607 -2.057741259 2.355120901
H -1.646717266 -1.354882476 -2.366792039
H -2.197231978 -3.091306610 0.788534675
H -1.364468698 3.365453110 1.320125443
H -3.209511001 0.587987584 2.005165544
H 2.274461646 -0.005549237 -3.166958923
H 1.834256748 3.023650673 -1.622575939

