12

C -2.145610386 -1.073835529 1.177810131
C -1.036766642 0.605126380 -0.828918916
C 2.580689553 0.139579405 -0.365651668
O -1.378242477 3.074996705 -0.649456331
H -4.191997566 -0.999432381 0.900649650
H -1.524711540 -3.032483574 1.021163325
H -1.732236312 -0.328703082 3.051291508
H -1.124701986 -0.231316008 -2.733246350
H 2.705678798 -1.597158254 -1.449617490
H 3.926716414 1.488027458 -1.186233094
H 2.982726613 -0.168397917 1.625281177
H 0.951991619 2.102241021 -0.515526433

