15

C -2.559694715 -2.501940357 0.745470821
N -0.311593275 -1.018933070 0.344711972
C 2.111467079 -1.800445447 0.407796680
C 3.683049383 0.147095941 -0.329757076
C 2.153321565 2.209509982 -0.929621835
C -0.429969593 1.513384994 -0.455450773
N -2.839137002 2.507629944 -1.031928981
H -3.731811498 -2.435544905 -0.950292604
H -2.021462807 -4.441837784 1.168469952
H -3.669774983 -1.729048003 2.299732065
H 2.587466961 -3.668139538 1.075620545
H 5.719298087 0.082884182 -0.341754041
H 2.735433159 4.079692748 -1.494768281
H -0.742390587 2.814756247 1.260146632
H -2.563418099 4.230741902 -1.835481120

