11

O 1.756603291 -0.777686419 4.104137641
C 1.241312620 -0.298627637 1.932887979
C 2.460610648 -1.323379740 -0.294095450
C -0.569145522 0.988355770 -1.780315215
N -2.743310653 0.168092877 -0.494585282
C -0.762933176 1.472830640 0.948344165
H 1.270107151 -0.279305603 -2.276137606
H 2.015017650 -3.279520838 -0.800610384
H -0.630953645 2.297236455 -3.355373008
H -2.875455629 -1.710334424 -0.164203311
H -1.266152389 3.250229270 1.821089609

