12

C -3.477633299 0.272514513 -0.072266094
C -0.753018501 0.572308376 -0.438546890
O 0.187354327 2.508738420 -1.438698085
C 1.204008028 -1.455151628 0.167233505
O 0.526195203 -3.658926594 -0.138349873
C 3.540139827 -0.276928951 0.598128346
H -4.574745095 1.703889154 -1.054079878
H -3.957790125 -1.641737800 -0.676172145
H -3.855482337 0.336859385 1.959499330
H 5.219159883 -1.438673500 0.671512194
H 2.161248531 1.966392238 -1.304253180
H 3.587382527 1.422500392 1.753928610

