15

C -2.974109330 0.273939801 1.497108915
C -2.315682468 0.097543524 -1.205726998
O -0.405827000 1.519066191 -2.451861367
C 1.792501038 1.947258005 -1.043915381
C 2.847509093 -0.471444981 0.074344982
O 1.053822989 -1.553315039 1.839589423
C -1.702923692 -1.952459533 0.595987154
H -0.018612215 -0.051519962 2.684822080
H -4.873078029 0.369034391 2.238216396
H -3.712725566 -0.342083477 -2.646111758
H 1.466469557 3.328386453 0.469695737
H 3.177804949 2.745789274 -2.347231389
H 3.195660802 -1.893559528 -1.373954084
H 4.580888311 -0.124887370 1.132937639
H -2.025209472 -3.968500847 0.540019873

