11

C 2.302173440 0.615319147 -0.650616188
C -0.602531673 0.631378833 -0.586474859
C -1.544814068 -2.095965694 -0.561962919
O -1.987647858 -3.204966626 1.353599333
H -1.709064887 -3.013439746 -2.436942547
C -1.645112945 1.984536991 -2.759294845
N -2.456233759 3.002047834 -4.492691561
H -1.268481987 1.532118926 1.145754385
H 3.016140618 -0.343590344 1.025445652
H 2.996420532 -0.361856720 -2.327714922
H 3.028093476 2.540727269 -0.680931251

