13

C 2.718072170 1.048244498 -0.569350161
C 0.185556668 0.626637851 0.525127943
C -1.545600516 -1.488465345 -0.143443271
O -3.284197400 -2.054183755 1.449262504
C -2.368420681 0.332275004 -2.325821813
N -3.104658489 1.528147307 -3.985025803
H 4.050809248 1.222170790 1.000962833
H 3.311836118 -0.511845870 -1.772872415
H 2.792304543 2.825609171 -1.611804481
H -0.728805156 2.166727339 1.528876402
H 0.318919384 -0.942561111 3.836879968
H -0.524373639 -3.013113560 -1.150510410
H -1.067044665 -1.572681217 3.652803598

