15

C 3.347561579 1.229597395 -0.215824203
C 1.125950679 -0.528594532 -0.754756274
C -0.131024614 -1.568582779 1.613577385
O -1.175629425 0.299578793 3.228414272
C -1.060768904 0.746926817 -2.087475494
C -3.242482716 0.449799321 -0.882912983
C -2.828776238 -0.982459069 1.508017926
H 4.882147996 0.217338989 0.719767749
H 2.749837597 2.775476248 1.009126072
H 4.093809192 2.034079582 -1.962575407
H 1.788481761 -2.123980109 -1.899046670
H 0.630956158 -3.221190548 2.558218782
H -0.801534857 1.835693998 -3.802868205
H -5.053533873 1.191306498 -1.473140271
H -4.287674116 -2.122064796 2.383462749

