12

N 3.477669507 1.369534184 0.422078134
C 1.172332816 0.693859396 -0.447198472
C -0.178850011 -1.653604637 0.385308448
N -1.746491385 -2.190081236 -1.453979752
C -2.675657985 0.556107149 -1.901871735
O -3.014872215 0.513258497 1.494012410
N -0.266261466 1.898013878 -1.957991082
H 4.648939144 0.048799229 1.113613621
H 4.279954301 2.878492986 -0.409694211
H 0.354729505 -2.923274865 1.906730579
H -3.111031893 -3.485166825 -1.132568141
H -2.968294075 2.230799864 2.107037996

