18

C -4.673415916 -1.434588706 -2.587116587
C -3.674050677 -0.542364928 -0.018678847
C -0.967478643 0.254878398 -0.026493620
C 4.640237447 2.965464456 1.488943918
N 0.826250774 -1.341527007 0.727124547
C 3.320833142 -1.164996370 0.754759241
O 4.403048510 0.928918479 -0.253599394
H -4.444204534 0.044030751 -4.007825916
H -3.635463792 -3.091961608 -3.247601530
H -6.678426446 -1.923369788 -2.490324286
H -4.853852069 1.022645305 0.644535976
H -3.944775922 -2.052718461 1.376854606
H -0.341784843 1.977583385 -0.921735385
H 5.270083542 4.607265222 0.417878823
H 2.829035490 3.391659624 2.391612911
H 6.036915052 2.516338766 2.944483942
H 0.183070639 -2.990655753 1.454562789
H 4.449389054 -2.735116838 1.398799957

