11

O 3.132886443 -2.113434965 -0.987375078
C 3.125751007 -0.687462125 0.769425368
C 0.983118168 1.092515037 1.426558541
N -0.803837299 1.514809620 -0.571635028
C -2.198166958 -0.296370094 -1.219683136
O -3.853048578 -0.099012692 -3.113013252
H 4.740083583 -0.618111142 2.107396250
H 0.121418645 0.305953878 3.150656974
H 1.821940061 2.891233954 2.001736825
H -3.658271313 1.573882062 -3.817966285
H -2.264224206 -2.168471065 -0.357123315

