11

O 2.512102605 -2.813894229 -0.486316199
C 2.850352885 -0.967255429 0.777888563
C 0.959435251 1.141182552 1.141399228
N -1.232191800 1.040787601 -0.430771423
C -2.625511797 -0.876736829 -1.083479368
O -4.324486548 -0.088542362 -2.597550011
H 4.638373761 -0.698952246 1.839637800
H 0.487459219 1.151338734 3.166509187
H 1.950610152 2.923971173 0.806589761
H -2.966215471 1.906220656 -2.024362950
H -2.453631247 -2.836391891 -0.497014430

