13

C 3.744710768 0.993656112 0.192005661
C 1.035392225 0.252149010 0.212439931
C 0.066784150 -2.355219621 -0.275724761
N -2.323171151 -2.424298238 -0.153834629
C -3.079433952 0.148658159 0.571493696
O -5.006892975 1.116748204 -0.890748393
N -0.813958408 1.730019096 0.625624012
H 4.760210829 0.016221881 1.700967127
H 3.935578360 3.022923658 0.456604281
H 4.627110955 0.443629195 -1.591572601
H 1.210443358 -4.002861265 -0.713363845
H -3.798490030 0.029109228 2.508336494
H -4.409858535 1.297524413 -2.596070374

