14

C -1.613013037 2.535373335 2.253921608
C -1.337504971 -1.858689055 -2.119250124
C 0.014751145 -4.038823471 -2.185555738
O 2.385075234 -3.906391181 -1.029301827
C 2.591595767 -1.540914826 -0.162612199
C 0.421715723 -0.333161796 -0.801232954
N -0.286306830 2.282582233 -0.206070514
H -3.197817981 1.227017579 2.202386716
H -2.260375060 4.472711619 2.509507444
H -0.311909010 1.992642990 3.747387357
H -0.345898607 -5.890564967 -2.964620882
H 4.317297822 -1.044162992 0.803034846
H -1.527770402 2.691689137 -1.635066330
H 1.208197456 3.486116053 -0.317598900

