14

C -3.527292260 0.280694665 -0.440621053
C -1.729210180 -1.532620251 0.486588547
C 2.063552809 0.480698686 -0.360261054
C 4.524061185 0.231721581 0.806408668
O 3.977161084 -0.826063502 -1.622307088
C 0.617894333 2.446656495 -1.275391846
N -1.344362333 3.405615383 -1.714770386
H -4.529836528 1.469179462 0.880141851
H -4.047111073 -2.108225859 0.600971439
H -4.324314243 0.041583896 -2.303533230
H -1.203836422 -1.554093833 2.458811251
H -0.998905715 -3.000723968 -0.730592176
H 5.850766881 1.797246934 0.776479281
H 4.786531898 -1.135517172 2.316137458

