12

O -2.371271861 -0.397697360 4.300818711
C -1.446810169 -1.674697968 2.661562990
C 0.648621601 1.892303635 -2.704280835
C -0.068650500 2.048972419 0.046150362
N -0.341929804 -0.684656657 0.547679594
C 0.977478072 -1.983868009 -1.257500165
O 1.563770157 -0.509537230 -3.066540048
H -1.413489328 -3.758950308 2.700272254
H 1.773495722 3.293804181 -3.667348990
H 1.367369465 2.855887855 1.336421893
H -1.851653170 3.010636829 0.419674271
H 1.185022743 -4.002242663 -1.403461382

