12

O -3.592966346 -0.276631886 2.694683710
C -2.111253162 -1.137974799 1.254468421
C -0.382845549 1.116894979 -1.861254906
C 0.734911372 2.051878572 0.537416038
N 0.933066296 -0.511074257 1.650029994
C 1.848015164 -1.887558684 -0.306945229
O 1.059399967 -0.986960075 -2.445483882
H -2.328867692 -2.928022878 0.184043205
H -0.881211474 2.186879076 -3.530014127
H 2.593450137 2.976386601 0.381200221
H -0.528197311 3.179556990 1.700001155
H 2.653711254 -3.760347307 -0.258913738

