15

C -2.635733023 -0.942253728 -0.588631641
N -0.872263810 -0.079189540 0.861444750
C -1.124839274 2.393946288 2.061946995
C 1.558580931 -1.184180492 0.856207638
C 2.798789176 -0.419775333 -1.964669450
O 5.032864445 -1.215306700 -2.222170902
H 1.225055325 -1.310619195 -3.146070665
H -4.345207546 0.139917514 -0.858090788
H -2.426618803 -2.797323183 -1.411539546
H -2.898562652 3.265924957 1.501660207
H -1.077015749 2.150391658 4.105694416
H 0.450302649 3.579634215 1.476581633
H 1.487216879 -3.234428250 0.894796167
H 2.734758244 -0.421900066 2.354257391
H 2.457894072 1.682568545 -2.086936223

