11

N 3.455056836 1.383258396 -1.470082335
C 1.201645927 0.706451718 -1.180723767
C 0.062136463 -1.653720326 -0.140403268
O 1.637433816 -3.450409225 0.667607812
H 0.697152130 -4.872211968 1.293143801
C -2.453473493 -1.429851162 -0.257065057
H -3.845405713 -2.800369969 0.338213128
C -3.150262456 1.054471146 -1.364911536
N -0.928218166 2.152982851 -1.835064115
H -0.742215144 3.880295953 -2.607023321
H 4.653584318 0.008447189 -0.857003402

