13

N 2.789846652 1.782921733 0.218184018
C 1.110189286 0.608113035 -1.203320980
C 0.066486839 -1.864498867 -0.580914718
O 1.542148496 -3.924039598 -0.500250378
C -2.250503169 -1.295498286 0.298739698
C -2.828746910 1.442199691 -0.090372618
N -0.856492533 2.113707784 -1.841308696
H 4.000005435 0.566285327 1.078447046
H 0.900451172 2.384317907 1.824042155
H 0.642372901 -5.286209085 0.295318934
H -3.488095031 -2.533210827 1.355916421
H -1.211914302 2.302856803 1.946539852
H -0.457732863 3.977612710 -1.930302966

