18

C 4.917718481 -0.794243840 -0.723675892
C 2.518111575 -2.060474294 -0.177854957
C 0.828863623 -0.495634779 1.395576009
C -1.286113925 0.434122247 -0.435131720
C -2.618440215 2.715686825 0.719236736
C -3.154901412 -1.669217555 -1.053613664
H 4.968268561 1.277214922 -0.548356588
H 6.036574977 -1.552545316 0.874777353
H 5.869083638 -1.450301514 -2.428463667
H -0.395177297 1.053554931 -2.201333194
H 1.728200405 1.163683294 2.275335039
H -0.093318985 -1.628755627 2.859077071
H -4.126583638 3.379438670 -0.523883199
H -1.312481690 4.280590270 1.035731167
H -3.467608718 2.216816627 2.535770518
H -2.191505220 -3.328102597 -1.800586099
H -4.538378827 -1.027835362 -2.444747701
H -4.188141920 -2.238026989 0.643870036

