18

C 4.197606915 0.249468358 -0.682449324
C 2.153450085 -1.717749161 -0.498312767
C 0.594662891 -1.450229307 1.810233491
C -1.088750192 -0.146529005 -0.137326322
C -1.490487390 2.663855436 0.227635275
C -3.451740612 -1.645599493 -0.772101749
H 3.963967489 1.976277206 0.448598135
H 5.856123896 -0.733092680 0.075547377
H 4.659358300 0.748136242 -2.628077497
H 0.120410722 -0.498868611 -1.983041802
H 1.264285378 -0.169805782 3.286411422
H -0.213345506 -3.166629166 2.601276078
H -2.415466433 3.495105915 -1.418725305
H 0.283230375 3.663270602 0.540574016
H -2.694471362 2.996382776 1.871236591
H -2.955244439 -3.591202703 -1.236540419
H -4.457597004 -0.822658215 -2.375053959
H -4.725825108 -1.667945788 0.852684017

