12

O -1.053104968 2.533903222 -1.687043681
C -0.167724400 0.236702635 -0.673834365
C -1.230769498 -2.080004576 -1.729113180
C -1.832075588 -0.784637039 1.516173285
C 2.531720627 0.334748429 -0.116406884
C 4.734901179 0.506304607 0.363433999
H -0.121437013 3.899878391 -0.937820828
H -2.982876544 -1.466071883 -2.673255595
H -2.711197403 -2.616219220 0.744698150
H -3.324635535 0.555815451 1.933994320
H -0.751343485 -1.470072924 3.114872931
H 6.703157745 0.623872954 0.762306561

