10

O -1.950322120 4.801103274 0.003189952
C -0.618094380 3.004927210 0.068183832
C -1.579578604 0.272292262 0.481000759
H -1.368622297 -0.088683090 2.513644017
H -3.559217160 0.213427142 -0.050224120
C 0.162917806 -1.229194732 -1.159021075
N 2.455195959 -0.978329658 -0.232573848
C 3.374405933 1.175649305 0.252683765
H 5.277106917 1.535480900 0.899047446
O 1.959327799 3.311768919 -0.132430892

