10

N -3.281244381 0.296063675 0.669241556
C -0.955492734 1.101044013 0.085742317
O -0.320344351 3.273553064 -0.283953895
C 0.955245652 -1.100795987 -0.086759802
O 0.319678354 -3.273408953 0.281593211
N 3.281486965 -0.296024671 -0.668402820
H -3.554099801 -1.567659345 0.928791452
H -4.702069474 1.539439290 0.840772147
H 4.701816591 -1.539933926 -0.840162975
H 3.555023159 1.567722840 -0.926861229

