8

O -0.044012232 -4.296009112 0.449465538
C 2.157997995 1.959566094 -0.047770708
C 0.039327431 0.743744481 -0.055410493
C -2.042371833 -0.587171620 -0.045984293
N -2.070859303 -3.316008255 0.249916941
H 3.180838319 2.291914929 -1.790860435
H 2.953399915 2.671195832 1.700357728
H -3.902218628 0.235090434 -0.246585298

