10

C -1.677442399 1.782556506 0.052637187
C -0.739591562 -0.795902963 0.589492203
C 1.562633675 -1.745542535 -0.043833312
C 3.284777905 -0.200848823 -1.415000919
H -3.292303285 1.669136958 -1.234967411
H -0.206141738 2.944907694 -0.786198425
H -2.392035605 2.631805870 1.796064136
H -2.059082983 -2.042003374 1.564936949
H 1.935432930 -3.703401072 0.491277108
H 4.909309011 -1.387228106 -1.973046644

