11

O 2.885906287 0.820282622 3.101303450
C 1.047779550 0.418850010 1.881277745
C 1.510044789 -1.411771321 -1.200833817
C -0.212197025 0.439529207 -1.883382749
N -2.566921746 0.270348452 -0.703841553
C -1.478654605 1.101492086 1.625166640
H 3.472357997 -1.263831201 -1.757212973
H 0.819430677 -3.290271641 -0.753110682
H 0.296558878 2.245550820 -2.695596504
H -3.251521503 -1.519715803 -0.650580510
H -2.521417027 2.179005343 3.015825525

