16

C -3.263349941 -1.214693616 2.014661342
C -2.193063431 1.872715698 -1.796357705
N -1.765649599 -0.518144989 -0.183421429
C 0.012216872 1.592274842 -0.070075977
C 2.574105218 1.057349048 -1.175019912
C 4.266551645 -0.845675911 -0.115005009
O 2.871227291 -1.327480956 -2.361421022
H -3.771805132 0.497557179 3.035986030
H -2.208121790 -2.477254411 3.260063367
H -4.990149189 -2.145156966 1.385867050
H -3.695648621 2.893463151 -0.795474808
H -1.111895350 -1.990705530 -1.216737450
H 0.093291130 2.441851280 1.808660937
H 3.378505580 2.627756603 -2.226732153
H 6.295785819 -0.682902688 -0.368676969
H 3.667063433 -1.918823353 1.532550294

