18

C -4.611756609 -0.364864427 -1.990741038
C -2.698312702 -0.023900028 0.131353124
C 0.013528757 -0.352035190 -0.773735304
C 2.002985688 -0.020646222 1.293054228
C 4.673681857 -0.545932372 0.355090556
C 1.776107116 4.531774877 3.104776124
N 1.876871206 2.484739446 2.310550105
H -6.540735464 -0.125564629 -1.303832961
H -4.305189231 1.018532958 -3.492454799
H -4.473275249 -2.244843515 -2.834461630
H -2.916842049 1.851194590 0.970211527
H -3.082330676 -1.386796039 1.640695427
H 0.259934776 -2.245879727 -1.568298394
H 0.420699447 0.990369633 -2.294735535
H 1.564964936 -1.302049060 2.855999822
H 4.810553700 -2.494101622 -0.303683996
H 5.147898462 0.712623280 -1.207679728
H 6.050354917 -0.260450634 1.859650925

