13

C -2.793036604 0.436326858 0.695176157
C -0.497768771 -0.804561026 -0.454985032
O -0.711310544 -0.762082874 -3.103214908
C 1.980384545 0.590443548 0.066940506
O 4.039340236 -0.365634661 -0.989525794
H -2.998587746 2.362602648 -0.012872531
H -2.647155794 0.489325418 2.754386243
H -4.490397755 -0.617536004 0.197302582
H -0.288602772 -2.753063208 0.232117554
H 0.916371095 -1.268874748 -3.758631927
H 1.773911557 2.665810585 0.133200880
H 2.153180402 0.251480973 2.684929454
H 3.544502770 -0.311204615 1.675076178

