15

C -3.261013427 0.164524980 0.943198780
C -2.002174353 0.857957544 -1.547631366
N 1.522778747 -2.205780816 -1.164917153
C 3.055408409 -2.192250604 0.690037803
C 3.463119730 0.416080597 1.589749639
N 2.174444640 1.963259507 0.272277031
C 0.854991486 0.423175933 -1.577735214
H -5.287487863 0.530494160 0.847858507
H -3.000908632 -1.834240685 1.378389139
H -2.494258979 1.272908160 2.503710256
H -2.325325287 2.848664075 -1.983063232
H -2.809630459 -0.250845005 -3.089043285
H 3.901468010 -3.899489807 1.445796237
H 4.673759620 1.005468903 3.135047231
H 1.578282592 0.955050859 -3.445743642

