12

C -2.756777068 -0.782474437 -0.898031454
C 0.077970194 -0.598021482 -0.860827905
C 1.050857139 1.656004004 0.536413122
O 3.845953129 2.030721520 0.595995091
C 2.701979999 1.414469944 2.715327721
O 3.167019602 1.003964341 4.856732333
N 1.642646286 -2.116620230 -1.821852775
H -3.370364527 -2.519803390 -1.815017616
H -3.506937037 -0.746634722 1.025511490
H -3.573251646 0.825134683 -1.904265696
H 0.019460645 3.413388318 0.279235173
H 0.744171861 -3.576912272 -2.693317457

