11

N -2.378642360 2.927284430 0.724148682
C -1.145607100 0.933781633 0.345777551
C -1.256611918 -1.800055596 0.364099447
N 1.145450971 -2.780561993 0.681726315
C 2.732617543 -1.045772207 0.032904233
N 1.382064940 1.031343109 -0.896048696
H -4.133745813 2.542350733 1.393606952
H -2.885720999 -2.880084721 0.948957456
H -0.205988198 -0.274029204 -2.249208876
H 4.745836741 -1.243306111 -0.209319728
H 2.139541531 2.723360323 -1.359190712

