15

C 3.179545916 -0.671074836 -1.301891287
C 1.827392450 0.972084397 0.496829029
C -0.463702300 2.311385893 -0.595475397
N -2.335178659 1.751804218 1.357944248
C -1.627910806 -0.758459948 2.162546131
C -2.158079272 -2.820160731 0.421041242
N -2.510115955 -4.381298726 -1.048953486
H 1.980275621 -1.755760189 -2.605397004
H 4.205946655 0.708314270 -2.476362290
H 4.585252634 -1.888662681 -0.420898832
H 0.676664192 -0.333271551 2.438496072
H -1.038518059 1.575401856 -2.461729593
H -0.098881923 4.337920649 -0.783848816
H -4.147817885 1.892051092 0.775211558
H -2.189790615 -1.241171023 4.086186433

