15

O -4.521686158 0.108236898 -0.492570172
C -2.447435648 -0.798929189 0.878051323
C 0.031981404 0.268166764 -0.072163368
C 2.411999522 -0.804274676 1.097289751
O 4.633347486 0.138825574 0.509519976
C 0.229956237 2.805064578 -1.139372383
O 0.158744516 0.621440423 -2.716024028
H -4.104107349 -0.028304771 -2.258248797
H -2.729872584 -0.262777907 2.851005994
H -2.348168807 -2.876134929 0.802053020
H 2.089695904 -1.461733450 3.054823671
H 2.266790756 -3.255005950 0.006528097
H 3.800168315 -2.293074446 -0.237402438
H 2.051730474 3.738382661 -1.074842715
H -1.455497542 3.969770762 -1.196326933

