10

C -1.122312049 -2.070729006 -0.066445397
C -2.736093354 -0.406076633 -1.754676488
C -1.715544285 2.219386182 -2.120445414
O 0.207272909 3.001163764 -1.206282086
H -2.887555697 3.461910022 -3.341193032
H -4.663968136 -0.203635224 -1.022181717
H -2.967708279 -1.223826493 -3.645029718
H 0.778841570 -2.271952505 -0.834274683
H -0.939662385 -1.251327261 1.815087026
H -1.954060282 -3.947121242 0.117318469

