14

C -1.676813271 -2.073705060 0.966236866
C -0.751071327 0.241917674 -0.482527469
C -2.264009873 2.597940258 0.153526112
O -4.265447838 2.557441009 1.209705061
C 2.026024454 0.761351626 0.058499911
O 2.670572165 2.222630691 1.701481794
N 3.709371529 -0.541544957 -1.370442538
H -1.377646457 -1.810759194 2.987714904
H -3.692475223 -2.346116734 0.655155934
H -0.675876913 -3.773274905 0.367947629
H -1.007980954 -0.053479419 -2.521025608
H -1.415887541 4.398299061 -0.486627645
H 3.164755483 -1.809073823 -2.667427699
H 5.556485766 -0.371626226 -0.965301981

