13

C 3.597206892 1.647369996 -1.039336178
O 1.376729978 1.209616300 0.449896604
C 0.483225212 -1.086006801 0.693105301
C -2.685662649 -1.779097948 -1.082675573
O -3.554180058 -3.881234750 -0.889020597
N -4.092468450 0.413963367 -1.135398837
H 3.070768008 1.624751619 -3.036044971
H 5.001972223 0.186746062 -0.661127318
H 4.327758609 3.497177301 -0.520874282
H 1.832807177 -2.528794839 -0.020053509
H -0.808088068 -1.538315602 -2.203019869
H -5.824218346 0.219364019 -0.368527491
H -3.185297732 2.010986052 -0.639614524

