13

N 2.472729859 -1.936918520 -3.018381720
C 1.432009532 -0.495872091 -1.446337076
O 2.220973723 1.860810046 -0.710356308
C 0.709313879 2.194796632 1.502732041
C -0.057901549 -0.557871359 1.691693768
C -1.776278552 -0.725700922 -1.214227459
N -2.628607565 -1.085117364 1.407860098
H 4.203846300 -1.275809136 -3.520037884
H 1.891377405 2.741300513 3.099723488
H -0.773627552 3.606041475 1.186131540
H -2.004593656 -2.409546204 -2.347832908
H -2.500593984 1.015253320 -2.019308330
H -2.931697998 -2.953013164 1.713602025

