17

C -1.901315796 -3.451501524 -0.256343824
C -1.185150111 -0.679581797 -0.143696872
H -1.571736165 0.223392727 -2.003662078
C -2.509253673 0.930132761 1.865532566
H -2.475564202 -0.116386172 3.684000727
H -4.461374170 1.387913510 1.410458736
C -0.744622826 3.132953226 1.981851823
H -0.694787648 4.578059882 3.423941059
O 1.548019800 2.192788287 1.444016285
C 1.505514209 -0.046507218 0.432310945
C 3.814100907 -0.983092808 -0.838941570
H 3.985403371 -3.029352336 -0.644822874
H 3.788536276 -0.555860653 -2.872200954
H 5.490919752 -0.110757585 -0.022585213
H -3.884051878 -3.672273843 -0.779697012
H -0.773493608 -4.470362180 -1.652110847
H -1.620282114 -4.353557490 1.578382445

