11

O 5.132587428 -1.631766320 0.228056174
C 2.744698506 -0.985754884 0.129193734
N 2.424772465 -3.328857958 0.097910471
C -2.892328805 -0.413300583 -0.081291256
C -1.012509853 1.677866907 -0.003908993
C 1.491044122 1.437142141 0.089799124
H -2.025421424 -2.276277597 0.024676100
H -4.228101842 -0.213880563 1.480291486
H -3.993678538 -0.299159274 -1.824769378
H -1.773906436 3.584416602 -0.031279654
H 2.729055655 3.064943816 0.139532048

