13

C -3.140944330 -1.428458680 -0.541800788
C -0.716038450 -1.532589014 0.021543067
C 0.632048477 1.800906105 -2.709093590
N 1.009602642 0.491681170 -0.552472714
C 2.827685205 0.911491803 1.112699882
O 2.662526052 -0.072657343 3.496690337
H 1.611787171 0.969779611 4.554021527
H -4.346414571 -3.026925852 -0.131192838
H -3.962714336 0.233183190 -1.405213990
H 0.165035055 -3.118201457 0.957718869
H -0.251466687 0.809951640 -4.252046051
H 1.831582086 3.419578910 -3.027099499
H 4.336787512 2.202822733 0.643219007

