13

C -2.570807741 -1.019926820 0.853335330
C -0.572252251 -1.356364759 -0.789026419
C 1.011723349 0.937330179 -3.124881601
N 1.614715038 0.175337709 -0.631328472
C 2.345426625 1.366436035 1.362239294
O 1.642005933 0.618422191 3.607513911
H 0.118334121 -0.507508987 3.361147633
H -4.140693901 -2.317777835 0.710643868
H -3.012951100 0.854532963 1.556589103
H -0.229228144 -3.152025041 -1.709373687
H 1.968018631 -0.118524624 -4.591299001
H 0.637682430 2.931735717 -3.402231961
H 3.495008500 3.059171345 1.204226272

