14

C 1.982214404 0.849216445 -1.045102035
C 0.468115680 1.776216248 1.206773717
C -2.245737601 1.759802899 0.753130732
C -0.877364691 -2.216101517 -1.118376260
C 1.579166662 -1.667907011 0.272777658
O 1.100065286 -0.446958892 2.668251619
H -0.720355511 -0.129820273 -2.206169759
H 3.805293744 1.595816359 -1.627645148
H 1.203277233 3.529643211 2.036721570
H -3.504031829 1.545703449 2.361526790
H -2.995732521 2.737229136 -0.884875143
H -2.492658835 -3.027628395 -0.147589047
H -0.469125380 -3.308789464 -2.822463003
H 2.953852089 -3.190177723 0.419137947

