11

C -3.023445732 1.572668367 0.333171717
N 1.942314500 1.762707559 -0.635543997
C 0.938546804 -0.332433193 -0.129075532
O -1.509432688 -0.651648754 0.381055639
C 2.320261804 -2.837360149 -0.007980351
O 4.540894053 -2.991750206 -0.404484293
H -4.934054011 0.964083504 0.777953550
H -2.347457722 2.930458678 1.728711972
H -2.951139916 2.449808463 -1.530391111
H 3.821710305 1.499655453 -0.950071072
H 1.139985883 -4.491916963 0.468497235

