13

C -1.371410248 -1.795221394 -0.460677151
N -1.628281287 0.911002515 -0.993140954
C -0.462967065 2.345432483 0.964175477
C 1.027352726 1.838376502 -1.423742320
C 2.943597245 0.039273120 -0.797203831
C 1.511236337 -2.310265795 -0.229725237
H 2.167127148 -3.260050649 1.481150480
H -2.212948812 -2.844537480 -2.020307258
H -2.410411132 -2.266018784 1.257875635
H -1.091640774 4.278952898 1.196609788
H 0.097688504 1.403403330 2.701757352
H 1.300774194 3.417745290 -2.690628093
H 2.125279012 -3.547456714 -1.780772888

