11

C -3.922629843 0.129608775 -0.793526065
N -1.378598407 0.208188141 -1.830333960
C 0.629971630 0.149372117 -0.360621709
O 4.571504763 -0.565965604 4.877881448
C 2.418549105 0.021210758 1.059662583
C 4.596274367 -0.083963952 2.646305361
H -5.232341440 -0.466734177 -2.265328051
H -4.521595471 1.964986716 -0.057875187
H -3.981886571 -1.248119867 0.732981829
H -1.159103637 0.908332408 -3.582450965
H 6.389957089 0.323989009 1.650903633

