16

C 3.775852888 -0.287512514 -0.216235294
C 1.241486361 -1.034156061 0.918508243
C -1.195749679 0.058976330 -0.235756657
C -3.536517562 -0.963982064 1.049545197
C -1.210136447 2.590270824 -1.062498873
O 0.107340941 2.896192577 -3.065988437
H 4.071981815 1.751758297 -0.198070000
H 5.301809322 -1.155413890 0.866269806
H 3.954746325 -0.920546539 -2.172520634
H 1.052232180 -3.090507936 0.825647554
H 1.250946500 -0.568796320 2.942384834
H -0.074610261 0.535196800 -2.843381232
H -3.452207167 -0.766199133 3.111060050
H -5.256325750 -0.040212200 0.384491879
H -3.743174704 -2.977925480 0.644865771
H -2.278207253 4.202814320 -0.330453592

