14

O 0.967852884 1.508114736 2.144255944
C 1.745356283 0.266456032 0.043078046
C 3.673252967 -1.553192925 -0.617336713
N 0.990164446 -2.383750328 -0.504820889
C -1.747047890 1.220266286 2.107011842
C -2.550393672 0.717764810 -0.664058906
C -0.128006401 -0.194827400 -1.883571570
H 4.607511094 -1.411752008 -2.447412744
H 4.807679105 -2.362478701 0.884747189
H -2.558607990 2.933887832 2.905096607
H -2.231315532 -0.390603347 3.298199514
H -3.170759578 2.446939122 -1.601860761
H -4.080149061 -0.658499238 -0.757232930
H 0.198979506 0.025491725 -3.900789768

