8

O -6.606226965 1.114041077 0.692185666
C -4.434561923 0.897957414 0.436473180
C -2.048826249 0.656751562 0.150554632
C 0.334575935 0.436269430 -0.119762716
C 2.784706162 0.221910444 -0.398870597
O 4.112557013 -1.976612897 -0.568193988
H 2.980195363 -3.390790539 -0.456058301
H 3.962504539 1.889830211 -0.514029524

