11

C -2.967071536 -0.822513387 -1.520328093
N -1.252166848 0.822744841 -0.330469919
C 0.212048682 2.225344565 0.723387614
O 2.587689439 1.570323198 1.784233090
C 3.517980766 -0.765878408 1.385625807
O 5.446387544 -1.454478338 2.315604442
H -4.908213669 -0.113479868 -1.452602274
H -2.917647072 -2.718420201 -0.693844014
H -2.433022310 -1.000919482 -3.505866620
H 0.009817770 4.252971393 1.086386995
H 2.339720087 -1.924423310 0.128134108

