12

O 5.498333318 0.230771521 -1.269330531
C 3.057711380 0.167212341 -1.358720510
N 1.291689355 1.379917738 -0.066234938
C -1.378381334 0.782897811 -0.353418829
C -2.318572993 -1.155233818 1.546961440
N 3.393560707 -1.415294583 -3.122040057
H 1.884765216 2.421487875 1.408467191
H -1.639038780 0.098381429 -2.281087592
H -2.440979134 2.543943678 -0.201334143
H -2.078333547 -0.477105429 3.480774516
H -4.323535335 -1.533771435 1.249250093
H -1.287271269 -2.929405949 1.351357627

