11

C -1.230814001 -0.517381256 1.358771608
C -0.019916636 1.810586152 0.400366995
N -1.479903809 3.438080292 1.507041580
O 1.950887753 1.763391905 -0.859102925
C 1.472984917 -2.432325398 -2.141660027
O 0.777515739 -2.670751538 -4.226300592
H -3.223198363 -0.859789917 1.023666569
H -0.405331193 -1.392173406 3.024577829
H -0.098815669 -2.324604300 -0.448619395
H -0.646770653 5.116861108 1.938128511
H 3.377617069 -2.544917000 -1.335074008

