11

N 4.287047483 -0.007072905 -0.146532973
C 1.922217471 0.064369665 -0.222361919
C 0.362495580 2.341169148 -0.576844625
C -2.129629351 2.306521870 -0.535680098
C -2.048439630 -1.478737545 0.563685366
O 0.387774654 -2.030678340 -0.070208862
H 4.938444336 -1.793327604 0.122705416
H 1.352546132 4.101742413 -0.900489477
H -3.386060082 0.480718509 -0.567829725
H -3.336764497 -2.877270541 -0.231512842
H -2.358542175 -1.143263896 2.573456343

