16

C 3.730577129 1.288744538 -1.443947971
O 1.145063218 0.744398250 -1.178349100
C 0.707182476 -1.629383867 -0.031861746
C -2.080061475 -2.143652044 0.175746589
C -3.394194634 1.371939333 1.907596905
O -3.717653008 2.789652501 -0.162269913
H 4.681076469 -0.130463252 -2.618162142
H 3.889065567 3.126069747 -2.356983208
H 4.677735943 1.363743100 0.399068527
H 1.604433435 -1.678379249 1.841637565
H 1.617344932 -3.109262939 -1.180755382
H -3.030582510 -2.052344428 -1.649232794
H -2.396186011 -3.981658765 1.062304004
H -3.746534373 -0.921302977 1.626970630
H -1.509875054 1.604407281 2.737850837
H -2.099132856 3.219588136 -0.894163449

