12

O -1.828485808 -1.413417726 -1.973889140
C -3.584212851 -2.048885775 -0.411034103
C -0.815416086 -0.825615656 1.110126755
C 0.860375089 1.395606622 0.371866751
C 3.116646571 0.658331033 -1.220106151
O 4.144458859 -1.352786487 -1.073439782
H -5.222130362 -0.684633602 -0.564821696
H 0.198247899 -2.500488499 1.688819230
H -2.162217451 -0.145969740 2.537744714
H -0.216643645 2.895674376 -0.542598328
H 1.628331932 2.194850999 2.125301405
H 3.837604829 2.138181155 -2.514533586

