16

C -3.141411432 2.962317609 2.534530120
O -3.511423965 0.511414219 1.541099471
C -2.501291274 0.180202923 -0.854796561
C 4.728043703 -1.695028417 -2.736870088
N 3.472421567 -2.454608217 -0.682595759
C 1.301973962 -1.726556589 0.281241306
O 0.156406887 0.260238625 -0.884614228
H -1.135532460 3.372403050 2.813660073
H -3.950121957 4.397245029 1.277063271
H -4.111627211 3.028086446 4.346820881
H -3.092700755 1.694851047 -2.136700101
H -3.168779334 -1.659202554 -1.514879446
H 3.930696309 -0.222050681 -3.885867886
H 6.463224189 -2.651836740 -3.185532928
H 4.323764483 -3.822145357 0.340623947
H 0.701630517 -2.364193420 2.120470094

