16

C -3.190630407 1.349112765 2.238133418
O -2.470822974 -0.177935081 0.146940058
C -1.455293641 1.048958286 -1.780438992
C 2.376931194 -2.366348312 -2.499292473
N 2.802091775 -2.059343633 0.018786353
C 2.586090579 0.193471502 1.122128084
O 2.021593859 2.055896905 -0.245690569
H -1.681498866 2.676919642 2.701355010
H -4.919861091 2.387573830 1.789658380
H -3.539731268 0.078223871 3.814814656
H -1.624541840 3.085095137 -1.829527878
H -1.522009118 0.022304834 -3.531831438
H 3.009440235 -0.856553099 -3.710334061
H 2.414145628 -4.291369381 -3.177660933
H 2.937660670 -3.592263746 1.138520400
H 2.721704696 0.257395344 3.178088333

