14

O -0.911260633 2.695976906 0.706516290
C -2.345740792 0.678336883 -0.282319811
C -1.369680600 -1.835441927 0.699868498
C 1.417678397 -2.110054604 -0.014140556
C 3.049396302 0.144605868 0.038063771
C 1.685383557 2.534691767 0.086645549
H 2.040879950 3.162621227 -1.893948396
H -2.279981536 0.710384238 -2.363768080
H -4.296669874 1.017013316 0.286611870
H -2.486435154 -3.396592924 -0.062757464
H -1.582221556 -1.876288225 2.753587947
H 2.359935924 -3.710019270 0.891317729
H 1.611319748 -2.563879532 -2.049537164
H 2.672923627 3.927119133 1.247474658

