12

O 1.932285062 3.417851832 -3.630727364
C 1.755717784 3.441145863 -1.070010742
C -3.879856119 -3.117936196 0.229630618
C -1.953011824 -2.357104906 1.563763373
N -0.204687650 -1.715981530 2.908419010
C 1.875728885 1.482231687 0.420939215
C 1.949576000 -0.390574378 2.022798389
H 2.107253444 1.699742395 -4.195344119
H 1.503089123 5.339640468 -0.343321001
H -5.453744229 -1.857982959 -0.095624583
H -3.912156055 -5.004199870 -0.552285707
H 3.696524604 -1.008929238 2.897608605

