19

C -3.277366928 -1.749624362 -2.744338683
C -3.540948422 0.183241791 -0.671873000
C -2.748350212 -0.447448180 1.993826488
C -1.270095057 1.417951576 0.445871430
O 1.073692949 0.719102698 -0.495824640
C 3.032255182 0.951028048 1.302560779
C 5.476953202 0.094802665 0.102955643
H -3.205080179 -0.839254433 -4.594637146
H -1.545728242 -2.841268764 -2.520291676
H -4.877752834 -3.052250317 -2.733127183
H -5.181409164 1.400683655 -0.840622576
H -1.878263329 -2.281282291 2.266545148
H -3.868229957 0.222237235 3.568386811
H 3.176510563 2.925751522 1.931364917
H -1.408282546 3.407131057 0.955551542
H 2.586276302 -0.197120053 2.972969579
H 5.911866281 1.242155759 -1.553408278
H 7.032804877 0.268357569 1.445507052
H 5.340786398 -1.874664308 -0.490999073

