19

C -2.545638516 -3.336655762 -0.976903973
C -2.113865236 -0.556940858 -1.114109750
C -2.774385612 1.092592875 0.988330165
C -0.350391582 2.385992998 2.024617950
O 1.174046250 3.197410877 0.040446942
C 2.024582253 0.785321725 -0.693121212
C 4.734080603 0.320120928 0.143388544
H -4.563489508 -3.796054079 -1.102676566
H -1.592201370 -4.335452591 -2.508031360
H -1.870805072 -4.094539155 0.824642863
H -2.086687724 0.290439454 -2.977744312
H -3.746114268 0.150192031 2.544469154
H -3.975484935 2.626190511 0.275401221
H 0.950245324 -0.149518325 1.211876791
H -0.649906275 3.900640253 3.405255636
H 1.906421704 0.504924370 -2.732650311
H 4.935587146 0.689272804 2.161488602
H 5.257902103 -1.639733556 -0.232894969
H 6.013687068 1.550394033 -0.909552774

