11

N -2.968886542 1.318777501 1.853524792
C -1.476930400 -0.308042158 0.431449022
O -2.745648811 -2.474359936 -0.160801634
C 0.840584025 0.191499403 -0.332174074
C 3.121429090 0.063451429 -1.767103554
O 2.557175030 2.136243997 -0.065321369
H -2.050402715 2.905741552 2.366581486
H -3.780348811 0.458547846 3.350782296
H -1.573637362 -3.664796442 -0.864335520
H 4.667836481 -1.139002110 -1.152511951
H 3.124186238 0.575292026 -3.755823019

