11

N -2.550450685 1.464311811 1.340718582
C -1.469418512 -0.642174120 0.585292608
O -2.642857990 -2.704923172 0.152244576
C 1.198941521 -1.228353105 0.204376091
C 2.633475027 0.302987443 -1.627610661
O 2.999116737 0.627861108 0.992698493
H -1.429486766 2.961834311 1.686071474
H -4.395245302 1.540166325 1.785412846
H -0.575408736 -3.559977152 0.016326081
H 4.171849589 -0.604299341 -2.639166750
H 1.774839450 1.905924649 -2.592094976

