13

C 3.581014906 -0.254556049 -0.670985187
C 1.401084145 1.271316123 0.342768956
O 1.447112582 3.540700962 0.540540719
N -0.613569109 -0.175808780 1.229031857
C -2.330775484 -1.507538087 -0.426093897
C -3.169480649 0.719729142 1.079853777
H 4.732987983 0.925420010 -1.896905761
H 4.734873570 -0.872920981 0.923759867
H 2.945225603 -1.937063481 -1.673753086
H -2.849970877 -3.402855608 0.150355058
H -2.103887728 -1.235998672 -2.446884434
H -4.310054861 0.438893919 2.755897401
H -3.464560080 2.490681501 0.092414732

