13

C 4.243449007 0.391982394 -0.497611697
C 1.535672083 0.610581698 0.348090519
O 1.019420487 1.588890324 2.431938609
N -0.206521082 -0.226436679 -1.281774151
C -3.835961674 -1.702180577 0.346788857
C -2.706551417 0.573586964 -0.303393564
H 5.086062484 2.271779992 -0.524780535
H 5.289719781 -0.741348535 0.868831595
H 4.369981950 -0.466280019 -2.359430819
H -2.763254010 -3.000642445 1.511376026
H -5.670331447 -2.333943969 -0.331039785
H -1.975098149 1.550839195 1.546749998
H -3.758036777 1.875200990 -1.496436815

