13

C 3.144385086 -0.502570584 -0.139178178
C 0.608178269 -0.015021868 -1.158308686
C -1.547795924 -1.411165059 -0.512365356
C -2.350983119 1.481824167 1.191136895
O -0.244215732 2.494437804 1.944282612
H 4.306570546 1.190190520 -0.139476944
H 3.023716776 -1.283475547 1.759478566
H 4.011991061 -1.929161591 -1.375054415
H 0.457839425 1.332615153 -2.699418683
H -3.025149566 -1.649840152 -1.907719662
H -1.287712029 -2.965158831 0.799497373
H -3.746042987 0.890676961 2.635510262
H -3.358822609 2.360588635 -0.412509468

