13

O 1.771124286 3.986043326 2.007116497
C 1.161691145 1.988623392 1.215665502
N 2.535255265 -0.066078677 0.293687761
C 0.982461148 -2.075867644 -0.749511566
C -1.435240245 -0.753218037 -1.561863593
C -2.401542421 1.128445439 0.170355239
N -1.171289480 1.988180081 -1.878672077
H 3.807421330 -0.609851054 1.607256232
H 0.583716369 -3.572850627 0.624860223
H 1.940076290 -2.914991421 -2.371885021
H -2.708819013 -1.780113789 -2.799497181
H -4.106807465 1.719568079 1.147544485
H -0.839986569 1.021748781 2.290319339

