17

C 3.685878189 0.756514645 -1.517107508
C 1.242499122 1.846661553 -0.741402581
C -0.904744233 -3.018747646 1.854962307
C -2.206852876 -1.664684347 -0.326493803
C -1.435235313 1.086246891 -0.591704808
C -1.499048171 3.032306223 1.579887083
O 1.038823288 3.687112634 0.862002143
H 5.089467960 2.248958526 -1.744997556
H 4.392279055 -0.571759977 -0.091453882
H 3.489062042 -0.264219655 -3.294657374
H 1.115997114 -3.257311529 1.506084528
H -1.702834025 -4.898808030 2.137771500
H -4.252974058 -1.715400269 -0.050819120
H -1.844789987 -2.652067551 -2.108588384
H -2.420705472 1.998504713 -2.174446738
H -1.127835171 -1.939109676 3.596656584
H -2.715632023 4.694294820 1.419736932

