10

N 0.514357883 2.057464527 0.121857647
C 2.201332533 0.168902587 0.614888781
C 0.865851421 -2.025859897 0.913449087
C -1.729373962 -1.431738186 0.585294139
C -1.882225820 1.103756810 0.098863743
H 0.966644367 3.871031231 -0.182123319
H 4.201866887 0.536605685 0.714492314
H 1.658738041 -3.858036661 1.321364404
H -3.304442527 -2.720014676 0.694902412
H -3.492748841 2.297888562 -0.259627998

