8

C 2.984207761 -1.873934118 0.282958935
C 1.637104910 -3.573851577 1.539020206
C -1.106166248 -3.216613688 2.002578490
O -2.296833263 -1.403137918 1.320560042
H -2.049196068 -4.765690676 3.049086198
H 2.487318960 -5.289814872 2.271669519
H 2.090169677 -0.174816032 -0.432524729
H 4.984952272 -2.126526779 -0.063952357

