16

C 3.699689139 0.582717308 0.035949186
C 1.186097411 -0.747771204 0.276304019
C -0.927058082 0.592899795 1.914447389
C -1.444236702 1.946750028 -0.659599039
N -0.612439072 -0.443884572 -1.906380300
C -2.644791841 -2.088016882 -0.888054947
C -2.856276931 -1.407201736 1.869511781
H 3.530129457 2.599200006 -0.341077481
H 4.769725052 -0.267078092 -1.508051828
H 4.781458626 0.347254372 1.775765964
H -0.530306586 1.587612245 3.668098833
H -3.374005443 2.530708754 -1.089551530
H -0.151132491 3.499749426 -1.024387216
H -2.207818111 -4.096515279 -1.113234013
H -4.453124778 -1.765598330 -1.840927519
H 1.526975205 -2.734077678 0.733591757

