14

C -4.031900327 -0.116475745 -0.867555122
C -1.252736487 -0.381608081 -0.350294620
C 0.003935903 -2.385474155 -1.127444356
C 3.483546555 -0.799030063 0.243022975
N 5.711218147 -1.403424401 -0.174746282
O 2.561320900 1.173640318 1.485685331
C -0.017403735 1.734445931 1.078152476
H -5.084129578 0.072673972 0.899590157
H -4.406706868 1.565273131 -2.006706427
H -4.745564696 -1.758094341 -1.878251046
H 2.162116880 -2.769598822 -0.546725944
H 6.986845415 -0.126974194 0.491167844
H -0.903516044 2.011204750 2.923174767
H -0.138793864 3.505594613 0.017372479

