12

O 3.533646123 -1.872721651 0.411097824
C 2.612277894 -2.846252614 -1.395590371
C 0.185496046 3.018245489 -0.179925757
C -1.940727206 2.849968156 1.640732125
N -1.143627158 0.876224921 -0.088527036
C -1.513535794 -1.473517083 -0.510947967
O 0.132723667 -2.826283538 -2.006167307
H 3.633962575 -3.916661143 -2.846916777
H 2.197865755 3.066852836 0.164692599
H -3.716112617 3.783405046 1.202167094
H -1.671726563 2.349877932 3.623748246
H -3.228337832 -2.426212644 0.029499778

