12

O 4.059149687 -2.275550865 -0.038757168
C 2.479448799 -1.957805814 -1.587280693
C 0.809021290 1.874735645 -0.019279402
C -1.734429339 2.823301021 0.942145220
N -1.038371341 0.196960145 1.090520676
C -1.638286064 -1.959208822 0.193862732
O -0.031813823 -3.170703661 -1.207545330
H 2.667313276 -1.515250966 -3.586544017
H 2.316301070 2.254164910 1.342022153
H -3.231025136 3.269656467 -0.389695693
H -1.884591342 3.752181385 2.764609151
H -3.447859531 -2.867752161 0.515463241

