8

O -3.930536514 -2.099602831 -0.028658717
C -1.929383709 -1.287803700 0.077479017
C -0.795700195 1.958185290 -0.499469147
O -2.288862719 3.489390760 -1.068562777
C 1.817119445 1.579244425 -0.027178873
C 2.705049349 -0.553009189 0.595627331
H 0.482860741 -2.011112588 0.599528293
H 4.433624562 -1.509282927 1.074667386

