16

C 2.209874246 3.477175948 0.290783157
C 0.555890284 1.206916770 0.696614485
C -0.049569878 0.398228487 2.989800179
C -1.958926554 -2.393224697 -1.452069371
C -0.330560701 -0.022888911 -1.714045978
C -0.580710363 -4.571358876 -0.455357686
N 0.503692326 -6.291495800 0.295398719
H 1.223844974 4.921598864 -0.811099913
H 3.907368585 2.963742500 -0.770246983
H 2.795805071 4.314099082 2.077692647
H 0.640995914 1.363381293 4.657690050
H -1.210841391 -1.254090759 3.318594365
H -2.702368621 -2.932102664 -3.299488478
H -3.584092268 -2.037967807 -0.230395031
H 1.319227464 -0.462477720 -2.882402905
H -1.418326913 1.368930077 -2.791901521

