16

C 2.804729303 2.260765931 0.167569631
C 0.610085872 0.421525408 0.241430862
C -0.650174408 0.150369438 2.723430904
C -2.456447430 -2.059904768 -1.104301051
C -1.393595689 0.540447291 -1.796088457
C 1.139827259 -2.489607664 -0.161296156
N 2.589800565 -4.138338244 -0.354566799
H 3.748468035 2.213136499 -1.663504572
H 4.188999270 1.818768798 1.627737991
H 2.097975606 4.177681171 0.474389760
H -0.778589160 1.788705958 3.958831232
H -0.971104177 -1.667996281 3.573963260
H -2.345342362 -3.563780206 -2.489665471
H -4.175684618 -2.136703276 -0.000463285
H -0.607374417 0.612007043 -3.705909022
H -2.749574471 2.079552062 -1.548764616

