17

C 4.675620697 0.932245871 0.762074408
C 2.392224446 -0.670442156 0.030483361
C 0.017806833 0.922904388 -0.036274824
N -1.851363966 -1.745288215 -1.576018946
C -3.270783292 0.005670917 0.622498046
C -4.463382911 -1.444334703 -1.481787866
H 4.974918885 2.475199239 -0.578051518
H 6.390094339 -0.212983869 0.778262029
H 4.464533433 1.763802656 2.641018304
H 2.668588879 -1.557303041 -1.804849132
H 2.124698318 -2.200921820 1.389251077
H -0.032715884 2.250333112 -1.602329432
H -0.013266066 2.004364527 1.730829354
H -3.353530053 -0.834019268 2.484709494
H -3.786272176 1.990819650 0.510695745
H -5.530983534 -3.072383611 -0.796857577
H -5.459752216 -0.355988044 -2.941658915

