12

C 4.380764444 -0.795858176 -1.424768139
N 2.346729346 1.021395629 -1.516163741
C 0.107696323 0.331212298 -1.235123275
C -2.168022841 2.033546112 -1.280669492
O -4.039708279 0.511423497 -0.901727153
C -3.286635656 -2.127151749 -0.596929428
H -4.194730034 -3.212240465 -2.096600812
H -3.901300580 -2.741209863 1.272909275
O -0.687308396 -2.138797036 -0.822449987
H 5.341246225 -0.782565143 -3.250626963
H 5.753176832 -0.160677252 -0.022977690
H 3.792328522 -2.724175872 -0.981617309

