13

O 3.944930747 0.257112263 -3.593553749
C 1.874442265 0.019860133 -2.707646324
C 1.287821973 -1.673103210 -0.484009241
C -1.301722610 -1.223983567 0.672688624
C -1.616468231 1.354499920 1.804075138
N 0.096798424 3.004997810 1.629407998
H 1.416339072 -3.618720668 -1.175525414
H 2.792904172 -1.424547306 0.902391146
H -2.794599502 -1.484087341 -0.743055090
H -1.698061030 -2.631176270 2.135050956
H 0.229241089 1.005155171 -3.565498497
H -3.421007203 1.699743265 2.764012281
H -0.412126969 4.652177965 2.476954360

