15

C 4.536152919 0.984600866 0.373866705
O 1.925392475 0.857812658 0.797246558
C 0.881469894 -1.482094190 0.031188947
C -1.911668339 -1.456278604 0.336068856
C -4.540696992 1.354322891 0.683764857
N -3.377803698 0.019653360 -1.157959087
H 4.991570074 0.767673384 -1.640701493
H 5.554484584 -0.482391408 1.432512180
H 5.181055936 2.832888660 1.010412408
H 1.717213934 -3.033234740 1.128501072
H 1.354040528 -1.804775717 -1.979347973
H -2.843514930 -2.755019358 1.602779093
H -3.397649621 2.485562403 1.935374689
H -6.591160103 1.505406702 0.758649507
H -3.477956877 0.146520595 -3.059647783

