14

O -2.149743747 0.849432441 1.410705194
C -2.347498861 -0.035050640 -1.570088513
C 0.032097924 2.437706714 1.725703925
O 2.255098926 1.077970552 1.827858305
C 3.246234257 -0.072812111 -0.326181866
N 2.187356988 -1.466193336 -1.895052374
C -0.474450874 -2.154062886 -1.748843886
H -2.030656154 -0.553270916 2.589665714
H -4.245483448 -0.865804745 -1.486123786
H -0.072951649 3.703495955 0.107937774
H -0.154813677 3.398019251 3.536764927
H 5.266808212 0.287449567 -0.403932191
H -0.956893777 -3.133675120 -3.504502144
H -0.602916062 -3.610686062 -0.247517707

