14

O -2.400280726 0.236865435 1.961494219
C -2.350844999 -0.050750069 -0.855549749
C 0.340283361 2.796050037 1.359666035
O 2.416016362 1.525911572 1.660531258
C 3.396830670 -0.023524180 -0.304355340
N 2.221561673 -1.486874971 -1.689944694
C -0.498764997 -2.010222640 -1.664456314
H -2.297035690 -1.382400838 2.828401543
H -4.230626988 -0.694962543 -1.428378801
H -0.161818987 3.503687936 -0.480506180
H -0.323420636 3.702876427 3.066246366
H 5.439556089 0.154279244 -0.285648525
H -0.973102052 -2.556565876 -3.598227797
H -0.603117941 -3.787600219 -0.553271690

