13

C -1.433825729 -0.320289719 1.731581276
C -0.885965515 -1.498156352 -0.818817744
C 0.503181155 0.438174689 -2.431117107
N 2.566414184 1.655246961 -1.082312292
C 2.565993474 1.584571997 1.293967608
O 0.834801123 0.587827865 2.878348932
H -2.239266309 -1.663288048 3.067737001
H -2.644954074 -2.105400076 -1.710096129
H -2.741118778 1.272093140 1.534282417
H 0.292325854 -3.175084405 -0.557569173
H 1.289171332 -0.438591884 -4.124811018
H -0.801149901 1.904754909 -3.087072282
H 4.120233119 2.395286671 2.364845923

