12

C 3.366885446 0.009272319 0.576956346
O 1.029618602 -1.348668962 0.532786020
C -1.399410584 0.215048414 1.169188369
C -2.973941295 -0.778379343 -0.751587411
N -1.039178405 1.915150292 2.756700685
H 3.413697515 1.389715345 -0.955656724
H 3.481847030 0.977303046 2.386091339
H 4.882330412 -1.363479578 0.369223723
H -0.048502297 -1.412112208 -1.280049076
H -4.605390840 0.340582240 -1.276232321
H -3.348272419 -2.792933047 -0.579471269
H -2.672621592 2.797909754 3.221031017

