26

N    -2.78751   0.92450   3.63590
C    -2.12479   1.13543   2.68618
N    -1.50388   1.38244   1.53401
N    -0.15849   1.11263   1.55608
C     0.30120   0.68863   0.38031
C     1.77353   0.42581   0.17674
C     2.60460   1.42169  -0.36697
C     3.89690   1.11097  -0.80001
C     4.37409  -0.20012  -0.70161
C     3.56363  -1.19491  -0.14456
C     2.27051  -0.88731   0.29009
C    -0.70657   0.59246  -0.94292
C    -0.05354  -0.54456  -1.82756
O    -0.32123  -1.73328  -1.54174
O     0.72661  -0.13009  -2.71238
C    -2.06837   0.42019  -0.47031
C    -2.66259  -0.93661  -0.11608
O    -2.22563  -1.51519   0.90263
O    -3.56598  -1.31806  -0.89846
H     2.23031   2.44175  -0.45469
H     4.52886   1.88904  -1.24691
H     5.37868  -0.44708  -1.06946
H     3.94273  -2.22641  -0.07791
H     1.63395  -1.67596   0.69501
H    -0.61348   1.57608  -1.51427
H    -2.79294   1.23512  -0.54504
26

N    -2.78972   0.92241   3.63838
C    -2.12396   1.13612   2.69178
N    -1.50090   1.39372   1.54545
N    -0.16579   1.11246   1.55203
C     0.31903   0.69099   0.40483
C     1.77814   0.42527   0.17978
C     2.60643   1.42219  -0.36646
C     3.89734   1.11080  -0.80153
C     4.37445  -0.20042  -0.70273
C     3.56465  -1.19595  -0.14590
C     2.27257  -0.88894   0.29049
C    -0.72355   0.59038  -0.96677
C    -0.05599  -0.54354  -1.83068
O    -0.31957  -1.73299  -1.54128
O     0.73025  -0.13145  -2.71228
C    -2.07129   0.41689  -0.48139
C    -2.66358  -0.93776  -0.11966
O    -2.22591  -1.51264   0.90131
O    -3.56994  -1.32299  -0.89713
H     2.23081   2.44192  -0.45376
H     4.52891   1.88888  -1.24761
H     5.37878  -0.44709  -1.06982
H     3.94311  -2.22668  -0.07861
H     1.63455  -1.67617   0.69556
H    -0.61567   1.57614  -1.51745
H    -2.79180   1.23514  -0.54077
26

N    -2.79192   0.92031   3.64086
C    -2.12313   1.13682   2.69737
N    -1.49792   1.40500   1.55689
N    -0.17309   1.11228   1.54798
C     0.33686   0.69335   0.42935
C     1.78274   0.42474   0.18281
C     2.60826   1.42269  -0.36594
C     3.89778   1.11062  -0.80305
C     4.37482  -0.20072  -0.70384
C     3.56567  -1.19699  -0.14724
C     2.27463  -0.89056   0.29089
C    -0.74052   0.58830  -0.99062
C    -0.05843  -0.54251  -1.83379
O    -0.31791  -1.73270  -1.54082
O     0.73388  -0.13281  -2.71218
C    -2.07420   0.41359  -0.49247
C    -2.66456  -0.93891  -0.12324
O    -2.22618  -1.51010   0.89998
O    -3.57391  -1.32793  -0.89580
H     2.23131   2.44208  -0.45282
H     4.52897   1.88872  -1.24831
H     5.37889  -0.44710  -1.07018
H     3.94348  -2.22695  -0.07931
H     1.63516  -1.67637   0.69611
H    -0.61785   1.57619  -1.52064
H    -2.79066   1.23516  -0.53651
26

N    -2.79412   0.91821   3.64334
C    -2.12230   1.13751   2.70297
N    -1.49494   1.41629   1.56833
N    -0.18039   1.11211   1.54392
C     0.35468   0.69571   0.45387
C     1.78734   0.42420   0.18585
C     2.61009   1.42319  -0.36543
C     3.89822   1.11045  -0.80457
C     4.37519  -0.20102  -0.70495
C     3.56669  -1.19803  -0.14858
C     2.27669  -0.89219   0.29129
C    -0.75749   0.58622  -1.01447
C    -0.06088  -0.54149  -1.83691
O    -0.31625  -1.73242  -1.54036
O     0.73751  -0.13416  -2.71208
C    -2.07712   0.41029  -0.50355
C    -2.66555  -0.94006  -0.12682
O    -2.22645  -1.50755   0.89866
O    -3.57787  -1.33286  -0.89448
H     2.23182   2.44225  -0.45189
H     4.52902   1.88856  -1.24900
H     5.37899  -0.44711  -1.07053
H     3.94386  -2.22723  -0.08002
H     1.63576  -1.67658   0.69666
H    -0.62004   1.57624  -1.52383
H    -2.78953   1.23518  -0.53225
26

N    -2.79632   0.91611   3.64581
C    -2.12147   1.13820   2.70857
N    -1.49196   1.42757   1.57977
N    -0.18769   1.11193   1.53987
C     0.37251   0.69807   0.47839
C     1.79194   0.42367   0.18888
C     2.61192   1.42370  -0.36492
C     3.89866   1.11027  -0.80609
C     4.37556  -0.20132  -0.70606
C     3.56770  -1.19906  -0.14992
C     2.27875  -0.89381   0.29170
C    -0.77447   0.58414  -1.03832
C    -0.06332  -0.54046  -1.84003
O    -0.31459  -1.73213  -1.53990
O     0.74114  -0.13552  -2.71197
C    -2.08004   0.40699  -0.51464
C    -2.66653  -0.94121  -0.13040
O    -2.22672  -1.50500   0.89733
O    -3.58184  -1.33779  -0.89315
H     2.23232   2.44241  -0.45095
H     4.52908   1.88840  -1.24970
H     5.37909  -0.44712  -1.07089
H     3.94424  -2.22750  -0.08072
H     1.63637  -1.67679   0.69722
H    -0.62222   1.57629  -1.52702
H    -2.78839   1.23519  -0.52798
26

N    -2.79853   0.91401   3.64829
C    -2.12064   1.13890   2.71416
N    -1.48898   1.43885   1.59121
N    -0.19499   1.11176   1.53582
C     0.39034   0.70043   0.50291
C     1.79655   0.42314   0.19191
C     2.61376   1.42420  -0.36441
C     3.89910   1.11010  -0.80761
C     4.37593  -0.20162  -0.70718
C     3.56872  -1.20010  -0.15126
C     2.28080  -0.89544   0.29210
C    -0.79144   0.58206  -1.06217
C    -0.06577  -0.53944  -1.84314
O    -0.31294  -1.73184  -1.53944
O     0.74478  -0.13687  -2.71187
C    -2.08296   0.40369  -0.52572
C    -2.66752  -0.94236  -0.13398
O    -2.22699  -1.50245   0.89601
O    -3.58580  -1.34272  -0.89182
H     2.23282   2.44258  -0.45002
H     4.52914   1.88824  -1.25039
H     5.37920  -0.44713  -1.07124
H     3.94461  -2.22778  -0.08142
H     1.63697  -1.67700   0.69777
H    -0.62441   1.57635  -1.53020
H    -2.78725   1.23521  -0.52372
26

N    -2.80073   0.91191   3.65077
C    -2.11982   1.13959   2.71976
N    -1.48600   1.45014   1.60264
N    -0.20229   1.11158   1.53176
C     0.40817   0.70280   0.52743
C     1.80115   0.42260   0.19495
C     2.61559   1.42470  -0.36390
C     3.89955   1.10992  -0.80913
C     4.37629  -0.20192  -0.70829
C     3.56974  -1.20114  -0.15260
C     2.28286  -0.89706   0.29250
C    -0.80842   0.57998  -1.08602
C    -0.06821  -0.53841  -1.84626
O    -0.31128  -1.73156  -1.53898
O     0.74841  -0.13823  -2.71177
C    -2.08587   0.40039  -0.53680
C    -2.66850  -0.94350  -0.13756
O    -2.22727  -1.49991   0.89468
O    -3.58977  -1.34766  -0.89049
H     2.23333   2.44274  -0.44908
H     4.52919   1.88808  -1.25109
H     5.37930  -0.44713  -1.07160
H     3.94499  -2.22805  -0.08212
H     1.63757  -1.67720   0.69832
H    -0.62660   1.57640  -1.53339
H    -2.78611   1.23523  -0.51945
26

N    -2.80293   0.90981   3.65325
C    -2.11899   1.14028   2.72536
N    -1.48302   1.46142   1.61408
N    -0.20959   1.11140   1.52771
C     0.42600   0.70516   0.55195
C     1.80575   0.42207   0.19798
C     2.61742   1.42520  -0.36339
C     3.89999   1.10975  -0.81065
C     4.37666  -0.20222  -0.70940
C     3.57076  -1.20218  -0.15394
C     2.28492  -0.89869   0.29290
C    -0.82539   0.57790  -1.10987
C    -0.07066  -0.53739  -1.84938
O    -0.30962  -1.73127  -1.53852
O     0.75204  -0.13959  -2.71167
C    -2.08879   0.39709  -0.54788
C    -2.66949  -0.94465  -0.14114
O    -2.22754  -1.49736   0.89336
O    -3.59373  -1.35259  -0.88917
H     2.23383   2.44291  -0.44815
H     4.52925   1.88792  -1.25179
H     5.37941  -0.44714  -1.07196
H     3.94536  -2.22833  -0.08283
H     1.63818  -1.67741   0.69888
H    -0.62878   1.57645  -1.53658
H    -2.78497   1.23525  -0.51519
26

N    -2.80514   0.90771   3.65573
C    -2.11816   1.14098   2.73095
N    -1.48004   1.47270   1.62552
N    -0.21689   1.11123   1.52366
C     0.44383   0.70752   0.57647
C     1.81036   0.42153   0.20102
C     2.61925   1.42570  -0.36288
C     3.90043   1.10957  -0.81217
C     4.37703  -0.20252  -0.71051
C     3.57177  -1.20322  -0.15528
C     2.28698  -0.90032   0.29330
C    -0.84237   0.57582  -1.13372
C    -0.07310  -0.53637  -1.85249
O    -0.30796  -1.73098  -1.53806
O     0.75567  -0.14094  -2.71156
C    -2.09171   0.39378  -0.55897
C    -2.67047  -0.94580  -0.14472
O    -2.22781  -1.49481   0.89204
O    -3.59769  -1.35752  -0.88784
H     2.23433   2.44308  -0.44721
H     4.52930   1.88776  -1.25248
H     5.37951  -0.44715  -1.07231
H     3.94574  -2.22860  -0.08353
H     1.63878  -1.67762   0.69943
H    -0.63097   1.57651  -1.53977
H    -2.78383   1.23527  -0.51093
26

N    -2.80734   0.90562   3.65821
C    -2.11733   1.14167   2.73655
N    -1.47706   1.48398   1.63696
N    -0.22419   1.11105   1.51960
C     0.46165   0.70988   0.60099
C     1.81496   0.42100   0.20405
C     2.62108   1.42620  -0.36236
C     3.90087   1.10940  -0.81370
C     4.37740  -0.20282  -0.71163
C     3.57279  -1.20426  -0.15662
C     2.28904  -0.90194   0.29370
C    -0.85934   0.57374  -1.15756
C    -0.07555  -0.53534  -1.85561
O    -0.30630  -1.73070  -1.53760
O     0.75931  -0.14230  -2.71146
C    -2.09462   0.39048  -0.57005
C    -2.67146  -0.94695  -0.14831
O    -2.22808  -1.49226   0.89071
O    -3.60166  -1.36245  -0.88651
H     2.23484   2.44324  -0.44628
H     4.52936   1.88760  -1.25318
H     5.37962  -0.44716  -1.07267
H     3.94611  -2.22888  -0.08423
H     1.63939  -1.67783   0.69998
H    -0.63316   1.57656  -1.54295
H    -2.78270   1.23529  -0.50666
26

N    -2.80954   0.90352   3.66068
C    -2.11650   1.14237   2.74214
N    -1.47408   1.49527   1.64840
N    -0.23149   1.11088   1.51555
C     0.47948   0.71224   0.62551
C     1.81956   0.42047   0.20708
C     2.62292   1.42670  -0.36185
C     3.90131   1.10922  -0.81522
C     4.37776  -0.20312  -0.71274
C     3.57381  -1.20530  -0.15796
C     2.29110  -0.90357   0.29411
C    -0.87632   0.57166  -1.18141
C    -0.07800  -0.53432  -1.85873
O    -0.30464  -1.73041  -1.53714
O     0.76294  -0.14366  -2.71136
C    -2.09754   0.38718  -0.58113
C    -2.67245  -0.94810  -0.15189
O    -2.22836  -1.48971   0.88939
O    -3.60562  -1.36739  -0.88518
H     2.23534   2.44341  -0.44534
H     4.52942   1.88744  -1.25388
H     5.37972  -0.44717  -1.07302
H     3.94649  -2.22915  -0.08494
H     1.63999  -1.67804   0.70054
H    -0.63534   1.57661  -1.54614
H    -2.78156   1.23531  -0.50240
26

N    -2.81175   0.90142   3.66316
C    -2.11567   1.14306   2.74774
N    -1.47110   1.50655   1.65984
N    -0.23879   1.11070   1.51150
C     0.49731   0.71461   0.65003
C     1.82416   0.41993   0.21012
C     2.62475   1.42720  -0.36134
C     3.90175   1.10905  -0.81674
C     4.37813  -0.20341  -0.71385
C     3.57483  -1.20634  -0.15930
C     2.29315  -0.90519   0.29451
C    -0.89329   0.56958  -1.20526
C    -0.08044  -0.53329  -1.86184
O    -0.30298  -1.73012  -1.53668
O     0.76657  -0.14501  -2.71126
C    -2.10046   0.38388  -0.59221
C    -2.67343  -0.94925  -0.15547
O    -2.22863  -1.48717   0.88806
O    -3.60959  -1.37232  -0.88385
H     2.23584   2.44357  -0.44441
H     4.52947   1.88728  -1.25457
H     5.37983  -0.44718  -1.07338
H     3.94687  -2.22942  -0.08564
H     1.64060  -1.67824   0.70109
H    -0.63753   1.57666  -1.54933
H    -2.78042   1.23533  -0.49813
26

N    -2.81395   0.89932   3.66564
C    -2.11484   1.14375   2.75334
N    -1.46812   1.51783   1.67128
N    -0.24609   1.11053   1.50744
C     0.51514   0.71697   0.67455
C     1.82877   0.41940   0.21315
C     2.62658   1.42770  -0.36083
C     3.90219   1.10887  -0.81826
C     4.37850  -0.20371  -0.71496
C     3.57584  -1.20737  -0.16064
C     2.29521  -0.90682   0.29491
C    -0.91026   0.56750  -1.22911
C    -0.08289  -0.53227  -1.86496
O    -0.30132  -1.72983  -1.53622
O     0.77020  -0.14637  -2.71115
C    -2.10338   0.38058  -0.60330
C    -2.67442  -0.95040  -0.15905
O    -2.22890  -1.48462   0.88674
O    -3.61355  -1.37725  -0.88253
H     2.23635   2.44374  -0.44347
H     4.52953   1.88712  -1.25527
H     5.37993  -0.44719  -1.07373
H     3.94724  -2.22970  -0.08634
H     1.64120  -1.67845   0.70164
H    -0.63971   1.57672  -1.55252
H    -2.77928   1.23534  -0.49387
26

N    -2.81615   0.89722   3.66812
C    -2.11401   1.14445   2.75893
N    -1.46514   1.52912   1.68271
N    -0.25339   1.11035   1.50339
C     0.53297   0.71933   0.69907
C     1.83337   0.41886   0.21619
C     2.62841   1.42821  -0.36032
C     3.90263   1.10870  -0.81978
C     4.37887  -0.20401  -0.71608
C     3.57686  -1.20841  -0.16198
C     2.29727  -0.90845   0.29531
C    -0.92724   0.56542  -1.25296
C    -0.08533  -0.53124  -1.86808
O    -0.29967  -1.72955  -1.53576
O     0.77384  -0.14772  -2.71105
C    -2.10629   0.37728  -0.61438
C    -2.67540  -0.95155  -0.16263
O    -2.22917  -1.48207   0.88541
O    -3.61752  -1.38218  -0.88120
H     2.23685   2.44390  -0.44254
H     4.52958   1.88696  -1.25596
H     5.38003  -0.44720  -1.07409
H     3.94762  -2.22997  -0.08704
H     1.64180  -1.67866   0.70219
H    -0.64190   1.57677  -1.55570
H    -2.77814   1.23536  -0.48961
26

N    -2.81836   0.89512   3.67060
C    -2.11319   1.14514   2.76453
N    -1.46216   1.54040   1.69415
N    -0.26068   1.11018   1.49934
C     0.55080   0.72169   0.72359
C     1.83797   0.41833   0.21922
C     2.63024   1.42871  -0.35981
C     3.90307   1.10852  -0.82130
C     4.37923  -0.20431  -0.71719
C     3.57788  -1.20945  -0.16332
C     2.29933  -0.91007   0.29571
C    -0.94421   0.56334  -1.27681
C    -0.08778  -0.53022  -1.87119
O    -0.29801  -1.72926  -1.53530
O     0.77747  -0.14908  -2.71095
C    -2.10921   0.37398  -0.62546
C    -2.67639  -0.95270  -0.16621
O    -2.22945  -1.47952   0.88409
O    -3.62148  -1.38712  -0.87987
H     2.23735   2.44407  -0.44160
H     4.52964   1.88680  -1.25666
H     5.38014  -0.44720  -1.07445
H     3.94799  -2.23025  -0.08775
H     1.64241  -1.67887   0.70275
H    -0.64409   1.57682  -1.55889
H    -2.77700   1.23538  -0.48534
26

N    -2.82056   0.89302   3.67308
C    -2.11236   1.14583   2.77013
N    -1.45918   1.55168   1.70559
N    -0.26798   1.11000   1.49528
C     0.56863   0.72405   0.74811
C     1.84257   0.41780   0.22226
C     2.63208   1.42921  -0.35930
C     3.90351   1.10835  -0.82282
C     4.37960  -0.20461  -0.71830
C     3.57890  -1.21049  -0.16466
C     2.30139  -0.91170   0.29611
C    -0.96119   0.56126  -1.30066
C    -0.09022  -0.52919  -1.87431
O    -0.29635  -1.72897  -1.53484
O     0.78110  -0.15044  -2.71085
C    -2.11213   0.37068  -0.63654
C    -2.67737  -0.95385  -0.16979
O    -2.22972  -1.47698   0.88276
O    -3.62545  -1.39205  -0.87854
H     2.23786   2.44423  -0.44067
H     4.52970   1.88664  -1.25736
H     5.38024  -0.44721  -1.07480
H     3.94837  -2.23052  -0.08845
H     1.64301  -1.67907   0.70330
H    -0.64627   1.57688  -1.56208
H    -2.77587   1.23540  -0.48108
26

N    -2.82276   0.89093   3.67555
C    -2.11153   1.14653   2.77572
N    -1.45620   1.56296   1.71703
N    -0.27528   1.10983   1.49123
C     0.58645   0.72641   0.77263
C     1.84718   0.41726   0.22529
C     2.63391   1.42971  -0.35878
C     3.90395   1.10817  -0.82434
C     4.37997  -0.20491  -0.71941
C     3.57991  -1.21153  -0.16600
C     2.30345  -0.91332   0.29652
C    -0.97816   0.55918  -1.32451
C    -0.09267  -0.52817  -1.87742
O    -0.29469  -1.72869  -1.53438
O     0.78473  -0.15179  -2.71074
C    -2.11505   0.36737  -0.64763
C    -2.67836  -0.95500  -0.17337
O    -2.22999  -1.47443   0.88144
O    -3.62941  -1.39698  -0.87722
H     2.23836   2.44440  -0.43973
H     4.52975   1.88648  -1.25805
H     5.38035  -0.44722  -1.07516
H     3.94875  -2.23080  -0.08915
H     1.64362  -1.67928   0.70385
H    -0.64846   1.57693  -1.56527
H    -2.77473   1.23542  -0.47681
26

N    -2.82496   0.88883   3.67803
C    -2.11070   1.14722   2.78132
N    -1.45322   1.57425   1.72847
N    -0.28258   1.10965   1.48718
C     0.60428   0.72878   0.79715
C     1.85178   0.41673   0.22832
C     2.63574   1.43021  -0.35827
C     3.90439   1.10800  -0.82587
C     4.38034  -0.20521  -0.72053
C     3.58093  -1.21257  -0.16734
C     2.30551  -0.91495   0.29692
C    -0.99514   0.55710  -1.34836
C    -0.09511  -0.52715  -1.88054
O    -0.29303  -1.72840  -1.53392
O     0.78837  -0.15315  -2.71064
C    -2.11796   0.36407  -0.65871
C    -2.67934  -0.95615  -0.17695
O    -2.23026  -1.47188   0.88012
O    -3.63338  -1.40191  -0.87589
H     2.23886   2.44456  -0.43880
H     4.52981   1.88632  -1.25875
H     5.38045  -0.44723  -1.07551
H     3.94912  -2.23107  -0.08986
H     1.64422  -1.67949   0.70441
H    -0.65064   1.57698  -1.56846
H    -2.77359   1.23544  -0.47255
26

N    -2.82717   0.88673   3.68051
C    -2.10987   1.14792   2.78691
N    -1.45024   1.58553   1.73991
N    -0.28988   1.10948   1.48313
C     0.62211   0.73114   0.82167
C     1.85638   0.41619   0.23136
C     2.63757   1.43071  -0.35776
C     3.90483   1.10782  -0.82739
C     4.38071  -0.20551  -0.72164
C     3.58195  -1.21361  -0.16868
C     2.30756  -0.91658   0.29732
C    -1.01211   0.55502  -1.37221
C    -0.09756  -0.52612  -1.88366
O    -0.29137  -1.72811  -1.53346
O     0.79200  -0.15450  -2.71054
C    -2.12088   0.36077  -0.66979
C    -2.68033  -0.95730  -0.18053
O    -2.23053  -1.46933   0.87879
O    -3.63734  -1.40685  -0.87456
H     2.23937   2.44473  -0.43786
H     4.52986   1.88616  -1.25945
H     5.38056  -0.44724  -1.07587
H     3.94950  -2.23135  -0.09056
H     1.64483  -1.67970   0.70496
H    -0.65283   1.57703  -1.57164
H    -2.77245   1.23546  -0.46829
26

N    -2.82937   0.88463   3.68299
C    -2.10904   1.14861   2.79251
N    -1.44726   1.59681   1.75135
N    -0.29718   1.10930   1.47907
C     0.63994   0.73350   0.84619
C     1.86099   0.41566   0.23439
C     2.63940   1.43121  -0.35725
C     3.90527   1.10765  -0.82891
C     4.38107  -0.20581  -0.72275
C     3.58297  -1.21465  -0.17002
C     2.30962  -0.91820   0.29772
C    -1.02908   0.55294  -1.39606
C    -0.10000  -0.52510  -1.88677
O    -0.28971  -1.72782  -1.53300
O     0.79563  -0.15586  -2.71043
C    -2.12380   0.35747  -0.68087
C    -2.68131  -0.95845  -0.18411
O    -2.23081  -1.46678   0.87747
O    -3.64131  -1.41178  -0.87323
H     2.23987   2.44490  -0.43692
H     4.52992   1.88600  -1.26014
H     5.38066  -0.44725  -1.07623
H     3.94987  -2.23162  -0.09126
H     1.64543  -1.67990   0.70551
H    -0.65502   1.57709  -1.57483
H    -2.77131   1.23548  -0.46402
26

N    -2.83157   0.88253   3.68547
C    -2.10821   1.14930   2.79811
N    -1.44428   1.60809   1.76278
N    -0.30448   1.10912   1.47502
C     0.65777   0.73586   0.87071
C     1.86559   0.41512   0.23743
C     2.64123   1.43171  -0.35674
C     3.90571   1.10747  -0.83043
C     4.38144  -0.20611  -0.72386
C     3.58399  -1.21568  -0.17136
C     2.31168  -0.91983   0.29812
C    -1.04606   0.55086  -1.41990
C    -0.10245  -0.52407  -1.88989
O    -0.28805  -1.72754  -1.53254
O     0.79926  -0.15722  -2.71033
C    -2.12671   0.35417  -0.69196
C    -2.68230  -0.95960  -0.18770
O    -2.23108  -1.46424   0.87614
O    -3.64527  -1.41671  -0.87191
H     2.24037   2.44506  -0.43599
H     4.52997   1.88584  -1.26084
H     5.38077  -0.44726  -1.07658
H     3.95025  -2.23190  -0.09197
H     1.64603  -1.68011   0.70607
H    -0.65720   1.57714  -1.57802
H    -2.77017   1.23549  -0.45976
26

N    -2.82937   0.88463   3.68299
C    -2.10904   1.14861   2.79251
N    -1.44726   1.59681   1.75135
N    -0.29718   1.10930   1.47907
C     0.63994   0.73350   0.84619
C     1.86099   0.41566   0.23439
C     2.63940   1.43121  -0.35725
C     3.90527   1.10765  -0.82891
C     4.38107  -0.20581  -0.72275
C     3.58297  -1.21465  -0.17002
C     2.30962  -0.91820   0.29772
C    -1.02908   0.55294  -1.39606
C    -0.10000  -0.52510  -1.88677
O    -0.28971  -1.72782  -1.53300
O     0.79563  -0.15586  -2.71043
C    -2.12380   0.35747  -0.68087
C    -2.68131  -0.95845  -0.18411
O    -2.23081  -1.46678   0.87747
O    -3.64131  -1.41178  -0.87323
H     2.23987   2.44490  -0.43692
H     4.52992   1.88600  -1.26014
H     5.38066  -0.44725  -1.07623
H     3.94987  -2.23162  -0.09126
H     1.64543  -1.67990   0.70551
H    -0.65502   1.57709  -1.57483
H    -2.77131   1.23548  -0.46402
26

N    -2.82717   0.88673   3.68051
C    -2.10987   1.14792   2.78691
N    -1.45024   1.58553   1.73991
N    -0.28988   1.10948   1.48313
C     0.62211   0.73114   0.82167
C     1.85638   0.41619   0.23136
C     2.63757   1.43071  -0.35776
C     3.90483   1.10782  -0.82739
C     4.38071  -0.20551  -0.72164
C     3.58195  -1.21361  -0.16868
C     2.30756  -0.91658   0.29732
C    -1.01211   0.55502  -1.37221
C    -0.09756  -0.52612  -1.88366
O    -0.29137  -1.72811  -1.53346
O     0.79200  -0.15450  -2.71054
C    -2.12088   0.36077  -0.66979
C    -2.68033  -0.95730  -0.18053
O    -2.23053  -1.46933   0.87879
O    -3.63734  -1.40685  -0.87456
H     2.23937   2.44473  -0.43786
H     4.52986   1.88616  -1.25945
H     5.38056  -0.44724  -1.07587
H     3.94950  -2.23135  -0.09056
H     1.64483  -1.67970   0.70496
H    -0.65283   1.57703  -1.57164
H    -2.77245   1.23546  -0.46829
26

N    -2.82496   0.88883   3.67803
C    -2.11070   1.14722   2.78132
N    -1.45322   1.57425   1.72847
N    -0.28258   1.10965   1.48718
C     0.60428   0.72878   0.79715
C     1.85178   0.41673   0.22832
C     2.63574   1.43021  -0.35827
C     3.90439   1.10800  -0.82587
C     4.38034  -0.20521  -0.72053
C     3.58093  -1.21257  -0.16734
C     2.30551  -0.91495   0.29692
C    -0.99514   0.55710  -1.34836
C    -0.09511  -0.52715  -1.88054
O    -0.29303  -1.72840  -1.53392
O     0.78837  -0.15315  -2.71064
C    -2.11796   0.36407  -0.65871
C    -2.67934  -0.95615  -0.17695
O    -2.23026  -1.47188   0.88012
O    -3.63338  -1.40191  -0.87589
H     2.23886   2.44456  -0.43880
H     4.52981   1.88632  -1.25875
H     5.38045  -0.44723  -1.07551
H     3.94912  -2.23107  -0.08986
H     1.64422  -1.67949   0.70441
H    -0.65064   1.57698  -1.56846
H    -2.77359   1.23544  -0.47255
26

N    -2.82276   0.89093   3.67555
C    -2.11153   1.14653   2.77572
N    -1.45620   1.56296   1.71703
N    -0.27528   1.10983   1.49123
C     0.58645   0.72641   0.77263
C     1.84718   0.41726   0.22529
C     2.63391   1.42971  -0.35878
C     3.90395   1.10817  -0.82434
C     4.37997  -0.20491  -0.71941
C     3.57991  -1.21153  -0.16600
C     2.30345  -0.91332   0.29652
C    -0.97816   0.55918  -1.32451
C    -0.09267  -0.52817  -1.87742
O    -0.29469  -1.72869  -1.53438
O     0.78473  -0.15179  -2.71074
C    -2.11505   0.36737  -0.64763
C    -2.67836  -0.95500  -0.17337
O    -2.22999  -1.47443   0.88144
O    -3.62941  -1.39698  -0.87722
H     2.23836   2.44440  -0.43973
H     4.52975   1.88648  -1.25805
H     5.38035  -0.44722  -1.07516
H     3.94875  -2.23080  -0.08915
H     1.64362  -1.67928   0.70385
H    -0.64846   1.57693  -1.56527
H    -2.77473   1.23542  -0.47681
26

N    -2.82056   0.89302   3.67308
C    -2.11236   1.14583   2.77013
N    -1.45918   1.55168   1.70559
N    -0.26798   1.11000   1.49528
C     0.56863   0.72405   0.74811
C     1.84257   0.41780   0.22226
C     2.63208   1.42921  -0.35930
C     3.90351   1.10835  -0.82282
C     4.37960  -0.20461  -0.71830
C     3.57890  -1.21049  -0.16466
C     2.30139  -0.91170   0.29611
C    -0.96119   0.56126  -1.30066
C    -0.09022  -0.52919  -1.87431
O    -0.29635  -1.72897  -1.53484
O     0.78110  -0.15044  -2.71085
C    -2.11213   0.37068  -0.63654
C    -2.67737  -0.95385  -0.16979
O    -2.22972  -1.47698   0.88276
O    -3.62545  -1.39205  -0.87854
H     2.23786   2.44423  -0.44067
H     4.52970   1.88664  -1.25736
H     5.38024  -0.44721  -1.07480
H     3.94837  -2.23052  -0.08845
H     1.64301  -1.67907   0.70330
H    -0.64627   1.57688  -1.56208
H    -2.77587   1.23540  -0.48108
26

N    -2.81836   0.89512   3.67060
C    -2.11319   1.14514   2.76453
N    -1.46216   1.54040   1.69415
N    -0.26068   1.11018   1.49934
C     0.55080   0.72169   0.72359
C     1.83797   0.41833   0.21922
C     2.63024   1.42871  -0.35981
C     3.90307   1.10852  -0.82130
C     4.37923  -0.20431  -0.71719
C     3.57788  -1.20945  -0.16332
C     2.29933  -0.91007   0.29571
C    -0.94421   0.56334  -1.27681
C    -0.08778  -0.53022  -1.87119
O    -0.29801  -1.72926  -1.53530
O     0.77747  -0.14908  -2.71095
C    -2.10921   0.37398  -0.62546
C    -2.67639  -0.95270  -0.16621
O    -2.22945  -1.47952   0.88409
O    -3.62148  -1.38712  -0.87987
H     2.23735   2.44407  -0.44160
H     4.52964   1.88680  -1.25666
H     5.38014  -0.44720  -1.07445
H     3.94799  -2.23025  -0.08775
H     1.64241  -1.67887   0.70275
H    -0.64409   1.57682  -1.55889
H    -2.77700   1.23538  -0.48534
26

N    -2.81615   0.89722   3.66812
C    -2.11401   1.14445   2.75893
N    -1.46514   1.52912   1.68271
N    -0.25339   1.11035   1.50339
C     0.53297   0.71933   0.69907
C     1.83337   0.41886   0.21619
C     2.62841   1.42821  -0.36032
C     3.90263   1.10870  -0.81978
C     4.37887  -0.20401  -0.71608
C     3.57686  -1.20841  -0.16198
C     2.29727  -0.90845   0.29531
C    -0.92724   0.56542  -1.25296
C    -0.08533  -0.53124  -1.86808
O    -0.29967  -1.72955  -1.53576
O     0.77384  -0.14772  -2.71105
C    -2.10629   0.37728  -0.61438
C    -2.67540  -0.95155  -0.16263
O    -2.22917  -1.48207   0.88541
O    -3.61752  -1.38218  -0.88120
H     2.23685   2.44390  -0.44254
H     4.52958   1.88696  -1.25596
H     5.38003  -0.44720  -1.07409
H     3.94762  -2.22997  -0.08704
H     1.64180  -1.67866   0.70219
H    -0.64190   1.57677  -1.55570
H    -2.77814   1.23536  -0.48961
26

N    -2.81395   0.89932   3.66564
C    -2.11484   1.14375   2.75334
N    -1.46812   1.51783   1.67128
N    -0.24609   1.11053   1.50744
C     0.51514   0.71697   0.67455
C     1.82877   0.41940   0.21315
C     2.62658   1.42770  -0.36083
C     3.90219   1.10887  -0.81826
C     4.37850  -0.20371  -0.71496
C     3.57584  -1.20737  -0.16064
C     2.29521  -0.90682   0.29491
C    -0.91026   0.56750  -1.22911
C    -0.08289  -0.53227  -1.86496
O    -0.30132  -1.72983  -1.53622
O     0.77020  -0.14637  -2.71115
C    -2.10338   0.38058  -0.60330
C    -2.67442  -0.95040  -0.15905
O    -2.22890  -1.48462   0.88674
O    -3.61355  -1.37725  -0.88253
H     2.23635   2.44374  -0.44347
H     4.52953   1.88712  -1.25527
H     5.37993  -0.44719  -1.07373
H     3.94724  -2.22970  -0.08634
H     1.64120  -1.67845   0.70164
H    -0.63971   1.57672  -1.55252
H    -2.77928   1.23534  -0.49387
26

N    -2.81175   0.90142   3.66316
C    -2.11567   1.14306   2.74774
N    -1.47110   1.50655   1.65984
N    -0.23879   1.11070   1.51150
C     0.49731   0.71461   0.65003
C     1.82416   0.41993   0.21012
C     2.62475   1.42720  -0.36134
C     3.90175   1.10905  -0.81674
C     4.37813  -0.20341  -0.71385
C     3.57483  -1.20634  -0.15930
C     2.29315  -0.90519   0.29451
C    -0.89329   0.56958  -1.20526
C    -0.08044  -0.53329  -1.86184
O    -0.30298  -1.73012  -1.53668
O     0.76657  -0.14501  -2.71126
C    -2.10046   0.38388  -0.59221
C    -2.67343  -0.94925  -0.15547
O    -2.22863  -1.48717   0.88806
O    -3.60959  -1.37232  -0.88385
H     2.23584   2.44357  -0.44441
H     4.52947   1.88728  -1.25457
H     5.37983  -0.44718  -1.07338
H     3.94687  -2.22942  -0.08564
H     1.64060  -1.67824   0.70109
H    -0.63753   1.57666  -1.54933
H    -2.78042   1.23533  -0.49813
26

N    -2.80954   0.90352   3.66068
C    -2.11650   1.14237   2.74214
N    -1.47408   1.49527   1.64840
N    -0.23149   1.11088   1.51555
C     0.47948   0.71224   0.62551
C     1.81956   0.42047   0.20708
C     2.62292   1.42670  -0.36185
C     3.90131   1.10922  -0.81522
C     4.37776  -0.20312  -0.71274
C     3.57381  -1.20530  -0.15796
C     2.29110  -0.90357   0.29411
C    -0.87632   0.57166  -1.18141
C    -0.07800  -0.53432  -1.85873
O    -0.30464  -1.73041  -1.53714
O     0.76294  -0.14366  -2.71136
C    -2.09754   0.38718  -0.58113
C    -2.67245  -0.94810  -0.15189
O    -2.22836  -1.48971   0.88939
O    -3.60562  -1.36739  -0.88518
H     2.23534   2.44341  -0.44534
H     4.52942   1.88744  -1.25388
H     5.37972  -0.44717  -1.07302
H     3.94649  -2.22915  -0.08494
H     1.63999  -1.67804   0.70054
H    -0.63534   1.57661  -1.54614
H    -2.78156   1.23531  -0.50240
26

N    -2.80734   0.90562   3.65821
C    -2.11733   1.14167   2.73655
N    -1.47706   1.48398   1.63696
N    -0.22419   1.11105   1.51960
C     0.46165   0.70988   0.60099
C     1.81496   0.42100   0.20405
C     2.62108   1.42620  -0.36236
C     3.90087   1.10940  -0.81370
C     4.37740  -0.20282  -0.71163
C     3.57279  -1.20426  -0.15662
C     2.28904  -0.90194   0.29370
C    -0.85934   0.57374  -1.15756
C    -0.07555  -0.53534  -1.85561
O    -0.30630  -1.73070  -1.53760
O     0.75931  -0.14230  -2.71146
C    -2.09462   0.39048  -0.57005
C    -2.67146  -0.94695  -0.14831
O    -2.22808  -1.49226   0.89071
O    -3.60166  -1.36245  -0.88651
H     2.23484   2.44324  -0.44628
H     4.52936   1.88760  -1.25318
H     5.37962  -0.44716  -1.07267
H     3.94611  -2.22888  -0.08423
H     1.63939  -1.67783   0.69998
H    -0.63316   1.57656  -1.54295
H    -2.78270   1.23529  -0.50666
26

N    -2.80514   0.90771   3.65573
C    -2.11816   1.14098   2.73095
N    -1.48004   1.47270   1.62552
N    -0.21689   1.11123   1.52366
C     0.44383   0.70752   0.57647
C     1.81036   0.42153   0.20102
C     2.61925   1.42570  -0.36288
C     3.90043   1.10957  -0.81217
C     4.37703  -0.20252  -0.71051
C     3.57177  -1.20322  -0.15528
C     2.28698  -0.90032   0.29330
C    -0.84237   0.57582  -1.13372
C    -0.07310  -0.53637  -1.85249
O    -0.30796  -1.73098  -1.53806
O     0.75567  -0.14094  -2.71156
C    -2.09171   0.39378  -0.55897
C    -2.67047  -0.94580  -0.14472
O    -2.22781  -1.49481   0.89204
O    -3.59769  -1.35752  -0.88784
H     2.23433   2.44308  -0.44721
H     4.52930   1.88776  -1.25248
H     5.37951  -0.44715  -1.07231
H     3.94574  -2.22860  -0.08353
H     1.63878  -1.67762   0.69943
H    -0.63097   1.57651  -1.53977
H    -2.78383   1.23527  -0.51093
26

N    -2.80293   0.90981   3.65325
C    -2.11899   1.14028   2.72536
N    -1.48302   1.46142   1.61408
N    -0.20959   1.11140   1.52771
C     0.42600   0.70516   0.55195
C     1.80575   0.42207   0.19798
C     2.61742   1.42520  -0.36339
C     3.89999   1.10975  -0.81065
C     4.37666  -0.20222  -0.70940
C     3.57076  -1.20218  -0.15394
C     2.28492  -0.89869   0.29290
C    -0.82539   0.57790  -1.10987
C    -0.07066  -0.53739  -1.84938
O    -0.30962  -1.73127  -1.53852
O     0.75204  -0.13959  -2.71167
C    -2.08879   0.39709  -0.54788
C    -2.66949  -0.94465  -0.14114
O    -2.22754  -1.49736   0.89336
O    -3.59373  -1.35259  -0.88917
H     2.23383   2.44291  -0.44815
H     4.52925   1.88792  -1.25179
H     5.37941  -0.44714  -1.07196
H     3.94536  -2.22833  -0.08283
H     1.63818  -1.67741   0.69888
H    -0.62878   1.57645  -1.53658
H    -2.78497   1.23525  -0.51519
26

N    -2.80073   0.91191   3.65077
C    -2.11982   1.13959   2.71976
N    -1.48600   1.45014   1.60264
N    -0.20229   1.11158   1.53176
C     0.40817   0.70280   0.52743
C     1.80115   0.42260   0.19495
C     2.61559   1.42470  -0.36390
C     3.89955   1.10992  -0.80913
C     4.37629  -0.20192  -0.70829
C     3.56974  -1.20114  -0.15260
C     2.28286  -0.89706   0.29250
C    -0.80842   0.57998  -1.08602
C    -0.06821  -0.53841  -1.84626
O    -0.31128  -1.73156  -1.53898
O     0.74841  -0.13823  -2.71177
C    -2.08587   0.40039  -0.53680
C    -2.66850  -0.94350  -0.13756
O    -2.22727  -1.49991   0.89468
O    -3.58977  -1.34766  -0.89049
H     2.23333   2.44274  -0.44908
H     4.52919   1.88808  -1.25109
H     5.37930  -0.44713  -1.07160
H     3.94499  -2.22805  -0.08212
H     1.63757  -1.67720   0.69832
H    -0.62660   1.57640  -1.53339
H    -2.78611   1.23523  -0.51945
26

N    -2.79853   0.91401   3.64829
C    -2.12064   1.13890   2.71416
N    -1.48898   1.43885   1.59121
N    -0.19499   1.11176   1.53582
C     0.39034   0.70043   0.50291
C     1.79655   0.42314   0.19191
C     2.61376   1.42420  -0.36441
C     3.89910   1.11010  -0.80761
C     4.37593  -0.20162  -0.70718
C     3.56872  -1.20010  -0.15126
C     2.28080  -0.89544   0.29210
C    -0.79144   0.58206  -1.06217
C    -0.06577  -0.53944  -1.84314
O    -0.31294  -1.73184  -1.53944
O     0.74478  -0.13687  -2.71187
C    -2.08296   0.40369  -0.52572
C    -2.66752  -0.94236  -0.13398
O    -2.22699  -1.50245   0.89601
O    -3.58580  -1.34272  -0.89182
H     2.23282   2.44258  -0.45002
H     4.52914   1.88824  -1.25039
H     5.37920  -0.44713  -1.07124
H     3.94461  -2.22778  -0.08142
H     1.63697  -1.67700   0.69777
H    -0.62441   1.57635  -1.53020
H    -2.78725   1.23521  -0.52372
26

N    -2.79632   0.91611   3.64581
C    -2.12147   1.13820   2.70857
N    -1.49196   1.42757   1.57977
N    -0.18769   1.11193   1.53987
C     0.37251   0.69807   0.47839
C     1.79194   0.42367   0.18888
C     2.61192   1.42370  -0.36492
C     3.89866   1.11027  -0.80609
C     4.37556  -0.20132  -0.70606
C     3.56770  -1.19906  -0.14992
C     2.27875  -0.89381   0.29170
C    -0.77447   0.58414  -1.03832
C    -0.06332  -0.54046  -1.84003
O    -0.31459  -1.73213  -1.53990
O     0.74114  -0.13552  -2.71197
C    -2.08004   0.40699  -0.51464
C    -2.66653  -0.94121  -0.13040
O    -2.22672  -1.50500   0.89733
O    -3.58184  -1.33779  -0.89315
H     2.23232   2.44241  -0.45095
H     4.52908   1.88840  -1.24970
H     5.37909  -0.44712  -1.07089
H     3.94424  -2.22750  -0.08072
H     1.63637  -1.67679   0.69722
H    -0.62222   1.57629  -1.52702
H    -2.78839   1.23519  -0.52798
26

N    -2.79412   0.91821   3.64334
C    -2.12230   1.13751   2.70297
N    -1.49494   1.41629   1.56833
N    -0.18039   1.11211   1.54392
C     0.35468   0.69571   0.45387
C     1.78734   0.42420   0.18585
C     2.61009   1.42319  -0.36543
C     3.89822   1.11045  -0.80457
C     4.37519  -0.20102  -0.70495
C     3.56669  -1.19803  -0.14858
C     2.27669  -0.89219   0.29129
C    -0.75749   0.58622  -1.01447
C    -0.06088  -0.54149  -1.83691
O    -0.31625  -1.73242  -1.54036
O     0.73751  -0.13416  -2.71208
C    -2.07712   0.41029  -0.50355
C    -2.66555  -0.94006  -0.12682
O    -2.22645  -1.50755   0.89866
O    -3.57787  -1.33286  -0.89448
H     2.23182   2.44225  -0.45189
H     4.52902   1.88856  -1.24900
H     5.37899  -0.44711  -1.07053
H     3.94386  -2.22723  -0.08002
H     1.63576  -1.67658   0.69666
H    -0.62004   1.57624  -1.52383
H    -2.78953   1.23518  -0.53225
26

N    -2.79192   0.92031   3.64086
C    -2.12313   1.13682   2.69737
N    -1.49792   1.40500   1.55689
N    -0.17309   1.11228   1.54798
C     0.33686   0.69335   0.42935
C     1.78274   0.42474   0.18281
C     2.60826   1.42269  -0.36594
C     3.89778   1.11062  -0.80305
C     4.37482  -0.20072  -0.70384
C     3.56567  -1.19699  -0.14724
C     2.27463  -0.89056   0.29089
C    -0.74052   0.58830  -0.99062
C    -0.05843  -0.54251  -1.83379
O    -0.31791  -1.73270  -1.54082
O     0.73388  -0.13281  -2.71218
C    -2.07420   0.41359  -0.49247
C    -2.66456  -0.93891  -0.12324
O    -2.22618  -1.51010   0.89998
O    -3.57391  -1.32793  -0.89580
H     2.23131   2.44208  -0.45282
H     4.52897   1.88872  -1.24831
H     5.37889  -0.44710  -1.07018
H     3.94348  -2.22695  -0.07931
H     1.63516  -1.67637   0.69611
H    -0.61785   1.57619  -1.52064
H    -2.79066   1.23516  -0.53651
26

N    -2.78972   0.92241   3.63838
C    -2.12396   1.13612   2.69178
N    -1.50090   1.39372   1.54545
N    -0.16579   1.11246   1.55203
C     0.31903   0.69099   0.40483
C     1.77814   0.42527   0.17978
C     2.60643   1.42219  -0.36646
C     3.89734   1.11080  -0.80153
C     4.37445  -0.20042  -0.70273
C     3.56465  -1.19595  -0.14590
C     2.27257  -0.88894   0.29049
C    -0.72355   0.59038  -0.96677
C    -0.05599  -0.54354  -1.83068
O    -0.31957  -1.73299  -1.54128
O     0.73025  -0.13145  -2.71228
C    -2.07129   0.41689  -0.48139
C    -2.66358  -0.93776  -0.11966
O    -2.22591  -1.51264   0.90131
O    -3.56994  -1.32299  -0.89713
H     2.23081   2.44192  -0.45376
H     4.52891   1.88888  -1.24761
H     5.37878  -0.44709  -1.06982
H     3.94311  -2.22668  -0.07861
H     1.63455  -1.67617   0.69556
H    -0.61567   1.57614  -1.51745
H    -2.79180   1.23514  -0.54077
