12

N -2.023030712 -2.211953474 0.141848644
C -1.443289534 -0.465089681 1.913302782
O -2.250526016 -0.504488618 4.052841460
C 0.298623385 1.667925568 1.052193780
O 2.724675516 0.777017475 0.124294903
C 3.012034111 0.321001446 -2.266217035
O 1.097456557 0.488411112 -3.779390795
H -1.526627590 -1.980023947 -1.676731956
H -3.229139492 -3.597199106 0.620699216
H -0.626450805 2.813002637 -0.391003289
H 0.748302670 2.807847616 2.694952807
H 3.151011335 -0.119164693 -4.573866410

