10

C -2.623210696 0.153181067 0.491851094
N 0.019925953 -0.255374546 -0.026209160
N 1.993132618 0.829508359 1.169522170
C 4.189849249 0.040030125 0.189088831
N 3.378267626 -1.599717169 -1.691440356
N 0.925885696 -1.722166925 -1.760043802
H -3.062728660 -0.378056530 2.433438900
H -3.673116548 -1.045183142 -0.803077176
H -3.121074729 2.125814088 0.165003383
H 1.703055954 2.046011199 2.600774092

