10

C -2.782614670 0.034398911 0.403361172
N -0.081014279 -0.125607072 0.029201069
N 1.615439351 1.434453571 1.106029375
C 3.933516726 0.690144440 0.138753084
N 3.408935386 -1.276400658 -1.513896013
N 0.999463751 -1.606916988 -1.615811098
H -3.204081308 -0.137279211 2.409305056
H -3.640887325 -1.517225654 -0.631826131
H -3.486939955 1.833346354 -0.305149932
H 3.156069962 0.724576913 2.582131509

