14

O 3.618187859 -0.143870368 5.400770235
C 3.683904711 1.314846058 3.170439269
C 1.437448636 0.999071028 1.582561688
C -0.435727702 0.743130339 0.331137710
C -2.692133959 0.399438781 -1.171413257
C -2.805657348 -1.937688300 -3.913036762
N -3.590490918 -2.268701779 -1.344174306
H 2.097531559 0.251821483 6.305438747
H 3.925902282 3.330869364 3.586418691
H 5.353684100 0.700178773 2.128864597
H -4.257419374 1.639011643 -0.682626543
H -0.776732920 -2.505166800 -4.039355656
H -2.288239148 0.970985389 -3.232968776
H -2.333906042 -3.308796720 -0.323152125

