19

C 4.724231275 -1.577863753 0.055389951
O 2.816773926 -0.179462244 -1.198904898
C 1.499944373 1.384959943 0.299119911
C -0.453064144 2.883157567 -1.153536901
C -2.756176834 2.351092081 0.501389468
C -2.003590457 -0.277435454 1.387259664
C -2.424332990 -2.447151924 -0.391759633
H 3.867679234 -2.964237514 1.330712123
H 5.947033914 -0.321325761 1.141248409
H 5.804055894 -2.565612298 -1.390762744
H 0.550123652 0.408785499 2.106131116
H 0.072937306 4.861731150 -1.410634121
H -0.726120630 2.058865759 -3.032921046
H -4.579247141 2.460325829 -0.463157228
H -2.821092215 3.645256202 2.106525786
H -2.504394714 -0.743011569 3.335158721
H -4.443810734 -2.731758700 -0.747862912
H -1.511871739 -2.139497085 -2.219392116
H -1.681982711 -4.207674299 0.387036867

