11

C -0.954877364 -1.166545530 1.630908498
O 1.407878353 -1.870215307 2.256583608
H 2.543510722 -1.414459551 0.920987374
C -3.176046994 -1.387944237 2.793131940
H -3.783864684 -2.185495116 4.571176215
C -4.568647138 -0.082106937 0.659138097
H -5.926484352 -1.240877605 -0.377110401
H -5.447951538 1.726316782 1.124549768
C -1.949780941 0.166590772 -0.674578237
H -1.292065070 2.105251052 -0.943624347
H -1.781546201 -0.865871603 -2.454960707

