16

C 2.817128987 0.993655961 -0.797375267
C 0.780429281 -0.731021749 0.252304062
O 1.837147179 -3.000389619 1.178352255
C -1.544273607 -0.983057375 -1.508971444
C -2.886622663 1.044775547 0.100165576
C -0.937345505 0.553212825 2.213364646
H 2.022169356 2.781886332 -1.450911876
H 3.761442309 0.107982485 -2.410609988
H 4.228239489 1.394134280 0.653082017
H 2.942336363 -3.688964263 -0.084231065
H -1.265648229 -0.606978293 -3.518211370
H -2.408835478 -2.838617894 -1.271976261
H -4.866060607 0.717800828 0.557172161
H -2.706808816 2.931334358 -0.710164218
H -1.610645286 -0.845694997 3.567417041
H -0.162652772 2.169941593 3.230593731

