16

C -4.851893746 -0.820808004 0.066690211
C -2.156972610 0.017959863 0.157169467
C -1.216931430 2.447091529 0.554875104
C 1.379274929 2.374370502 0.204660533
C 2.019724259 -0.128395231 -0.362006689
C 4.523191836 -1.429542721 -0.181943115
N -0.270933663 -1.627980518 -0.320484474
H -5.021742575 -2.770938052 0.707035266
H -6.030088549 0.369862658 1.267259826
H -5.610524714 -0.720649174 -1.852578814
H -2.341319627 4.100242367 0.976573498
H 2.692868628 3.928028678 0.367253306
H 4.504988009 -3.203753157 -1.228248546
H 6.024797146 -0.235445910 -0.932847012
H 4.964349004 -1.865759163 1.786400813
H 0.836181606 -0.915865253 -2.319588835

