15

C -2.060266122 1.856046537 0.275926281
C -0.998889236 -0.600988031 1.349604755
C -2.862614392 -2.739376470 0.962910967
O -2.352340812 -4.812726810 0.208993089
C 1.593556001 -1.290144409 0.404018343
C 3.050469251 0.212855047 -0.882913985
C 4.504992393 1.714364113 -2.174057700
H -3.936047126 2.242939540 1.042792431
H -0.836337376 3.443054940 0.747532626
H -2.202882562 1.757008977 -1.779570304
H -0.905817522 -0.398707003 3.419419889
H 4.435521186 1.750004726 -4.220905462
H -4.839809760 -2.251364922 1.479193820
H 2.251835388 -3.186951734 0.823882815
H 5.834145379 2.961160454 -1.238912705

