15

C -1.595403340 2.535557678 1.177318878
C -1.139483386 -0.267470494 1.332216194
C -1.415847025 -2.040748407 -0.837635826
O 0.334915141 -3.608132022 -0.174718767
C 1.571115843 -1.538622551 1.441564252
C 3.451939468 -0.169804402 -0.130163580
C 2.680308148 0.385043490 -2.396503447
H -3.561407750 2.917385761 0.679860721
H -1.219369044 3.418344238 3.000869855
H -0.369345629 3.402298782 -0.227935231
H -2.219825676 -1.106979964 2.885462145
H 0.649071678 -0.334109286 -2.955761242
H -2.780225319 -2.472777933 -2.301320418
H 2.190839904 -2.397696658 3.197383079
H 3.527538245 1.501787933 -3.884970776

