16

C -4.211946781 0.065867273 -2.811118240
C -1.815490520 -0.038899974 -1.266286503
C -2.116021357 -1.173080373 1.332823420
H -2.900557390 -3.082826237 1.218742411
H -3.407833090 -0.036429082 2.474724276
H -0.312646986 -1.279916852 2.321156136
C 0.070072972 2.075335025 -1.594512694
H 1.175424446 2.605202419 0.043926457
H -0.368171354 3.607774920 -2.877325022
C 0.621495868 -0.471169024 -2.668361375
O 2.605493437 -1.802968401 -1.551292201
H 2.224206364 -3.573653459 -1.627550587
H 0.496765912 -0.688842759 -4.709697694
H -5.620405298 1.275389579 -1.904178391
H -5.039724340 -1.815855899 -3.022835105
H -3.863789630 0.821355325 -4.699648773

