12

O 1.738626572 4.574382853 1.748997219
C 0.748825558 2.842087658 0.467316175
N 0.792113930 0.370034151 0.832184325
C -0.595772084 -1.354535882 -0.738937244
C -0.765637544 -3.905857012 0.508042796
O 0.194711484 -4.377774991 2.504627963
C -0.405489665 4.670152643 -1.025829795
H 1.579131514 -0.330964120 2.425177187
H 0.295876044 -1.627037866 -2.591098486
H -2.518335016 -0.670846935 -1.096995407
H -1.833333107 -5.347522704 -0.561920211
H 0.853617013 5.275292799 -2.551484800

