14

C 2.768097208 0.695347140 0.977637546
C 0.570812714 0.902597788 -0.905071364
C -0.638891307 -1.685486717 -1.487870327
C -2.513132884 -1.885997411 0.597781185
O -3.092337361 0.407824800 1.313452064
C -1.659007931 2.183803093 0.306348378
H 2.142135577 -0.196399935 2.732929669
H 3.517538117 2.562088507 1.428281556
H 4.302774917 -0.446496438 0.197331570
H 1.207096728 1.833180851 -2.627289746
H 0.714623045 -3.234607547 -1.597369865
H -1.653213766 -1.574990387 -3.309541065
H -3.870749699 -3.338536625 1.037327362
H -1.720984013 3.979087471 1.273450190

