14

C 2.882992500 0.940495017 0.874716258
C 0.619198887 0.881086979 -0.901413421
C -0.619652894 -1.751442789 -1.280890911
C -2.951132830 -1.587789728 0.378146254
O -2.742294812 -0.949176305 2.584662891
C -1.732731854 2.276609282 -0.208706512
H 2.355103308 0.182866586 2.718297047
H 3.545079307 2.877027673 1.137968884
H 4.459668295 -0.170309148 0.136336937
H 1.149456756 1.586596442 -2.777664192
H 0.604234694 -3.287937432 -0.642349544
H -1.147601252 -2.065776771 -3.244247437
H -4.798045697 -2.161303693 -0.394450565
H -1.579663660 3.335662787 1.578112951

