8

N 2.722861549 -0.825500836 0.122634571
C 4.911933066 -1.098919413 0.001238980
C 0.187194531 -0.346124731 0.256011459
C -0.942481346 2.158477758 0.178277783
O -3.183294566 2.536866880 0.304099169
N -2.782343664 -3.827423929 0.641874164
N -1.356247879 -2.292339626 0.465096011
H 0.468156045 3.685292242 -0.012639943

