8

N 3.044099740 -0.547085313 1.227795088
C 3.788466186 -0.860936886 -0.905192722
C 0.359215110 -0.306717365 0.494787218
C -0.917164383 2.054995033 -0.075402397
O -3.171759564 2.237733836 -0.345784826
N -2.389967640 -3.944250087 1.017832096
N -1.073759335 -2.318882833 0.791804298
H 0.386649549 3.675473867 -0.249246561

