13

O 3.047845668 0.278755787 1.357056191
C 1.276263558 0.255456314 -0.563371199
C 0.476641274 -2.606138835 -1.193610660
C -2.270606831 -2.376876714 -1.355071808
N -0.924544500 3.028576169 2.216474663
C -0.906281167 1.995323378 0.069135082
H 2.328804764 1.308859652 2.697117658
H 2.104834481 0.968694644 -2.322373970
H 1.258311046 -3.717978419 0.360081852
H 1.372747229 -3.121378143 -2.974505114
H -2.996585486 -2.569567513 0.599760162
H -2.422013918 4.199784466 2.467889911
H -2.327694286 2.294513794 -1.399068261

