8

C 2.622333127 -0.878555880 1.078925903
C 0.274775684 -2.174969644 0.124001523
C -0.285038238 -2.370809332 -2.275016242
O -0.777542988 -2.542605865 -4.402775312
H -1.070696977 -3.012122569 1.417499402
H 2.143537791 0.715068681 2.298630865
H 3.796280109 -2.179739898 2.167398475
H 3.762079430 -0.157925603 -0.477535492

