12

C 3.053130061 -1.074487314 0.223580792
C 0.252406882 -0.627048979 0.521367066
C -2.631321855 2.186145730 0.399045227
O -4.188360296 0.415100680 0.054778020
C -1.278334943 -1.209731857 -1.512198397
O -1.596155546 -1.651156138 -3.624388939
H 4.077722879 0.135584788 1.539865310
H 3.579761639 -3.029093198 0.634578631
H 3.688836272 -0.624921280 -1.683791141
H -0.569273646 -0.935669790 2.359643054
H -1.961760047 3.353006750 -1.181533496
H -2.426651382 3.062268700 2.269057653

