13

C -4.195351244 0.385791954 0.307148601
O -1.866681992 -0.978113852 0.425706560
C 0.036215713 0.019535705 -0.877918721
O -0.090035737 1.873447721 -2.178550921
C 2.421306386 -1.559414886 -0.554744070
C 3.699663080 0.841558255 1.570233833
O 5.298656050 -0.407522481 0.208915535
H -4.840228523 0.547952924 -1.641778013
H -5.529643245 -0.703543959 1.423842305
H -3.955954068 2.270222650 1.102965619
H 3.128856696 -1.991175505 -2.450399267
H 2.161617935 -3.168223452 0.671000589
H 3.760011767 2.900746665 1.081259771

