14

C -3.075417585 -0.455153331 1.720824218
C 2.102676376 -2.111300103 -4.663234733
C -1.397129099 1.701627718 0.836610063
N 1.294225518 1.132330924 1.022543146
C 2.692518726 -0.186147037 -0.616219601
O 4.860227778 -0.775862965 -0.449155567
O 1.157187153 -0.839793950 -2.779343667
H -2.662047346 -0.964214519 3.676633252
H -2.800878363 -2.120807013 0.538928537
H -5.059823165 0.093379267 1.603518032
H 4.120392800 -2.474622363 -4.174333521
H -1.715663754 3.386596632 1.981180838
H -1.828091252 2.203081342 -1.111009257
H 2.211649757 1.580819058 2.625401078

