14

C -2.959595439 -1.070829938 0.212411282
C -0.025320006 -1.990612366 -1.744489900
C -0.541221984 1.631223534 0.203137678
N 2.171035555 1.611964239 0.376861902
C 3.567627557 -0.553356898 0.326405590
O 5.744231662 -0.796716206 0.853025321
O 2.030660690 -2.536902086 -0.349558666
H -2.713843209 -2.608574787 1.548248872
H -4.116063759 -1.660306513 -1.371861590
H -4.065227273 0.399014802 1.170684805
H 0.393266690 -0.484887831 -3.116064800
H -1.262032862 2.377930519 1.975067309
H -1.230525553 2.742860728 -1.381509662
H 2.982997089 3.005820767 1.386360703

