13

C 4.072255183 -0.486967550 -0.006758851
C 4.492861127 1.326814129 -1.448211892
C 1.277662749 1.607130093 -0.376218204
N -0.277604755 -0.025511643 1.209769217
C -1.664280588 -1.989797214 -0.112308011
C -2.970466996 0.307871648 0.803211120
H 3.919603088 -2.060244957 1.250733226
H 1.439306218 3.426547596 0.556421713
H 0.467421924 1.813721548 -2.264344430
H -1.862776192 -3.763029187 0.890725262
H -1.370017898 -2.160880110 -2.136621262
H -4.125019001 0.250052038 2.491566762
H -3.554427744 1.677723798 -0.610437002

