13

O 3.376588699 0.820575794 2.003603383
C 1.859620576 0.555725500 -0.109305501
C 0.609814129 -2.047597039 -0.526823896
C -1.965304152 -0.747146120 -0.228511333
N -0.699265921 1.709939887 0.204758307
C -2.302171040 1.217453656 -2.210263567
H 2.865489459 -0.367477881 3.276688516
H 2.825068577 1.409844537 -1.709704691
H 1.102352743 -3.364668439 0.986730247
H 0.917054287 -2.921422839 -2.360662126
H -3.382777231 -1.408134637 1.100896671
H -1.103649360 2.947356288 1.599063457
H -4.077989765 2.209694004 -1.795639439

