13

C 4.582608113 -1.166946624 0.832692869
O 1.998635217 -1.127955735 0.185999450
C 1.322590496 0.713949679 -1.468370640
C -0.881352561 0.727791980 -2.659721245
C -2.878631408 -1.256714662 -2.415590229
H -4.590589466 -0.486663777 -1.552537568
H -3.416714557 -1.994236804 -4.268068604
H -2.230292245 -2.828229975 -1.255466234
H -1.243898540 2.327465912 -3.886044991
H 2.701448174 2.216213559 -1.728743323
H 5.762153844 -1.613335216 -0.807815758
H 4.827767650 -2.632566050 2.254450485
H 5.186607725 0.647280992 1.626332167

