17

C 4.161531760 -1.462198492 1.052560406
O 1.884282202 -1.371869376 -0.376435258
C 1.047719098 0.885606788 -0.968406631
C -1.579492262 1.178998769 -1.551833588
C -3.154609242 -1.096968044 -2.222941645
C -1.695565118 1.788305242 1.565124845
O -2.468298338 0.059018415 2.973467843
H 5.626006522 -0.308059109 0.162223634
H 4.748896415 -3.428495261 1.099296905
H 3.782536849 -0.792636836 2.967286266
H 2.442181359 2.348476851 -1.361062221
H 0.552874546 2.293543741 1.854701298
H -1.953440622 2.872424962 -2.648351462
H -5.072086410 -0.507333884 -2.690154093
H -2.377378020 -2.122598511 -3.834049082
H -3.250340858 -2.348243999 -0.588939156
H -2.355351259 3.763931513 1.620470860

