16

C 3.443478030 -0.699336578 -3.047236893
N 3.591402598 1.019777078 -0.970806848
C 2.983565708 1.982745077 0.893494486
O -0.392457396 1.244998417 2.773759356
C -2.349807577 1.442443352 1.050042781
C -3.396316797 -1.189960219 0.473646625
O -1.357088316 -2.886897052 0.105256063
H 1.799643107 -1.916824476 -2.780272354
H 3.274682874 0.393117741 -4.782153346
H 5.180068838 -1.799220640 -3.114322662
H 2.109433394 2.924476183 2.540231575
H -3.892758621 2.651324435 1.748610562
H -1.713300500 2.295019107 -0.760228430
H -4.568579656 -1.835802279 2.057741070
H -4.549218429 -1.196460405 -1.238791045
H -0.231436951 -2.430072485 1.476368358

