11

O -3.013592814 -1.131034704 -0.439424951
C -1.827299362 1.224245785 -0.105209160
C 0.884645144 0.950658947 0.753235649
C 3.199352873 -2.543339456 -1.020818034
O 2.295921319 -0.291989917 -1.235220351
H -2.375372529 -1.901686220 -1.952289571
H -1.897978086 2.365803107 -1.831541703
H -2.879070770 2.226168958 1.359827701
H 1.763762310 2.791738456 1.049172883
H 1.017980478 -0.205450079 2.460996870
H 2.776461986 -3.193853278 0.956705126

