11

O -3.369384288 -0.800400265 -0.641164156
C -1.868540632 1.306874646 -0.117150907
C 0.855620481 0.590221392 0.415066249
C 2.432035911 -2.553569432 0.045852296
O 1.905384716 -0.659321873 -1.710797425
H -2.509256488 -1.809841127 -1.885939661
H -1.848202662 2.658911308 -1.691808116
H -2.672333881 2.245033338 1.534125702
H 2.077687204 2.103404053 1.091122403
H 0.711201205 -0.972675579 1.948132192
H 4.215966833 -1.925036319 1.001206078

