10

C -1.902751780 -0.430964175 -0.291769235
C 0.745067440 -1.348529538 0.480657490
O 2.268971065 -2.359297952 -1.410102012
C 0.104778964 1.336163076 0.443470647
N 0.983937307 3.520086261 0.684122866
H -2.353997289 -0.541996469 -2.288271046
H -0.362376962 4.844809862 0.298687333
H -3.452007196 -0.828254186 0.987206855
H 0.855844206 -2.296884229 2.302521868
H 3.872495183 -1.513572398 -1.362822123

