17

C -5.609997273 0.966330710 0.246130138
C -4.102607681 -0.184832960 -1.659181597
C -1.317959118 0.006647830 -0.476844268
C 0.657390649 -1.200472823 -2.414700735
C 3.018571033 -0.970501638 -1.210666629
C 4.757691579 -0.512028153 0.304409745
C 6.656911498 -0.049484274 1.890306667
H 7.692179550 1.712773928 1.809013560
H 7.218970869 -1.434420595 3.286797323
H 0.089791414 -3.157108178 -2.748710224
H 0.525482115 -0.142496934 -4.182245936
H -1.240474488 -1.027075824 1.295940275
H -0.825661803 1.974375820 -0.154858955
H -4.473147390 -2.189664003 -1.974326593
H -4.052397752 0.823282638 -3.458296885
H -6.305670976 -0.114268904 1.836934509
H -5.871621445 2.994114613 0.299324492

