19

C -3.948588123 1.344534128 1.351625855
C -3.619256651 0.128761025 -1.071391621
C -0.639313737 -0.340381532 -1.057557919
C 0.917390243 -1.630773930 -3.202969771
C 3.355553590 -1.414095193 -1.939357438
C 4.259142181 -0.598911997 0.057892081
C 4.724606140 0.430143769 2.359147454
H -4.489824582 0.268518196 3.003406169
H -0.424000099 1.652650099 3.116934452
H -4.016627731 3.381599818 1.509457935
H -4.570601530 -1.692004949 -1.224178624
H -4.092587125 1.329156010 -2.676896058
H -0.285914126 -1.438887511 0.632340647
H 0.187759144 1.513433314 -0.798311362
H 0.332284415 -3.579468732 -3.531116536
H 0.816147712 -0.588616051 -4.977962175
H 1.102745882 1.457513956 3.239919699
H 5.447512762 2.339376214 2.511253759
H 4.924613865 -0.769960028 4.005673159

