14

O -2.364837193 -0.775811300 2.995663470
C -2.089536864 0.267241799 0.742824846
C -0.278859231 2.468367350 0.457797057
O 2.231945265 1.913494854 1.223860734
C 3.339471738 -0.092942835 0.151086174
N 2.375161334 -1.878742299 -1.097463039
C -0.304440510 -2.074700946 -1.375197013
H -1.435424928 -2.056919171 0.915677244
H -3.794006674 0.544455211 -0.428921305
H -0.259622272 3.187743851 -1.481660971
H -0.949855700 3.945795146 1.729087707
H 5.363929514 -0.061913475 0.492287507
H -1.034123425 -1.354572353 -3.157835817
H -0.863140873 -4.078151261 -1.285476974

