13

N -3.475715549 1.861681625 -0.883282160
C -1.204452435 0.833089995 -0.218502191
C -0.680094366 -1.812313003 -1.073514766
O -2.130897716 -3.186492266 -2.196251513
N 1.709428791 -2.325894605 -0.302936307
C 2.844246935 -0.270855636 1.087872395
C 0.807342968 1.705188813 1.035164948
H -4.757496559 0.585219835 -1.479343845
H -4.160804008 3.292763282 0.154282702
H 3.320349863 -0.847876063 3.018432705
H 2.505657883 -4.025464544 -0.566639500
H 4.583170930 0.385249697 0.176350527
H 1.034624203 3.541749704 1.896690427

