11

N 1.841154626 -2.048414175 -1.155624198
C 0.052347606 -0.346895229 -0.205442086
C 0.287765264 -2.774941834 1.083257835
O -1.960255692 0.600910155 -1.642817438
C -1.425622957 2.986217504 -0.545267359
O 0.653646818 2.010874860 0.852707355
H 3.636311505 -1.549410978 -0.720209775
H -1.045116661 -4.286447230 0.727810386
H 1.164725251 -2.759902051 2.935839881
H -0.863310042 4.411399814 -1.933857107
H -2.950604274 3.666894397 0.674574968

