8

O -2.536516298 -1.168896784 2.378250941
C -2.401723910 -0.801890277 0.165552405
C 0.128630539 -0.346220295 -1.129976419
C 0.535453973 -1.247666162 -3.368290099
C 2.186079949 1.092817393 0.256624713
O 1.791350006 2.217237450 2.165631619
H -4.068692690 -0.756247608 -1.074409363
H 4.055501438 1.048146800 -0.647646049

