12

N -4.101143389 0.750202204 -0.232449485
C -1.513533356 0.076803156 -0.083730155
C 0.429263894 1.877188340 -0.200433442
N 2.674289464 0.795421555 -0.101461966
C 2.249079033 -1.945364537 -0.006133616
C -0.525201566 -2.350900803 0.019221727
H -4.679887680 1.778144600 1.269095619
H -5.135059795 -0.854999631 -0.291077671
H 0.265062737 3.916003689 -0.351851376
H 4.332996268 1.714897243 -0.168045880
H 3.133126041 -2.747444561 1.681528648
H 3.119817267 -2.836372332 -1.656262518

