14

C -3.166467764 -1.231663640 0.079633078
C -1.510268552 0.998337001 -0.530127648
O -0.301740318 2.174422039 1.634676687
C 2.027713643 1.923580247 0.328348909
C 2.945244198 -0.766940793 0.421261867
C 0.956100999 0.801018225 -2.047318984
H -4.699546142 -0.659146337 1.333739654
H -2.107612416 -2.735047769 1.012240416
H -3.985981457 -1.984502560 -1.656749009
H -2.593877177 2.453697010 -1.534638139
H 3.368466694 3.460965310 0.519129725
H 4.916751886 -1.003131010 -0.081159202
H 2.264597804 -1.844500292 2.025649079
H 1.977111917 -1.611610406 -1.470176255

