10

C 1.029003250 1.215827471 1.732682438
H -0.098685731 1.009566170 3.465889030
C -0.716660246 2.157669485 -0.224813536
H 0.071011524 2.934021360 -1.957741204
H -2.609973222 2.848142208 0.191841538
N -0.670272005 -0.639730875 -0.256124484
C -2.709453035 -2.073026819 0.632513652
O -4.458010136 -1.225283774 1.774736025
H -2.492000020 -4.094698364 0.179738995
H 0.512107314 -1.513252637 -1.463623535

