10

C -1.500167210 -0.229150023 -1.965267454
H -0.308639349 -1.340054003 -3.219934844
H -3.262228672 0.227235957 -2.921709473
C -1.778310877 -1.280407274 0.721934982
H -0.765698941 -3.039898047 1.109151146
H -3.714802942 -1.447144443 1.425133707
O -0.506789832 0.864486510 1.787004675
C -0.183037776 1.996268468 -0.655820778
H 1.813866773 2.261402561 -1.117528094
H -1.153775422 3.816195479 -0.787789877

