12

O 4.414273767 -2.770990794 1.051414797
C 2.763813407 -1.332554191 1.271318277
C 0.375536693 -0.059935461 -1.254116743
C -1.603025286 -1.137096454 0.470023075
O -2.341412242 1.239204139 1.350933176
C -0.510078504 2.500265285 -0.264990758
H 0.689077161 -1.756918950 2.450757446
H 1.347792942 -0.628425872 -2.962143206
H -1.863389541 -0.620196530 -2.126396218
H -2.896968196 -2.725952989 0.441818686
H 0.868426891 3.556921937 0.832095640
H -1.474164730 3.741623088 -1.608947234

