12

N -4.282072023 -1.889233530 -2.196363857
C -2.808585270 -0.795965664 -0.980771468
C -1.810382269 2.228749700 -0.025949379
C -0.587119766 -0.079923094 0.629894227
C 2.262289844 -0.895790087 -0.495584040
N 3.681472520 0.007193602 1.418211489
H -1.494829074 3.049627680 -1.873604210
H -2.832982013 3.357853009 1.344015984
H -0.849138003 -0.714631511 2.564181303
H 2.382443507 0.159287774 -2.267572744
H 2.122865038 -2.930087782 -0.858559176
H 4.012502686 -1.395800244 2.692968991

