11

C 3.891761583 -0.868265206 1.147239370
C 1.446036836 -0.445912286 0.817125475
N 0.152746997 1.772627148 1.524880519
C -2.143479815 1.455581446 0.917659926
H -3.577630935 2.881020854 1.253039126
C -2.619302800 -1.064262233 -0.279229258
H -3.339299262 -0.910103516 -2.213798451
H -3.932270206 -2.230876757 0.816907117
O -0.178153666 -2.146129135 -0.270726492
H 5.030880705 0.576461313 2.023509947
H 4.740593185 -2.625420901 0.551671036

