13

C 3.498171542 -0.353742274 0.015004766
C 1.158127840 -0.635033866 1.168684322
N 0.021860862 1.493494417 1.856710171
C -1.864272440 1.563102101 0.179619659
C -2.710997583 -1.102523045 -0.398699482
O -0.409974344 -2.430912884 0.154398202
H 4.774314573 1.053699004 0.771096112
H 1.856560978 0.972341645 -1.960359835
H 4.308545007 -1.925161267 -1.014769587
H -3.133291449 3.169154029 0.076683253
H 0.081764330 1.754251715 -2.120108816
H -3.254457854 -1.440912750 -2.353491939
H -4.222133066 -1.736417614 0.865862646

