14

C 3.101959355 -0.908050706 -1.789954009
O 0.826073234 0.472226080 -1.757173081
C -1.104282456 -0.673741353 -0.374157477
C -0.986581261 -0.434522624 2.438154182
C -3.276099980 1.131661035 0.136568561
O -2.606034484 3.563788465 -0.206140434
H 2.818818402 -2.786243549 -2.614322559
H 3.876592165 -1.122924812 0.117693674
H 4.432817082 0.143299671 -2.954509676
H -1.622820281 -2.521401758 -1.122351885
H 0.388807276 0.889376470 3.177448849
H -1.426764654 -2.074658786 3.583043583
H -3.378042578 0.595879440 2.478287279
H -0.965084662 3.640554412 -1.023027218

