16

C -4.141552461 -1.453341327 0.868869389
O -2.105384675 0.180603847 1.449438098
C -1.390873558 1.675279739 -0.524560439
C 1.068735044 2.961683303 0.124621296
C 1.962565353 0.730477413 -1.348766926
C 3.054320267 -1.511771338 -0.001274885
H -4.845884284 -2.206263754 2.650559418
H -3.505848970 -3.019327301 -0.326515421
H -5.637738225 -0.425284112 -0.111608699
H -0.392497061 0.265701597 -2.247199436
H 1.527719152 2.922250388 2.125458158
H 1.353888575 4.807269942 -0.718124311
H 2.702916737 1.151716320 -3.218063524
H 3.238453839 -3.136002129 -1.258020747
H 1.843933941 -2.040309556 1.585198593
H 4.922902302 -1.075243375 0.760550080

