8

C -3.023965161 0.756507729 0.644647432
C -0.270215869 0.046007801 0.767035998
C 1.550967149 1.545205374 0.030203625
O 3.163425608 2.876011341 -0.624248764
H 0.323485491 -1.773344374 1.489520568
H -3.879696759 0.736327948 2.521741418
H -4.076542254 -0.557183783 -0.547918040
H -3.271100577 2.646024056 -0.136722989

