16

C 5.826700161 0.189508255 0.029313205
C 3.445689256 0.646122609 -0.379940511
C 1.059641588 1.082665425 -0.771269778
C -1.080344690 -0.437022901 0.349897777
C -2.657547511 -1.650349490 -1.743747805
C -2.713668862 1.227315418 2.053761023
H 6.815473863 1.063769657 1.596028235
H 6.891386694 -1.068909844 -1.186843645
H 0.542345086 2.656537226 -1.991987237
H -0.247687896 -1.939026528 1.499593470
H -3.489651239 -0.205605509 -2.965323275
H -4.201593123 -2.764793985 -0.947146437
H -1.504284772 -2.888161675 -2.922142069
H -3.544481057 2.785831040 0.980308107
H -4.260760504 0.138807451 2.879896467
H -1.602858064 2.038688794 3.589686745

