16

C 5.716622272 0.872678926 0.251430102
C 3.130648573 0.931775424 -0.131549127
C 0.943954180 0.323413285 -0.992384062
C -1.304791827 -0.907253374 0.134095022
C -3.125396665 -1.919963991 -1.861633928
C -2.626244236 0.996839072 1.879834485
H 6.671753521 2.471641868 1.091304780
H 6.861916812 -0.682799736 -0.435684956
H 3.842814861 2.828568066 -1.024223982
H -0.661483229 -2.488829947 1.322198869
H -3.850861938 -0.372307378 -3.018033481
H -4.722890401 -2.884467166 -0.976496227
H -2.180941292 -3.254527377 -3.117034740
H -3.195906145 2.674466645 0.821400017
H -4.320864226 0.145721751 2.691474256
H -1.384323635 1.588857934 3.413269927

