12

C 1.713631731 0.643732445 -0.876339401
C 1.660059866 -1.646802701 0.019436438
C 1.586929997 -3.933477760 0.912772640
C -2.697756858 1.570712349 0.672167494
C -0.540414221 2.380124907 -1.002042754
O -4.864152682 1.501584221 0.012823020
H 3.489968354 1.360599635 -1.612666574
H 1.967737855 -4.313218111 2.889139249
H 1.145070871 -5.523038672 -0.301015684
H -2.157307205 1.060547522 2.632712712
H -1.235702420 2.573662739 -2.935531138
H 0.030928033 4.269560071 -0.368950393

