13

O 3.730337757 -1.126488571 1.751754593
C 1.996025959 1.018604409 -0.273921509
C 0.006763405 -0.706273007 -0.781940362
C -2.528118431 -0.371383491 0.507837156
C -4.131986138 1.547714212 -0.694199830
N -5.347597367 3.058248592 -1.666593292
H 5.299713937 -1.715340554 1.028937393
H 3.410143356 1.398039286 -1.706780038
H 1.756932367 2.526398931 1.092572125
H 1.885531443 -2.024162621 0.781508239
H -0.068609984 -1.476519234 -2.680986918
H -2.283338785 0.164828508 2.487758756
H -3.581751275 -2.145130226 0.513352965

