8

O 3.716960423 -0.541938285 0.177272997
C 1.212501496 -0.432298397 0.260486879
N -0.109902881 1.604103262 0.811885114
N -2.431526667 0.688877322 0.628147269
N -2.552253162 -1.692548945 0.019273676
N -0.234289133 -2.464987235 -0.229833405
H 4.384821062 1.098017711 0.584750503
H -3.986311119 1.740774567 0.930225622

