14

C -3.930960984 0.005229231 -0.639214790
C -1.186780661 0.349909626 -0.131051241
C 0.733338420 -1.743368291 -0.158695269
C 3.153623636 -0.366355176 0.465260191
N 5.321560645 -1.295687278 0.671003612
O 2.604517847 2.156721806 0.788954837
C 0.036097945 2.461913633 0.416593771
H -4.944801526 1.795325064 -0.528154282
H -4.240744109 -0.790861192 -2.520356211
H -4.779413962 -1.299417295 0.719542097
H 0.890390970 -2.682312127 -1.991298639
H 6.617215685 0.055013480 1.106201983
H 0.360059893 -3.211702290 1.244586173
H -0.634746325 4.377750142 0.620661119

