28

C     4.28528  -0.70864  -0.24869
N     2.83930  -0.78962  -0.14441
C     2.19097  -0.27476   0.91106
O     2.76719   0.23049   1.88007
C     0.67433  -0.26073   0.81181
C    -0.16657  -0.30462   2.07825
C     0.19274   0.53500   3.26011
O    -1.13193  -1.04883   2.08444
O     0.26287  -1.12554  -0.16902
C    -0.91616  -0.87909  -0.82097
C    -0.82465  -1.34711  -2.18395
N    -0.74705  -1.64555  -3.30663
C    -2.22117  -1.08224  -0.23748
N    -3.35927  -1.12635   0.00977
C    -0.86544   1.19614  -0.76615
Cl   -2.18137   1.76459  -1.67154
C     0.14417   1.52200  -0.05178
C     1.18025   2.55392   0.32615
H     4.61859   0.34972  -0.30114
H     4.77745  -1.16967   0.61589
H     4.61150  -1.21769  -1.16418
H     2.31140  -1.17537  -0.92145
H    -0.57213   0.39803   4.03251
H     0.24615   1.58299   2.95431
H     1.18788   0.25489   3.63832
H     2.15985   2.29424  -0.19441
H     1.43492   2.46594   1.41643
H     0.99073   3.61011   0.11366
28

C     4.28591  -0.70757  -0.24920
N     2.84027  -0.79027  -0.14489
C     2.19174  -0.27878   0.91217
O     2.76746   0.22876   1.88028
C     0.67719  -0.27675   0.81879
C    -0.16648  -0.30864   2.07980
C     0.19291   0.53373   3.25972
O    -1.13570  -1.04856   2.08497
O     0.26294  -1.11963  -0.16965
C    -0.91520  -0.89875  -0.81845
C    -0.82286  -1.35295  -2.18316
N    -0.74679  -1.64494  -3.30750
C    -2.21999  -1.08432  -0.23696
N    -3.35840  -1.12450   0.00961
C    -0.86789   1.22350  -0.76735
Cl   -2.18851   1.76038  -1.67440
C     0.14163   1.54679  -0.05967
C     1.18791   2.55462   0.32826
H     4.61849   0.35011  -0.30127
H     4.77774  -1.16922   0.61576
H     4.61183  -1.21728  -1.16433
H     2.31195  -1.17646  -0.92132
H    -0.57219   0.39821   4.03238
H     0.24598   1.58237   2.95330
H     1.18792   0.25501   3.63852
H     2.16144   2.29254  -0.19381
H     1.43581   2.46326   1.41692
H     0.99708   3.61158   0.11663
28

C     4.28655  -0.70650  -0.24972
N     2.84124  -0.79093  -0.14537
C     2.19251  -0.28281   0.91328
O     2.76774   0.22704   1.88050
C     0.68005  -0.29276   0.82578
C    -0.16639  -0.31265   2.08134
C     0.19309   0.53246   3.25934
O    -1.13946  -1.04830   2.08550
O     0.26302  -1.11372  -0.17028
C    -0.91425  -0.91840  -0.81593
C    -0.82107  -1.35880  -2.18237
N    -0.74652  -1.64432  -3.30837
C    -2.21881  -1.08639  -0.23644
N    -3.35754  -1.12264   0.00944
C    -0.87035   1.25085  -0.76855
Cl   -2.19565   1.75617  -1.67727
C     0.13910   1.57158  -0.06757
C     1.19557   2.55531   0.33037
H     4.61840   0.35051  -0.30140
H     4.77803  -1.16878   0.61564
H     4.61216  -1.21687  -1.16448
H     2.31250  -1.17756  -0.92118
H    -0.57224   0.39840   4.03225
H     0.24580   1.58176   2.95229
H     1.18796   0.25512   3.63872
H     2.16304   2.29084  -0.19320
H     1.43670   2.46058   1.41741
H     1.00343   3.61305   0.11960
28

C     4.28718  -0.70542  -0.25023
N     2.84221  -0.79158  -0.14586
C     2.19328  -0.28683   0.91438
O     2.76801   0.22532   1.88072
C     0.68291  -0.30878   0.83276
C    -0.16630  -0.31666   2.08289
C     0.19326   0.53120   3.25896
O    -1.14322  -1.04803   2.08603
O     0.26310  -1.10781  -0.17090
C    -0.91330  -0.93806  -0.81340
C    -0.81928  -1.36464  -2.18157
N    -0.74625  -1.64371  -3.30924
C    -2.21763  -1.08847  -0.23591
N    -3.35667  -1.12079   0.00928
C    -0.87280   1.27821  -0.76975
Cl   -2.20280   1.75196  -1.68013
C     0.13657   1.59637  -0.07546
C     1.20323   2.55601   0.33248
H     4.61830   0.35090  -0.30153
H     4.77832  -1.16834   0.61551
H     4.61249  -1.21646  -1.16464
H     2.31305  -1.17865  -0.92105
H    -0.57230   0.39858   4.03212
H     0.24563   1.58115   2.95129
H     1.18800   0.25524   3.63892
H     2.16463   2.28914  -0.19260
H     1.43758   2.45790   1.41790
H     1.00977   3.61451   0.12257
28

C     4.28781  -0.70435  -0.25075
N     2.84318  -0.79223  -0.14634
C     2.19405  -0.29085   0.91549
O     2.76829   0.22360   1.88093
C     0.68578  -0.32479   0.83975
C    -0.16622  -0.32068   2.08443
C     0.19343   0.52993   3.25858
O    -1.14698  -1.04777   2.08657
O     0.26317  -1.10190  -0.17153
C    -0.91234  -0.95772  -0.81088
C    -0.81750  -1.37048  -2.18078
N    -0.74598  -1.64309  -3.31012
C    -2.21645  -1.09054  -0.23539
N    -3.35580  -1.11894   0.00911
C    -0.87525   1.30556  -0.77094
Cl   -2.20994   1.74774  -1.68299
C     0.13403   1.62117  -0.08336
C     1.21089   2.55670   0.33459
H     4.61820   0.35130  -0.30166
H     4.77862  -1.16790   0.61538
H     4.61282  -1.21604  -1.16479
H     2.31360  -1.17975  -0.92091
H    -0.57236   0.39876   4.03199
H     0.24545   1.58053   2.95028
H     1.18804   0.25536   3.63912
H     2.16623   2.28744  -0.19199
H     1.43847   2.45522   1.41839
H     1.01612   3.61598   0.12554
28

C     4.28845  -0.70328  -0.25126
N     2.84414  -0.79288  -0.14682
C     2.19482  -0.29487   0.91660
O     2.76857   0.22188   1.88115
C     0.68864  -0.34080   0.84673
C    -0.16613  -0.32469   2.08598
C     0.19361   0.52866   3.25819
O    -1.15075  -1.04750   2.08710
O     0.26325  -1.09599  -0.17216
C    -0.91139  -0.97737  -0.80836
C    -0.81571  -1.37633  -2.17999
N    -0.74571  -1.64248  -3.31099
C    -2.21527  -1.09262  -0.23487
N    -3.35493  -1.11708   0.00895
C    -0.87771   1.33292  -0.77214
Cl   -2.21708   1.74353  -1.68585
C     0.13150   1.64596  -0.09126
C     1.21855   2.55740   0.33670
H     4.61811   0.35170  -0.30179
H     4.77891  -1.16746   0.61525
H     4.61314  -1.21563  -1.16494
H     2.31415  -1.18084  -0.92078
H    -0.57242   0.39895   4.03186
H     0.24528   1.57992   2.94927
H     1.18808   0.25547   3.63932
H     2.16782   2.28574  -0.19139
H     1.43936   2.45254   1.41887
H     1.02247   3.61744   0.12851
28

C     4.28908  -0.70220  -0.25177
N     2.84511  -0.79354  -0.14731
C     2.19559  -0.29889   0.91770
O     2.76884   0.22016   1.88137
C     0.69150  -0.35682   0.85372
C    -0.16604  -0.32870   2.08752
C     0.19378   0.52740   3.25781
O    -1.15451  -1.04724   2.08763
O     0.26333  -1.09008  -0.17279
C    -0.91043  -0.99703  -0.80583
C    -0.81392  -1.38217  -2.17920
N    -0.74544  -1.64186  -3.31186
C    -2.21409  -1.09470  -0.23435
N    -3.35406  -1.11523   0.00878
C    -0.88016   1.36028  -0.77334
Cl   -2.22423   1.73932  -1.68871
C     0.12896   1.67075  -0.09915
C     1.22622   2.55809   0.33881
H     4.61801   0.35209  -0.30192
H     4.77920  -1.16702   0.61512
H     4.61347  -1.21522  -1.16510
H     2.31470  -1.18193  -0.92064
H    -0.57248   0.39913   4.03173
H     0.24511   1.57931   2.94827
H     1.18811   0.25559   3.63952
H     2.16941   2.28404  -0.19079
H     1.44024   2.44986   1.41936
H     1.02881   3.61891   0.13149
28

C     4.28971  -0.70113  -0.25229
N     2.84608  -0.79419  -0.14779
C     2.19636  -0.30291   0.91881
O     2.76912   0.21844   1.88159
C     0.69436  -0.37283   0.86070
C    -0.16595  -0.33272   2.08907
C     0.19395   0.52613   3.25743
O    -1.15827  -1.04698   2.08816
O     0.26340  -1.08417  -0.17342
C    -0.90948  -1.01668  -0.80331
C    -0.81213  -1.38802  -2.17840
N    -0.74517  -1.64125  -3.31273
C    -2.21290  -1.09677  -0.23383
N    -3.35319  -1.11338   0.00862
C    -0.88261   1.38763  -0.77454
Cl   -2.23137   1.73511  -1.69157
C     0.12643   1.69555  -0.10705
C     1.23388   2.55878   0.34091
H     4.61792   0.35249  -0.30204
H     4.77949  -1.16658   0.61500
H     4.61380  -1.21481  -1.16525
H     2.31525  -1.18303  -0.92051
H    -0.57254   0.39931   4.03160
H     0.24493   1.57869   2.94726
H     1.18815   0.25570   3.63972
H     2.17101   2.28234  -0.19018
H     1.44113   2.44718   1.41985
H     1.03516   3.62037   0.13446
28

C     4.29035  -0.70005  -0.25280
N     2.84705  -0.79484  -0.14828
C     2.19713  -0.30693   0.91992
O     2.76939   0.21672   1.88180
C     0.69722  -0.38885   0.86769
C    -0.16587  -0.33673   2.09061
C     0.19412   0.52487   3.25705
O    -1.16204  -1.04671   2.08869
O     0.26348  -1.07826  -0.17405
C    -0.90852  -1.03634  -0.80079
C    -0.81034  -1.39386  -2.17761
N    -0.74490  -1.64063  -3.31360
C    -2.21172  -1.09885  -0.23330
N    -3.35233  -1.11152   0.00845
C    -0.88506   1.41499  -0.77573
Cl   -2.23851   1.73089  -1.69443
C     0.12390   1.72034  -0.11494
C     1.24154   2.55948   0.34302
H     4.61782   0.35288  -0.30217
H     4.77978  -1.16614   0.61487
H     4.61413  -1.21439  -1.16540
H     2.31580  -1.18412  -0.92037
H    -0.57260   0.39950   4.03147
H     0.24476   1.57808   2.94625
H     1.18819   0.25582   3.63992
H     2.17260   2.28064  -0.18958
H     1.44202   2.44450   1.42034
H     1.04151   3.62184   0.13743
28

C     4.29098  -0.69898  -0.25332
N     2.84802  -0.79550  -0.14876
C     2.19790  -0.31095   0.92102
O     2.76967   0.21500   1.88202
C     0.70008  -0.40486   0.87467
C    -0.16578  -0.34074   2.09216
C     0.19430   0.52360   3.25666
O    -1.16580  -1.04645   2.08922
O     0.26355  -1.07235  -0.17467
C    -0.90757  -1.05600  -0.79826
C    -0.80855  -1.39970  -2.17682
N    -0.74463  -1.64002  -3.31447
C    -2.21054  -1.10093  -0.23278
N    -3.35146  -1.10967   0.00829
C    -0.88752   1.44234  -0.77693
Cl   -2.24566   1.72668  -1.69729
C     0.12136   1.74513  -0.12284
C     1.24920   2.56017   0.34513
H     4.61773   0.35328  -0.30230
H     4.78008  -1.16570   0.61474
H     4.61446  -1.21398  -1.16556
H     2.31635  -1.18522  -0.92024
H    -0.57265   0.39968   4.03134
H     0.24458   1.57747   2.94525
H     1.18823   0.25593   3.64012
H     2.17420   2.27894  -0.18898
H     1.44290   2.44182   1.42083
H     1.04785   3.62330   0.14040
28

C     4.29161  -0.69791  -0.25383
N     2.84898  -0.79615  -0.14924
C     2.19867  -0.31497   0.92213
O     2.76994   0.21327   1.88224
C     0.70295  -0.42088   0.88166
C    -0.16569  -0.34476   2.09370
C     0.19447   0.52233   3.25628
O    -1.16956  -1.04618   2.08975
O     0.26363  -1.06643  -0.17530
C    -0.90661  -1.07565  -0.79574
C    -0.80676  -1.40555  -2.17603
N    -0.74437  -1.63940  -3.31534
C    -2.20936  -1.10300  -0.23226
N    -3.35059  -1.10781   0.00812
C    -0.88997   1.46970  -0.77813
Cl   -2.25280   1.72247  -1.70016
C     0.11883   1.76993  -0.13074
C     1.25686   2.56087   0.34724
H     4.61763   0.35368  -0.30243
H     4.78037  -1.16526   0.61461
H     4.61479  -1.21357  -1.16571
H     2.31690  -1.18631  -0.92010
H    -0.57271   0.39986   4.03121
H     0.24441   1.57685   2.94424
H     1.18827   0.25605   3.64032
H     2.17579   2.27724  -0.18837
H     1.44379   2.43914   1.42132
H     1.05420   3.62477   0.14337
28

C     4.29225  -0.69683  -0.25434
N     2.84995  -0.79680  -0.14973
C     2.19944  -0.31899   0.92324
O     2.77022   0.21155   1.88245
C     0.70581  -0.43689   0.88864
C    -0.16560  -0.34877   2.09525
C     0.19464   0.52107   3.25590
O    -1.17333  -1.04592   2.09029
O     0.26371  -1.06052  -0.17593
C    -0.90566  -1.09531  -0.79322
C    -0.80498  -1.41139  -2.17523
N    -0.74410  -1.63879  -3.31621
C    -2.20818  -1.10508  -0.23174
N    -3.34972  -1.10596   0.00796
C    -0.89242   1.49705  -0.77933
Cl   -2.25994   1.71826  -1.70302
C     0.11629   1.79472  -0.13863
C     1.26453   2.56156   0.34935
H     4.61753   0.35407  -0.30256
H     4.78066  -1.16482   0.61448
H     4.61512  -1.21316  -1.16586
H     2.31745  -1.18740  -0.91996
H    -0.57277   0.40005   4.03108
H     0.24423   1.57624   2.94323
H     1.18831   0.25617   3.64052
H     2.17739   2.27555  -0.18777
H     1.44468   2.43646   1.42181
H     1.06055   3.62623   0.14634
28

C     4.29288  -0.69576  -0.25486
N     2.85092  -0.79746  -0.15021
C     2.20021  -0.32301   0.92434
O     2.77049   0.20983   1.88267
C     0.70867  -0.45291   0.89563
C    -0.16551  -0.35278   2.09679
C     0.19481   0.51980   3.25551
O    -1.17709  -1.04565   2.09082
O     0.26378  -1.05461  -0.17656
C    -0.90471  -1.11497  -0.79069
C    -0.80319  -1.41724  -2.17444
N    -0.74383  -1.63817  -3.31709
C    -2.20700  -1.10716  -0.23122
N    -3.34885  -1.10411   0.00779
C    -0.89488   1.52441  -0.78053
Cl   -2.26708   1.71405  -1.70588
C     0.11376   1.81951  -0.14653
C     1.27219   2.56226   0.35146
H     4.61744   0.35447  -0.30269
H     4.78095  -1.16438   0.61435
H     4.61544  -1.21275  -1.16601
H     2.31800  -1.18850  -0.91983
H    -0.57283   0.40023   4.03095
H     0.24406   1.57563   2.94222
H     1.18835   0.25628   3.64072
H     2.17898   2.27385  -0.18717
H     1.44556   2.43378   1.42230
H     1.06689   3.62770   0.14931
28

C     4.29351  -0.69469  -0.25537
N     2.85189  -0.79811  -0.15069
C     2.20098  -0.32704   0.92545
O     2.77077   0.20811   1.88289
C     0.71153  -0.46892   0.90261
C    -0.16543  -0.35680   2.09834
C     0.19499   0.51853   3.25513
O    -1.18085  -1.04539   2.09135
O     0.26386  -1.04870  -0.17719
C    -0.90375  -1.13462  -0.78817
C    -0.80140  -1.42308  -2.17365
N    -0.74356  -1.63756  -3.31796
C    -2.20582  -1.10923  -0.23069
N    -3.34798  -1.10225   0.00762
C    -0.89733   1.55176  -0.78172
Cl   -2.27423   1.70983  -1.70874
C     0.11123   1.84431  -0.15442
C     1.27985   2.56295   0.35357
H     4.61734   0.35486  -0.30282
H     4.78125  -1.16394   0.61423
H     4.61577  -1.21233  -1.16617
H     2.31855  -1.18959  -0.91969
H    -0.57289   0.40041   4.03082
H     0.24388   1.57501   2.94122
H     1.18839   0.25640   3.64092
H     2.18057   2.27215  -0.18656
H     1.44645   2.43111   1.42279
H     1.07324   3.62916   0.15228
28

C     4.29415  -0.69361  -0.25589
N     2.85286  -0.79876  -0.15118
C     2.20175  -0.33106   0.92656
O     2.77104   0.20639   1.88310
C     0.71439  -0.48494   0.90960
C    -0.16534  -0.36081   2.09988
C     0.19516   0.51727   3.25475
O    -1.18462  -1.04513   2.09188
O     0.26394  -1.04279  -0.17782
C    -0.90280  -1.15428  -0.78565
C    -0.79961  -1.42892  -2.17285
N    -0.74329  -1.63694  -3.31883
C    -2.20464  -1.11131  -0.23017
N    -3.34712  -1.10040   0.00746
C    -0.89978   1.57912  -0.78292
Cl   -2.28137   1.70562  -1.71160
C     0.10869   1.86910  -0.16232
C     1.28751   2.56365   0.35568
H     4.61725   0.35526  -0.30295
H     4.78154  -1.16349   0.61410
H     4.61610  -1.21192  -1.16632
H     2.31910  -1.19069  -0.91956
H    -0.57295   0.40060   4.03069
H     0.24371   1.57440   2.94021
H     1.18842   0.25651   3.64112
H     2.18217   2.27045  -0.18596
H     1.44733   2.42843   1.42328
H     1.07959   3.63063   0.15525
28

C     4.29478  -0.69254  -0.25640
N     2.85382  -0.79941  -0.15166
C     2.20252  -0.33508   0.92766
O     2.77132   0.20467   1.88332
C     0.71725  -0.50095   0.91659
C    -0.16525  -0.36482   2.10143
C     0.19533   0.51600   3.25437
O    -1.18838  -1.04486   2.09241
O     0.26401  -1.03688  -0.17844
C    -0.90184  -1.17393  -0.78312
C    -0.79782  -1.43477  -2.17206
N    -0.74302  -1.63632  -3.31970
C    -2.20346  -1.11338  -0.22965
N    -3.34625  -1.09855   0.00729
C    -0.90223   1.60648  -0.78412
Cl   -2.28851   1.70141  -1.71446
C     0.10616   1.89389  -0.17021
C     1.29517   2.56434   0.35778
H     4.61715   0.35566  -0.30308
H     4.78183  -1.16305   0.61397
H     4.61643  -1.21151  -1.16647
H     2.31965  -1.19178  -0.91942
H    -0.57301   0.40078   4.03056
H     0.24354   1.57379   2.93920
H     1.18846   0.25663   3.64132
H     2.18376   2.26875  -0.18536
H     1.44822   2.42575   1.42377
H     1.08593   3.63209   0.15822
28

C     4.29541  -0.69146  -0.25691
N     2.85479  -0.80007  -0.15215
C     2.20329  -0.33910   0.92877
O     2.77159   0.20295   1.88354
C     0.72012  -0.51696   0.92357
C    -0.16516  -0.36884   2.10297
C     0.19550   0.51473   3.25398
O    -1.19214  -1.04460   2.09294
O     0.26409  -1.03097  -0.17907
C    -0.90089  -1.19359  -0.78060
C    -0.79603  -1.44061  -2.17127
N    -0.74275  -1.63571  -3.32057
C    -2.20228  -1.11546  -0.22913
N    -3.34538  -1.09669   0.00713
C    -0.90469   1.63383  -0.78532
Cl   -2.29566   1.69720  -1.71732
C     0.10362   1.91869  -0.17811
C     1.30283   2.56504   0.35989
H     4.61705   0.35605  -0.30321
H     4.78212  -1.16261   0.61384
H     4.61676  -1.21110  -1.16663
H     2.32019  -1.19287  -0.91929
H    -0.57307   0.40096   4.03043
H     0.24336   1.57317   2.93820
H     1.18850   0.25675   3.64152
H     2.18536   2.26705  -0.18475
H     1.44911   2.42307   1.42425
H     1.09228   3.63356   0.16119
28

C     4.29605  -0.69039  -0.25743
N     2.85576  -0.80072  -0.15263
C     2.20406  -0.34312   0.92988
O     2.77187   0.20123   1.88375
C     0.72298  -0.53298   0.93056
C    -0.16508  -0.37285   2.10452
C     0.19568   0.51347   3.25360
O    -1.19591  -1.04433   2.09347
O     0.26416  -1.02506  -0.17970
C    -0.89993  -1.21325  -0.77808
C    -0.79424  -1.44645  -2.17048
N    -0.74248  -1.63509  -3.32144
C    -2.20109  -1.11754  -0.22861
N    -3.34451  -1.09484   0.00696
C    -0.90714   1.66119  -0.78651
Cl   -2.30280   1.69298  -1.72018
C     0.10109   1.94348  -0.18601
C     1.31050   2.56573   0.36200
H     4.61696   0.35645  -0.30334
H     4.78242  -1.16217   0.61371
H     4.61709  -1.21069  -1.16678
H     2.32074  -1.19397  -0.91915
H    -0.57312   0.40115   4.03030
H     0.24319   1.57256   2.93719
H     1.18854   0.25686   3.64172
H     2.18695   2.26535  -0.18415
H     1.44999   2.42039   1.42474
H     1.09863   3.63502   0.16416
28

C     4.29668  -0.68932  -0.25794
N     2.85673  -0.80137  -0.15311
C     2.20483  -0.34714   0.93098
O     2.77214   0.19951   1.88397
C     0.72584  -0.54899   0.93754
C    -0.16499  -0.37686   2.10606
C     0.19585   0.51220   3.25322
O    -1.19967  -1.04407   2.09400
O     0.26424  -1.01915  -0.18033
C    -0.89898  -1.23290  -0.77555
C    -0.79246  -1.45230  -2.16968
N    -0.74221  -1.63448  -3.32231
C    -2.19991  -1.11961  -0.22808
N    -3.34364  -1.09299   0.00680
C    -0.90959   1.68854  -0.78771
Cl   -2.30994   1.68877  -1.72305
C     0.09856   1.96827  -0.19390
C     1.31816   2.56643   0.36411
H     4.61686   0.35684  -0.30347
H     4.78271  -1.16173   0.61359
H     4.61741  -1.21027  -1.16693
H     2.32129  -1.19506  -0.91902
H    -0.57318   0.40133   4.03017
H     0.24301   1.57195   2.93618
H     1.18858   0.25698   3.64192
H     2.18855   2.26365  -0.18354
H     1.45088   2.41771   1.42523
H     1.10497   3.63649   0.16713
28

C     4.29731  -0.68824  -0.25846
N     2.85769  -0.80203  -0.15360
C     2.20560  -0.35116   0.93209
O     2.77242   0.19778   1.88419
C     0.72870  -0.56501   0.94453
C    -0.16490  -0.38088   2.10761
C     0.19602   0.51094   3.25284
O    -1.20343  -1.04380   2.09454
O     0.26432  -1.01324  -0.18096
C    -0.89802  -1.25256  -0.77303
C    -0.79067  -1.45814  -2.16889
N    -0.74195  -1.63386  -3.32319
C    -2.19873  -1.12169  -0.22756
N    -3.34277  -1.09113   0.00663
C    -0.91205   1.71590  -0.78891
Cl   -2.31709   1.68456  -1.72591
C     0.09602   1.99306  -0.20180
C     1.32582   2.56712   0.36622
H     4.61677   0.35724  -0.30360
H     4.78300  -1.16129   0.61346
H     4.61774  -1.20986  -1.16709
H     2.32184  -1.19616  -0.91888
H    -0.57324   0.40151   4.03004
H     0.24284   1.57133   2.93518
H     1.18862   0.25709   3.64212
H     2.19014   2.26195  -0.18294
H     1.45177   2.41503   1.42572
H     1.11132   3.63796   0.17010
28

C     4.29795  -0.68717  -0.25897
N     2.85866  -0.80268  -0.15408
C     2.20637  -0.35518   0.93320
O     2.77269   0.19606   1.88440
C     0.73156  -0.58102   0.95151
C    -0.16481  -0.38489   2.10915
C     0.19620   0.50967   3.25245
O    -1.20719  -1.04354   2.09507
O     0.26439  -1.00733  -0.18159
C    -0.89707  -1.27222  -0.77051
C    -0.78888  -1.46399  -2.16810
N    -0.74168  -1.63325  -3.32406
C    -2.19755  -1.12377  -0.22704
N    -3.34191  -1.08928   0.00647
C    -0.91450   1.74325  -0.79011
Cl   -2.32423   1.68035  -1.72877
C     0.09349   2.01786  -0.20969
C     1.33348   2.56782   0.36833
H     4.61667   0.35763  -0.30373
H     4.78329  -1.16085   0.61333
H     4.61807  -1.20945  -1.16724
H     2.32239  -1.19725  -0.91875
H    -0.57330   0.40170   4.02991
H     0.24266   1.57072   2.93417
H     1.18866   0.25721   3.64232
H     2.19174   2.26025  -0.18234
H     1.45265   2.41235   1.42621
H     1.11767   3.63942   0.17307
28

C     4.29731  -0.68824  -0.25846
N     2.85769  -0.80203  -0.15360
C     2.20560  -0.35116   0.93209
O     2.77242   0.19778   1.88419
C     0.72870  -0.56501   0.94453
C    -0.16490  -0.38088   2.10761
C     0.19602   0.51094   3.25284
O    -1.20343  -1.04380   2.09454
O     0.26432  -1.01324  -0.18096
C    -0.89802  -1.25256  -0.77303
C    -0.79067  -1.45814  -2.16889
N    -0.74195  -1.63386  -3.32319
C    -2.19873  -1.12169  -0.22756
N    -3.34277  -1.09113   0.00663
C    -0.91205   1.71590  -0.78891
Cl   -2.31709   1.68456  -1.72591
C     0.09602   1.99306  -0.20180
C     1.32582   2.56712   0.36622
H     4.61677   0.35724  -0.30360
H     4.78300  -1.16129   0.61346
H     4.61774  -1.20986  -1.16709
H     2.32184  -1.19616  -0.91888
H    -0.57324   0.40151   4.03004
H     0.24284   1.57133   2.93518
H     1.18862   0.25709   3.64212
H     2.19014   2.26195  -0.18294
H     1.45177   2.41503   1.42572
H     1.11132   3.63796   0.17010
28

C     4.29668  -0.68932  -0.25794
N     2.85673  -0.80137  -0.15311
C     2.20483  -0.34714   0.93098
O     2.77214   0.19951   1.88397
C     0.72584  -0.54899   0.93754
C    -0.16499  -0.37686   2.10606
C     0.19585   0.51220   3.25322
O    -1.19967  -1.04407   2.09400
O     0.26424  -1.01915  -0.18033
C    -0.89898  -1.23290  -0.77555
C    -0.79246  -1.45230  -2.16968
N    -0.74221  -1.63448  -3.32231
C    -2.19991  -1.11961  -0.22808
N    -3.34364  -1.09299   0.00680
C    -0.90959   1.68854  -0.78771
Cl   -2.30994   1.68877  -1.72305
C     0.09856   1.96827  -0.19390
C     1.31816   2.56643   0.36411
H     4.61686   0.35684  -0.30347
H     4.78271  -1.16173   0.61359
H     4.61741  -1.21027  -1.16693
H     2.32129  -1.19506  -0.91902
H    -0.57318   0.40133   4.03017
H     0.24301   1.57195   2.93618
H     1.18858   0.25698   3.64192
H     2.18855   2.26365  -0.18354
H     1.45088   2.41771   1.42523
H     1.10497   3.63649   0.16713
28

C     4.29605  -0.69039  -0.25743
N     2.85576  -0.80072  -0.15263
C     2.20406  -0.34312   0.92988
O     2.77187   0.20123   1.88375
C     0.72298  -0.53298   0.93056
C    -0.16508  -0.37285   2.10452
C     0.19568   0.51347   3.25360
O    -1.19591  -1.04433   2.09347
O     0.26416  -1.02506  -0.17970
C    -0.89993  -1.21325  -0.77808
C    -0.79424  -1.44645  -2.17048
N    -0.74248  -1.63509  -3.32144
C    -2.20109  -1.11754  -0.22861
N    -3.34451  -1.09484   0.00696
C    -0.90714   1.66119  -0.78651
Cl   -2.30280   1.69298  -1.72018
C     0.10109   1.94348  -0.18601
C     1.31050   2.56573   0.36200
H     4.61696   0.35645  -0.30334
H     4.78242  -1.16217   0.61371
H     4.61709  -1.21069  -1.16678
H     2.32074  -1.19397  -0.91915
H    -0.57312   0.40115   4.03030
H     0.24319   1.57256   2.93719
H     1.18854   0.25686   3.64172
H     2.18695   2.26535  -0.18415
H     1.44999   2.42039   1.42474
H     1.09863   3.63502   0.16416
28

C     4.29541  -0.69146  -0.25691
N     2.85479  -0.80007  -0.15215
C     2.20329  -0.33910   0.92877
O     2.77159   0.20295   1.88354
C     0.72012  -0.51696   0.92357
C    -0.16516  -0.36884   2.10297
C     0.19550   0.51473   3.25398
O    -1.19214  -1.04460   2.09294
O     0.26409  -1.03097  -0.17907
C    -0.90089  -1.19359  -0.78060
C    -0.79603  -1.44061  -2.17127
N    -0.74275  -1.63571  -3.32057
C    -2.20228  -1.11546  -0.22913
N    -3.34538  -1.09669   0.00713
C    -0.90469   1.63383  -0.78532
Cl   -2.29566   1.69720  -1.71732
C     0.10362   1.91869  -0.17811
C     1.30283   2.56504   0.35989
H     4.61705   0.35605  -0.30321
H     4.78212  -1.16261   0.61384
H     4.61676  -1.21110  -1.16663
H     2.32019  -1.19287  -0.91929
H    -0.57307   0.40096   4.03043
H     0.24336   1.57317   2.93820
H     1.18850   0.25675   3.64152
H     2.18536   2.26705  -0.18475
H     1.44911   2.42307   1.42425
H     1.09228   3.63356   0.16119
28

C     4.29478  -0.69254  -0.25640
N     2.85382  -0.79941  -0.15166
C     2.20252  -0.33508   0.92766
O     2.77132   0.20467   1.88332
C     0.71725  -0.50095   0.91659
C    -0.16525  -0.36482   2.10143
C     0.19533   0.51600   3.25437
O    -1.18838  -1.04486   2.09241
O     0.26401  -1.03688  -0.17844
C    -0.90184  -1.17393  -0.78312
C    -0.79782  -1.43477  -2.17206
N    -0.74302  -1.63632  -3.31970
C    -2.20346  -1.11338  -0.22965
N    -3.34625  -1.09855   0.00729
C    -0.90223   1.60648  -0.78412
Cl   -2.28851   1.70141  -1.71446
C     0.10616   1.89389  -0.17021
C     1.29517   2.56434   0.35778
H     4.61715   0.35566  -0.30308
H     4.78183  -1.16305   0.61397
H     4.61643  -1.21151  -1.16647
H     2.31965  -1.19178  -0.91942
H    -0.57301   0.40078   4.03056
H     0.24354   1.57379   2.93920
H     1.18846   0.25663   3.64132
H     2.18376   2.26875  -0.18536
H     1.44822   2.42575   1.42377
H     1.08593   3.63209   0.15822
28

C     4.29415  -0.69361  -0.25589
N     2.85286  -0.79876  -0.15118
C     2.20175  -0.33106   0.92656
O     2.77104   0.20639   1.88310
C     0.71439  -0.48494   0.90960
C    -0.16534  -0.36081   2.09988
C     0.19516   0.51727   3.25475
O    -1.18462  -1.04513   2.09188
O     0.26394  -1.04279  -0.17782
C    -0.90280  -1.15428  -0.78565
C    -0.79961  -1.42892  -2.17285
N    -0.74329  -1.63694  -3.31883
C    -2.20464  -1.11131  -0.23017
N    -3.34712  -1.10040   0.00746
C    -0.89978   1.57912  -0.78292
Cl   -2.28137   1.70562  -1.71160
C     0.10869   1.86910  -0.16232
C     1.28751   2.56365   0.35568
H     4.61725   0.35526  -0.30295
H     4.78154  -1.16349   0.61410
H     4.61610  -1.21192  -1.16632
H     2.31910  -1.19069  -0.91956
H    -0.57295   0.40060   4.03069
H     0.24371   1.57440   2.94021
H     1.18842   0.25651   3.64112
H     2.18217   2.27045  -0.18596
H     1.44733   2.42843   1.42328
H     1.07959   3.63063   0.15525
28

C     4.29351  -0.69469  -0.25537
N     2.85189  -0.79811  -0.15069
C     2.20098  -0.32704   0.92545
O     2.77077   0.20811   1.88289
C     0.71153  -0.46892   0.90261
C    -0.16543  -0.35680   2.09834
C     0.19499   0.51853   3.25513
O    -1.18085  -1.04539   2.09135
O     0.26386  -1.04870  -0.17719
C    -0.90375  -1.13462  -0.78817
C    -0.80140  -1.42308  -2.17365
N    -0.74356  -1.63756  -3.31796
C    -2.20582  -1.10923  -0.23069
N    -3.34798  -1.10225   0.00762
C    -0.89733   1.55176  -0.78172
Cl   -2.27423   1.70983  -1.70874
C     0.11123   1.84431  -0.15442
C     1.27985   2.56295   0.35357
H     4.61734   0.35486  -0.30282
H     4.78125  -1.16394   0.61423
H     4.61577  -1.21233  -1.16617
H     2.31855  -1.18959  -0.91969
H    -0.57289   0.40041   4.03082
H     0.24388   1.57501   2.94122
H     1.18839   0.25640   3.64092
H     2.18057   2.27215  -0.18656
H     1.44645   2.43111   1.42279
H     1.07324   3.62916   0.15228
28

C     4.29288  -0.69576  -0.25486
N     2.85092  -0.79746  -0.15021
C     2.20021  -0.32301   0.92434
O     2.77049   0.20983   1.88267
C     0.70867  -0.45291   0.89563
C    -0.16551  -0.35278   2.09679
C     0.19481   0.51980   3.25551
O    -1.17709  -1.04565   2.09082
O     0.26378  -1.05461  -0.17656
C    -0.90471  -1.11497  -0.79069
C    -0.80319  -1.41724  -2.17444
N    -0.74383  -1.63817  -3.31709
C    -2.20700  -1.10716  -0.23122
N    -3.34885  -1.10411   0.00779
C    -0.89488   1.52441  -0.78053
Cl   -2.26708   1.71405  -1.70588
C     0.11376   1.81951  -0.14653
C     1.27219   2.56226   0.35146
H     4.61744   0.35447  -0.30269
H     4.78095  -1.16438   0.61435
H     4.61544  -1.21275  -1.16601
H     2.31800  -1.18850  -0.91983
H    -0.57283   0.40023   4.03095
H     0.24406   1.57563   2.94222
H     1.18835   0.25628   3.64072
H     2.17898   2.27385  -0.18717
H     1.44556   2.43378   1.42230
H     1.06689   3.62770   0.14931
28

C     4.29225  -0.69683  -0.25434
N     2.84995  -0.79680  -0.14973
C     2.19944  -0.31899   0.92324
O     2.77022   0.21155   1.88245
C     0.70581  -0.43689   0.88864
C    -0.16560  -0.34877   2.09525
C     0.19464   0.52107   3.25590
O    -1.17333  -1.04592   2.09029
O     0.26371  -1.06052  -0.17593
C    -0.90566  -1.09531  -0.79322
C    -0.80498  -1.41139  -2.17523
N    -0.74410  -1.63879  -3.31621
C    -2.20818  -1.10508  -0.23174
N    -3.34972  -1.10596   0.00796
C    -0.89242   1.49705  -0.77933
Cl   -2.25994   1.71826  -1.70302
C     0.11629   1.79472  -0.13863
C     1.26453   2.56156   0.34935
H     4.61753   0.35407  -0.30256
H     4.78066  -1.16482   0.61448
H     4.61512  -1.21316  -1.16586
H     2.31745  -1.18740  -0.91996
H    -0.57277   0.40005   4.03108
H     0.24423   1.57624   2.94323
H     1.18831   0.25617   3.64052
H     2.17739   2.27555  -0.18777
H     1.44468   2.43646   1.42181
H     1.06055   3.62623   0.14634
28

C     4.29161  -0.69791  -0.25383
N     2.84898  -0.79615  -0.14924
C     2.19867  -0.31497   0.92213
O     2.76994   0.21327   1.88224
C     0.70295  -0.42088   0.88166
C    -0.16569  -0.34476   2.09370
C     0.19447   0.52233   3.25628
O    -1.16956  -1.04618   2.08975
O     0.26363  -1.06643  -0.17530
C    -0.90661  -1.07565  -0.79574
C    -0.80676  -1.40555  -2.17603
N    -0.74437  -1.63940  -3.31534
C    -2.20936  -1.10300  -0.23226
N    -3.35059  -1.10781   0.00812
C    -0.88997   1.46970  -0.77813
Cl   -2.25280   1.72247  -1.70016
C     0.11883   1.76993  -0.13074
C     1.25686   2.56087   0.34724
H     4.61763   0.35368  -0.30243
H     4.78037  -1.16526   0.61461
H     4.61479  -1.21357  -1.16571
H     2.31690  -1.18631  -0.92010
H    -0.57271   0.39986   4.03121
H     0.24441   1.57685   2.94424
H     1.18827   0.25605   3.64032
H     2.17579   2.27724  -0.18837
H     1.44379   2.43914   1.42132
H     1.05420   3.62477   0.14337
28

C     4.29098  -0.69898  -0.25332
N     2.84802  -0.79550  -0.14876
C     2.19790  -0.31095   0.92102
O     2.76967   0.21500   1.88202
C     0.70008  -0.40486   0.87467
C    -0.16578  -0.34074   2.09216
C     0.19430   0.52360   3.25666
O    -1.16580  -1.04645   2.08922
O     0.26355  -1.07235  -0.17467
C    -0.90757  -1.05600  -0.79826
C    -0.80855  -1.39970  -2.17682
N    -0.74463  -1.64002  -3.31447
C    -2.21054  -1.10093  -0.23278
N    -3.35146  -1.10967   0.00829
C    -0.88752   1.44234  -0.77693
Cl   -2.24566   1.72668  -1.69729
C     0.12136   1.74513  -0.12284
C     1.24920   2.56017   0.34513
H     4.61773   0.35328  -0.30230
H     4.78008  -1.16570   0.61474
H     4.61446  -1.21398  -1.16556
H     2.31635  -1.18522  -0.92024
H    -0.57265   0.39968   4.03134
H     0.24458   1.57747   2.94525
H     1.18823   0.25593   3.64012
H     2.17420   2.27894  -0.18898
H     1.44290   2.44182   1.42083
H     1.04785   3.62330   0.14040
28

C     4.29035  -0.70005  -0.25280
N     2.84705  -0.79484  -0.14828
C     2.19713  -0.30693   0.91992
O     2.76939   0.21672   1.88180
C     0.69722  -0.38885   0.86769
C    -0.16587  -0.33673   2.09061
C     0.19412   0.52487   3.25705
O    -1.16204  -1.04671   2.08869
O     0.26348  -1.07826  -0.17405
C    -0.90852  -1.03634  -0.80079
C    -0.81034  -1.39386  -2.17761
N    -0.74490  -1.64063  -3.31360
C    -2.21172  -1.09885  -0.23330
N    -3.35233  -1.11152   0.00845
C    -0.88506   1.41499  -0.77573
Cl   -2.23851   1.73089  -1.69443
C     0.12390   1.72034  -0.11494
C     1.24154   2.55948   0.34302
H     4.61782   0.35288  -0.30217
H     4.77978  -1.16614   0.61487
H     4.61413  -1.21439  -1.16540
H     2.31580  -1.18412  -0.92037
H    -0.57260   0.39950   4.03147
H     0.24476   1.57808   2.94625
H     1.18819   0.25582   3.63992
H     2.17260   2.28064  -0.18958
H     1.44202   2.44450   1.42034
H     1.04151   3.62184   0.13743
28

C     4.28971  -0.70113  -0.25229
N     2.84608  -0.79419  -0.14779
C     2.19636  -0.30291   0.91881
O     2.76912   0.21844   1.88159
C     0.69436  -0.37283   0.86070
C    -0.16595  -0.33272   2.08907
C     0.19395   0.52613   3.25743
O    -1.15827  -1.04698   2.08816
O     0.26340  -1.08417  -0.17342
C    -0.90948  -1.01668  -0.80331
C    -0.81213  -1.38802  -2.17840
N    -0.74517  -1.64125  -3.31273
C    -2.21290  -1.09677  -0.23383
N    -3.35319  -1.11338   0.00862
C    -0.88261   1.38763  -0.77454
Cl   -2.23137   1.73511  -1.69157
C     0.12643   1.69555  -0.10705
C     1.23388   2.55878   0.34091
H     4.61792   0.35249  -0.30204
H     4.77949  -1.16658   0.61500
H     4.61380  -1.21481  -1.16525
H     2.31525  -1.18303  -0.92051
H    -0.57254   0.39931   4.03160
H     0.24493   1.57869   2.94726
H     1.18815   0.25570   3.63972
H     2.17101   2.28234  -0.19018
H     1.44113   2.44718   1.41985
H     1.03516   3.62037   0.13446
28

C     4.28908  -0.70220  -0.25177
N     2.84511  -0.79354  -0.14731
C     2.19559  -0.29889   0.91770
O     2.76884   0.22016   1.88137
C     0.69150  -0.35682   0.85372
C    -0.16604  -0.32870   2.08752
C     0.19378   0.52740   3.25781
O    -1.15451  -1.04724   2.08763
O     0.26333  -1.09008  -0.17279
C    -0.91043  -0.99703  -0.80583
C    -0.81392  -1.38217  -2.17920
N    -0.74544  -1.64186  -3.31186
C    -2.21409  -1.09470  -0.23435
N    -3.35406  -1.11523   0.00878
C    -0.88016   1.36028  -0.77334
Cl   -2.22423   1.73932  -1.68871
C     0.12896   1.67075  -0.09915
C     1.22622   2.55809   0.33881
H     4.61801   0.35209  -0.30192
H     4.77920  -1.16702   0.61512
H     4.61347  -1.21522  -1.16510
H     2.31470  -1.18193  -0.92064
H    -0.57248   0.39913   4.03173
H     0.24511   1.57931   2.94827
H     1.18811   0.25559   3.63952
H     2.16941   2.28404  -0.19079
H     1.44024   2.44986   1.41936
H     1.02881   3.61891   0.13149
28

C     4.28845  -0.70328  -0.25126
N     2.84414  -0.79288  -0.14682
C     2.19482  -0.29487   0.91660
O     2.76857   0.22188   1.88115
C     0.68864  -0.34080   0.84673
C    -0.16613  -0.32469   2.08598
C     0.19361   0.52866   3.25819
O    -1.15075  -1.04750   2.08710
O     0.26325  -1.09599  -0.17216
C    -0.91139  -0.97737  -0.80836
C    -0.81571  -1.37633  -2.17999
N    -0.74571  -1.64248  -3.31099
C    -2.21527  -1.09262  -0.23487
N    -3.35493  -1.11708   0.00895
C    -0.87771   1.33292  -0.77214
Cl   -2.21708   1.74353  -1.68585
C     0.13150   1.64596  -0.09126
C     1.21855   2.55740   0.33670
H     4.61811   0.35170  -0.30179
H     4.77891  -1.16746   0.61525
H     4.61314  -1.21563  -1.16494
H     2.31415  -1.18084  -0.92078
H    -0.57242   0.39895   4.03186
H     0.24528   1.57992   2.94927
H     1.18808   0.25547   3.63932
H     2.16782   2.28574  -0.19139
H     1.43936   2.45254   1.41887
H     1.02247   3.61744   0.12851
28

C     4.28781  -0.70435  -0.25075
N     2.84318  -0.79223  -0.14634
C     2.19405  -0.29085   0.91549
O     2.76829   0.22360   1.88093
C     0.68578  -0.32479   0.83975
C    -0.16622  -0.32068   2.08443
C     0.19343   0.52993   3.25858
O    -1.14698  -1.04777   2.08657
O     0.26317  -1.10190  -0.17153
C    -0.91234  -0.95772  -0.81088
C    -0.81750  -1.37048  -2.18078
N    -0.74598  -1.64309  -3.31012
C    -2.21645  -1.09054  -0.23539
N    -3.35580  -1.11894   0.00911
C    -0.87525   1.30556  -0.77094
Cl   -2.20994   1.74774  -1.68299
C     0.13403   1.62117  -0.08336
C     1.21089   2.55670   0.33459
H     4.61820   0.35130  -0.30166
H     4.77862  -1.16790   0.61538
H     4.61282  -1.21604  -1.16479
H     2.31360  -1.17975  -0.92091
H    -0.57236   0.39876   4.03199
H     0.24545   1.58053   2.95028
H     1.18804   0.25536   3.63912
H     2.16623   2.28744  -0.19199
H     1.43847   2.45522   1.41839
H     1.01612   3.61598   0.12554
28

C     4.28718  -0.70542  -0.25023
N     2.84221  -0.79158  -0.14586
C     2.19328  -0.28683   0.91438
O     2.76801   0.22532   1.88072
C     0.68291  -0.30878   0.83276
C    -0.16630  -0.31666   2.08289
C     0.19326   0.53120   3.25896
O    -1.14322  -1.04803   2.08603
O     0.26310  -1.10781  -0.17090
C    -0.91330  -0.93806  -0.81340
C    -0.81928  -1.36464  -2.18157
N    -0.74625  -1.64371  -3.30924
C    -2.21763  -1.08847  -0.23591
N    -3.35667  -1.12079   0.00928
C    -0.87280   1.27821  -0.76975
Cl   -2.20280   1.75196  -1.68013
C     0.13657   1.59637  -0.07546
C     1.20323   2.55601   0.33248
H     4.61830   0.35090  -0.30153
H     4.77832  -1.16834   0.61551
H     4.61249  -1.21646  -1.16464
H     2.31305  -1.17865  -0.92105
H    -0.57230   0.39858   4.03212
H     0.24563   1.58115   2.95129
H     1.18800   0.25524   3.63892
H     2.16463   2.28914  -0.19260
H     1.43758   2.45790   1.41790
H     1.00977   3.61451   0.12257
28

C     4.28655  -0.70650  -0.24972
N     2.84124  -0.79093  -0.14537
C     2.19251  -0.28281   0.91328
O     2.76774   0.22704   1.88050
C     0.68005  -0.29276   0.82578
C    -0.16639  -0.31265   2.08134
C     0.19309   0.53246   3.25934
O    -1.13946  -1.04830   2.08550
O     0.26302  -1.11372  -0.17028
C    -0.91425  -0.91840  -0.81593
C    -0.82107  -1.35880  -2.18237
N    -0.74652  -1.64432  -3.30837
C    -2.21881  -1.08639  -0.23644
N    -3.35754  -1.12264   0.00944
C    -0.87035   1.25085  -0.76855
Cl   -2.19565   1.75617  -1.67727
C     0.13910   1.57158  -0.06757
C     1.19557   2.55531   0.33037
H     4.61840   0.35051  -0.30140
H     4.77803  -1.16878   0.61564
H     4.61216  -1.21687  -1.16448
H     2.31250  -1.17756  -0.92118
H    -0.57224   0.39840   4.03225
H     0.24580   1.58176   2.95229
H     1.18796   0.25512   3.63872
H     2.16304   2.29084  -0.19320
H     1.43670   2.46058   1.41741
H     1.00343   3.61305   0.11960
28

C     4.28591  -0.70757  -0.24920
N     2.84027  -0.79027  -0.14489
C     2.19174  -0.27878   0.91217
O     2.76746   0.22876   1.88028
C     0.67719  -0.27675   0.81879
C    -0.16648  -0.30864   2.07980
C     0.19291   0.53373   3.25972
O    -1.13570  -1.04856   2.08497
O     0.26294  -1.11963  -0.16965
C    -0.91520  -0.89875  -0.81845
C    -0.82286  -1.35295  -2.18316
N    -0.74679  -1.64494  -3.30750
C    -2.21999  -1.08432  -0.23696
N    -3.35840  -1.12450   0.00961
C    -0.86789   1.22350  -0.76735
Cl   -2.18851   1.76038  -1.67440
C     0.14163   1.54679  -0.05967
C     1.18791   2.55462   0.32826
H     4.61849   0.35011  -0.30127
H     4.77774  -1.16922   0.61576
H     4.61183  -1.21728  -1.16433
H     2.31195  -1.17646  -0.92132
H    -0.57219   0.39821   4.03238
H     0.24598   1.58237   2.95330
H     1.18792   0.25501   3.63852
H     2.16144   2.29254  -0.19381
H     1.43581   2.46326   1.41692
H     0.99708   3.61158   0.11663
