16

C 4.478161193 -0.911636310 0.545998361
C 1.699385709 -0.483963396 0.433091628
N 0.599228431 0.247621472 -1.725495092
O 0.433241654 -0.786966505 2.441621697
C -2.106605551 0.169086136 2.824335646
C -2.130311447 0.369765489 -1.959843411
C -3.139156309 1.471243799 0.538453422
H 4.928709242 -1.962790628 2.253902729
H 5.139342179 -1.964794078 -1.098608496
H 5.490605397 0.889476380 0.610435225
H 1.709569973 0.627128367 -3.212849618
H -3.165535733 -1.456850341 3.502001091
H -2.576059951 1.540915072 -3.599630957
H -2.917302159 -1.512804356 -2.274007885
H -2.670234963 3.491031099 0.518205366
H -5.199133529 1.347034501 0.591688972

