16

C 4.418039991 -1.601469248 0.323551102
C 2.251530858 0.197291773 0.433677141
N 1.983119205 2.050855380 -1.041609934
O 0.549779836 -0.520577066 2.226067271
C -1.794902389 0.471830731 2.309332592
C -2.697494621 -0.072428157 -2.270598422
C -3.488029892 1.093102099 0.035817642
H 5.232651752 -1.854050835 2.200013126
H 3.772221571 -3.447538863 -0.335623183
H 5.841584891 -0.878308836 -0.966519588
H 0.455474206 3.114217272 -0.570436205
H -2.734291198 -0.352831804 3.940559489
H -2.202939461 1.008770822 -3.930768799
H -2.246842864 -2.068526266 -2.284709158
H -3.934691398 3.102485323 -0.125100021
H -5.194131877 0.141151090 0.760935112

