19

C 4.489121226 0.798938638 -1.361884101
C 2.172463130 -0.925177124 -1.299563314
C 0.682492183 -0.559329453 1.100219790
C -0.904557339 1.834484762 1.450422947
C -3.478161799 0.633167194 1.459994202
C -3.986506668 -0.903287803 -0.843238183
C -2.895202341 -2.199208613 1.416665107
H 5.518194812 0.582333146 -3.135075653
H 5.786026546 0.358612646 0.181586372
H 3.952238412 2.784156837 -1.187391893
H 0.980429635 -0.529037824 -2.937678981
H 2.768738600 -2.897417554 -1.459222098
H 1.807491933 -1.004654091 2.772752359
H -0.615245202 3.237570921 -0.043070241
H -0.462781909 2.741040223 3.246702002
H -5.022934558 1.380121432 2.577426317
H -5.939954584 -1.450002521 -1.140887849
H -2.962465706 -0.567099610 -2.584111205
H -0.691417171 -2.667898770 1.516747194

