11

N -2.444192594 2.868163044 -0.239034935
C -1.132869817 0.760163593 0.288176809
C -1.005335338 -1.868952120 -0.828771083
N 1.286362028 -2.785373840 -1.005226603
C 2.842018078 -0.867960620 -0.339446874
N 1.647426688 1.087641660 0.546309410
H -4.094068084 2.906284942 0.722739003
H -1.601375196 -0.237887134 2.168574263
H -2.664456237 -3.045193362 -1.072915572
H 4.876433105 -0.997352511 -0.493208900
H 2.365013353 2.795729029 0.990884300

