17

C -3.894904651 -0.441290564 0.664316703
C -1.145010438 -0.253129797 1.359619321
O 0.021679788 -2.678569751 1.776633972
C 2.130872809 -2.139599923 0.234439121
C 0.988695127 -0.832132924 -3.018929684
C 0.819409531 0.484531032 -0.688232264
C 2.252673670 2.919886019 -0.330324523
H -4.682733192 1.445119053 0.379642048
H -4.151986470 -1.540510141 -1.059147368
H -4.945662920 -1.358989399 2.182903508
H -0.904287241 0.912089637 3.055238201
H 3.856481039 -1.634170656 1.246634882
H 2.585118920 -3.644454089 -1.117532818
H -0.550773132 -2.227774828 -3.158719642
H 1.025296496 4.499276425 -0.843660480
H 2.844854368 3.195837869 1.627928532
H 3.896629895 2.967435629 -1.567784332

