12

C -3.076349295 -0.671524421 -0.559231924
C -0.652266997 -0.433333135 0.757294044
O 0.968470749 -2.330686440 0.860995826
C 0.786735996 1.841973010 1.421875762
C 2.976179543 -0.618432168 0.364749570
O 0.433447275 3.947961773 0.432913465
H -2.754675693 -0.254245926 -2.562484026
H -3.817539811 -2.586464084 -0.402446979
H -4.397577091 0.739192943 0.147011414
H 1.409008409 1.635734045 3.432211294
H 3.259561588 -0.341429253 -1.643317781
H 4.656736702 -0.986849772 1.479903998

