11

C -2.888066490 -1.041034022 -0.862180628
C -1.326598038 1.324558665 -1.013759113
H -1.940461114 2.683361737 -2.427208076
C -0.050608453 2.403568471 1.220310015
H -0.202460060 1.449298315 3.027496663
H 0.154942670 4.439391383 1.340503172
N 1.397018040 1.031919570 -0.692703696
H 2.357797302 2.247985902 -1.812417013
H -2.141875740 -2.295455180 0.593616965
H -2.854916045 -2.059259408 -2.656623851
H -4.852536271 -0.600378065 -0.406489954

