14

C -2.999923518 -1.736249712 -0.336850825
C -1.236271775 0.262490045 -1.064918346
C -0.076614089 2.231916767 0.481848887
N 2.410796768 1.338168510 -0.156088713
C 3.330898390 -1.044479200 0.956962846
O 5.614499129 -1.289496346 0.953592973
O 1.514821979 -2.370872581 1.659050205
H -3.265848083 -1.871843438 1.690529111
H -2.398582675 -3.562248413 -1.076815457
H -4.783463191 -1.256852423 -1.301160038
H -0.872536743 0.488664808 -3.071266253
H -0.526334193 2.151574646 2.487636037
H -0.378169668 4.123186628 -0.281716931
H 3.681754750 2.540628947 -0.914628899

