14

C 2.626976845 -2.385622990 -1.654220972
C 0.155183119 0.332223566 1.838760627
C 1.780603115 1.759866167 0.107537794
O 0.866303840 -0.355916158 -1.388713015
C -2.436283032 1.308324576 1.939027208
O -2.812899704 3.005105241 3.457736997
N -4.282595250 0.254703032 0.504496499
H 4.062396652 -1.848302478 -3.035397078
H 3.477615498 -2.827411365 0.169032865
H 1.564705004 -4.007657825 -2.338566806
H 1.158740319 3.531758854 -0.740764439
H 3.818794231 1.690459645 0.391177654
H -6.079136032 0.727280204 0.896252995
H -3.937290206 -1.301327222 -0.517857807

