17

C -3.665664469 -1.051350944 0.406514312
C -1.737815577 0.278367581 -1.243753730
O -0.919890350 2.616123165 -0.094437873
C 1.634668712 2.673763346 -0.412230772
C 2.694777327 0.003939928 0.031306866
C 2.395568599 -0.897381445 2.534865679
C 0.736726586 -0.963014940 -1.858409942
H -5.232652376 0.223180038 0.824638176
H -2.833772220 -1.711026252 2.167485988
H -4.411670348 -2.687965885 -0.602053799
H -2.670346626 0.790223410 -3.024852463
H 1.611965051 1.507214509 -2.858083471
H 2.444723078 4.426428258 0.306491033
H 4.594347337 -0.147288448 -0.739211935
H 0.675038593 -0.516507806 3.565203548
H 3.892324929 -1.865747201 3.539882446
H 0.739411377 -2.844427441 -2.689006614

