11

C -2.983085982 1.183774239 -0.953525907
N -0.616661778 0.516820895 -0.682548686
C 0.953445745 -1.464945871 -0.978781700
H 0.453711035 -3.319906553 -1.644840522
C 3.325035402 -0.173471718 -0.088024652
H 4.174422678 -0.802899164 1.691083973
H 4.831561993 0.172640579 -1.463505030
C 1.529772302 2.049997331 0.225973337
O 1.540019965 4.177237331 0.877514074
H -3.468370372 3.099142983 -0.463139049
H -4.340154154 -0.171831436 -1.638998925

