13

C 2.596418707 1.100579953 0.097291605
C 0.778737258 -0.921448278 -0.789533395
C -1.052798398 -1.976591657 1.208567937
C -1.736791534 -0.321952659 -1.804516295
C -2.699145996 2.112189937 -1.124857567
N -3.569614226 4.087236951 -0.810162742
H 3.482874379 2.011090988 -1.525709806
H 4.091350015 0.282583409 1.258257529
H 1.630327558 2.559017248 1.188792274
H 1.718658913 -2.431956107 -1.817320512
H -1.066711922 -0.905659862 2.954994277
H -0.964319909 -4.017510743 1.395842989
H -3.044661839 -1.815408771 0.274242838

