12

C -3.055421826 -0.028807174 1.558641119
C -0.255357879 -0.730876674 1.644833417
C 1.302745405 -0.228256919 -0.441641222
O 0.665215268 -1.522426615 -2.394340391
C 3.633369843 1.372939679 -0.621961837
O 4.916925458 1.887839157 1.170204342
H -3.359720210 1.844251169 2.375585993
H -3.786575194 -0.018270874 -0.368719544
H -4.174935928 -1.374203263 2.644988996
H -0.475430375 -2.522362816 -0.489570780
H 0.604034723 -0.575895983 3.502550170
H 4.086317183 1.993610417 -2.568049459

