17

C 3.832581767 -0.886342194 0.434776565
C 1.473750161 0.595949568 1.079552498
C -0.014006574 1.865211293 -1.096661417
C -2.430872520 1.125484465 0.294548323
O -4.653385896 0.375990171 -1.169386355
C -4.627127320 -1.383831078 -2.841336189
C -0.960363692 -0.880007303 1.757642734
H 4.562861533 -1.880277985 2.089611150
H 5.324412412 0.357306184 -0.263666626
H 3.439413097 -2.290668938 -1.027745505
H 1.883401381 1.986321497 2.549845935
H 0.292070571 3.860715461 -1.494090701
H 0.193031064 0.775143225 -2.838211225
H -3.138555621 2.627859442 1.506442707
H -2.654395505 -2.179766638 -2.932011863
H -0.995296905 -2.691482495 0.767023110
H -1.442699467 -1.170571894 3.736681983

