17

C 3.470064682 -1.153604383 -0.094020375
C 1.382249074 0.535447340 0.897668267
C -0.058992015 2.291042329 -0.966761605
C -2.605475900 1.424521511 0.204436884
O -4.232915522 -0.029054029 -1.293810988
C -2.948573177 -2.350720977 -1.293125301
C -1.150442588 -0.587861105 1.728024471
H 4.110566036 -2.475288113 1.355500644
H 5.092572081 -0.026220252 -0.687780790
H 2.836058014 -2.255131656 -1.720054438
H 2.113483549 1.642715015 2.486000158
H 0.339689704 4.301959841 -0.792981106
H 0.127945570 1.751637204 -2.946404792
H -3.664729508 2.886816908 1.198488875
H -1.214834609 -2.154028852 -2.441421878
H -2.056959177 -2.693520111 0.949868607
H -1.521534645 -0.998883548 3.716074501

