14

C -3.118976131 -0.682351720 0.957166502
C -0.950534357 0.082293378 -0.746860431
C -0.814435223 2.773722318 -1.215863848
N -0.655291503 4.916144982 -1.529992323
C 1.778091253 -1.113946988 0.799166747
O 1.492537913 -3.336228911 1.548004625
C 3.676941523 -0.129503990 -0.802066834
H -3.221709391 0.524449417 2.623340407
H -4.891865894 -0.538529124 -0.086369385
H -2.819865707 -2.630440656 1.549566162
H -0.981361743 -0.953805322 -2.521318743
H 5.159356854 -1.325025862 -1.572814405
H 1.600349321 0.491222968 2.234415212
H 3.735012750 1.879903990 -1.189567100

