15

C -3.784470795 3.870976863 0.150897088
C -1.870220598 2.250850803 1.513540461
H -2.025215330 2.270607285 3.567848881
N -1.327762337 -0.225605331 0.417426026
C -2.506640408 -2.227557868 -0.383430968
H -1.543331691 -3.500583097 -1.654805256
H -4.345848239 -2.651158121 0.386265821
C 0.545794517 1.398187214 0.396521724
C 2.242858603 2.141674276 -1.705939166
H 1.191236805 2.598237796 -3.440171312
H 3.553841834 0.614665774 -2.155703281
H 3.366588873 3.785143745 -1.181074822
H -5.716445621 3.429115507 0.724260932
H -3.433081834 5.854483084 0.597949862
H -3.639516896 3.632513117 -1.892192482

