20

C -3.224068355 3.494991228 1.101606660
C -1.434710612 1.283839640 1.197102326
N -1.628480880 -0.612346362 -0.807394142
C -1.930848020 -3.209461415 -0.551649096
C 0.494557087 0.671630170 -0.698538093
C 2.893479516 -2.600561044 1.256203775
C 2.417465499 1.700753588 -2.425262225
H -5.031983323 3.024433209 1.979732193
H -2.426809703 5.104466073 2.117418715
H -3.576301211 4.066076478 -0.847424229
H -1.064133467 0.531374678 3.085048820
H -1.633206423 -4.232772961 -2.313378363
H 0.450164284 -3.282197238 0.674168261
H -3.681978872 -3.739785613 0.386023502
H 3.515718632 -1.022489837 2.427786975
H 3.093712458 -4.303614164 2.414406013
H 4.163596210 -2.793275295 -0.356017618
H 1.837994645 3.529796525 -3.194993369
H 2.759183105 0.394522961 -3.980971944
H 4.190391298 1.975238348 -1.405471824

