9

O -1.873483872 -3.604214922 1.039385538
C 3.489806310 0.771060132 -0.383717280
C 1.049389011 0.774972866 -0.255290793
C -1.418369810 0.729591604 -0.117208411
C -2.822187557 -1.596093979 0.565696942
H 4.445495973 0.312181433 -2.135551507
H 4.628386294 1.210400896 1.260508136
H -2.503278774 2.424812111 -0.508118159
H -4.902278512 -1.360201999 0.615217366

