9

O 0.267489637 -2.371926519 0.076850740
C 2.089278690 -0.577153199 -0.480213102
C 1.130979467 1.895156442 -0.756857404
C -1.500028939 1.464982550 -0.063854847
C -1.880699073 -1.027357563 0.297958995
H 3.883099078 -1.360546420 -1.065813584
H 2.567916063 0.929277414 1.230100648
H -2.937522437 2.905713603 0.060729902
H -3.540582741 -2.119425510 0.766912126

