11

C -2.147753865 2.564463269 0.220403369
N 0.349158347 1.700786790 -0.552789224
C 1.106003562 -0.659395346 -0.556874189
O -0.430033844 -2.425716383 0.169681835
C 2.202222424 -3.689890777 0.155776644
O 3.254701609 -4.185590525 2.083021126
H -3.117103299 1.015577237 1.159416387
H -1.962605321 4.138220892 1.535073399
H -3.255575154 3.163416537 -1.411348476
H 1.614251374 2.994689524 -1.128835270
H 2.386734186 -4.616563109 -1.673525620

