12

O -3.681053548 -1.967286267 -0.770236646
C -1.570881990 -0.624855895 -0.271137564
C 0.924940473 -1.947815077 -0.328637414
C 2.737377990 0.139530801 0.302962990
C 1.437787709 2.279993384 0.658519420
C -1.271594271 1.828103327 0.302076557
H 1.276281227 -2.784664267 -2.187098095
H 0.974172507 -3.493166319 1.045378691
H 4.758581848 -0.105973914 0.442825551
H 2.236373327 4.098915213 1.142652759
H -2.746003909 3.232634786 0.480031159
H -5.128566790 -0.878953383 -0.664910190

