12

O -3.708569473 -1.784740840 -1.087857580
C -1.639059094 -0.990122116 -0.147406499
C 0.929599707 -2.164789840 -0.084968795
C 2.549880347 0.194103351 0.027868528
C 1.136168901 2.277304323 0.276804229
C -1.579415709 1.635125478 0.344817117
H 1.256375154 -3.377460184 -1.720413694
H 1.140076363 -3.334195131 1.611481130
H 4.589180864 0.134665606 -0.061210988
H 1.877302668 4.175774172 0.434057694
H -2.871324669 2.423813372 1.731501869
H -3.695300742 0.689654926 -1.241950251

