15

C 3.914352541 1.364863556 -1.300657182
C 2.321731312 -0.805641704 -0.300072786
H 3.129670394 -2.613022786 -0.869109063
C 1.498923865 -0.765689114 2.456605336
H 2.666262607 0.481930731 3.613546975
O -0.934777348 0.627325201 2.184932677
C -1.731670868 0.377592734 -0.026165809
C -4.327952343 1.030884473 -0.815582741
H -4.283659449 2.115783819 -2.564607625
H -5.383006205 -0.707811622 -1.172458540
H -5.262499844 2.099157309 0.668247541
O -0.182039037 -0.699041876 -1.594607199
H 4.150970591 1.265959599 -3.349809087
H 5.778562600 1.266819878 -0.423355552
H 3.072052398 3.183672776 -0.802745434

