11

N 1.767820006 0.826220066 1.877636526
C 2.145940692 0.983340022 -4.416040264
N -3.057552794 -2.948014857 0.029888060
N -0.891460706 -2.333487846 0.010580199
C -0.054209742 0.499149840 -0.062841160
O -2.217635446 1.822037306 0.139473769
N 1.166715341 0.815032056 -2.449049833
H 0.901994587 1.255589009 3.525464195
H 3.049862082 2.169500928 1.443942434
H 0.650841689 -3.536538746 0.112009699
H -3.565749868 0.517464385 -0.016285754

