11

N 2.451507176 0.827923068 0.601047973
C 2.343993759 1.008860886 -2.230916573
N 0.352882392 -4.122556537 -0.364946782
N -1.194327584 -2.592614443 0.212704417
C -1.079995318 0.224149260 -0.325135921
O -3.042913521 1.233427945 0.832772030
N -0.134976221 1.118108089 -2.489827798
H 3.949807998 -0.145529642 1.309248255
H 2.453633779 2.592446692 1.352974968
H -2.884377064 -2.979544768 1.138806845
H -3.318669613 2.905615904 0.158046678

