13

C -2.322002450 0.778540065 -0.226756458
C -2.579632667 -1.757777151 1.149709658
C 0.028075510 -1.471397774 0.526103098
C 2.317764758 -1.274843637 -0.006883516
C 3.844699579 0.433951397 -1.193364485
H 0.072261388 2.197178745 -1.393962750
H -2.728834595 2.397654139 0.958050724
H -3.262030345 0.820651307 -2.044961589
H -3.614588668 -3.223417949 0.152274547
H -3.073383257 -1.653325015 3.139546065
H 1.750049834 2.322768941 -1.775264166
H 5.111880017 1.592371917 -0.067856153
H 4.528349824 0.011981298 -3.083335859

