11

C -2.967718503 -1.605998959 -1.496863326
C -0.603247558 -1.576347777 0.079440855
C -0.610843614 -1.529728347 2.593771126
H -2.372791220 -1.512333248 3.635900716
H 1.131459854 -1.509099851 3.663877280
C 1.737892583 -1.599199025 -1.293864562
C 3.651075651 -1.619469040 -2.508276117
H 5.362526242 -1.636335583 -3.564361978
H -4.647045223 -1.593674430 -0.305256324
H -3.014380187 -3.285272805 -2.694804180
H -3.024109895 0.037831486 -2.742676310

