8

C 2.344335006 2.534598698 -2.761875209
C 3.273333232 0.435882697 -1.754579413
C 3.501020059 0.126516767 1.024252668
O 2.874790559 1.698038788 2.544119573
H 4.308398950 -1.695855814 1.665375023
H 3.899366030 -1.129539893 -2.921411236
H 2.170661427 2.775979407 -4.786472599
H 1.733095324 4.071035989 -1.551898217

