16

C -4.269877280 0.294523152 -0.092375369
C -1.770827429 -0.645414264 0.902160071
C 0.691823783 1.208767889 -0.902677270
C 3.079651195 -0.165211026 -1.427566483
C 4.672387300 -0.532942357 0.666892778
O 4.101617294 0.051553203 2.857032349
H -5.817836079 -0.492841178 1.020600148
H -4.392389264 2.348900547 0.030428162
H -4.564595225 -0.259805727 -2.056833113
H -1.311751991 -0.112862683 2.828319076
H -1.628138065 -2.718629564 0.767775523
H -0.395728965 1.732289432 -2.554604567
H 0.866211584 2.638416869 0.558721755
H 3.512818261 -0.777146770 -3.323489095
H 0.452588783 -1.037049742 -0.364657238
H 6.527729783 -1.417442710 0.276899264

