15

C -2.872914023 1.582660842 -0.512593427
C -3.134595398 -1.108956221 0.337245343
C -0.966129020 0.440785667 1.256990109
N 1.514655173 -0.121701197 0.353592589
C 2.422680840 -2.040913984 -1.083083262
C 3.640032602 1.285372624 0.375235943
H -2.265549508 1.889887772 -2.441440700
H -4.157460912 2.986969407 0.232928304
H -4.593614086 -1.585894768 1.685515271
H -2.724522750 -2.564600916 -1.038763818
H -0.994715322 1.062182268 3.206560232
H 2.299679096 -3.992741857 -0.437783781
H 3.004145865 -1.665223505 -3.002740778
H 3.617494046 3.249459339 -0.250813919
H 5.295399428 0.559682548 1.319473166

