16

C -2.053029226 -0.112857694 2.483622561
C -3.464049702 1.601336287 4.133947504
H -5.424875147 1.061077383 4.456583790
H -3.263462134 3.644544663 3.809727041
H -2.459707473 1.176978084 5.920095472
C 0.063625737 1.150257395 1.206198901
C 2.284080446 -0.539716194 0.537138758
C 4.081573120 0.659457631 -1.355217260
H 4.802360547 2.453052235 -0.632276378
H 3.136926564 1.001754722 -3.158523450
H 5.693445821 -0.578576654 -1.718792403
O 3.519790028 -1.016467582 2.876151256
H 4.808436149 -2.262063946 2.614506372
H 1.517818216 -2.307860023 -0.225146185
H 0.738037319 2.918612987 2.079442061
H -0.926723317 1.710877777 -0.549828572

