14

C 3.251821988 1.178304143 -1.335341877
N 0.825902648 1.401377808 -0.915621686
C -0.290707360 -0.683466998 0.035372801
N 1.032697608 -2.581892628 0.812655177
C -3.128310566 -0.594189722 0.495925306
O -4.191123775 -2.338459489 1.535171627
N -4.251358890 1.512104402 -0.367576203
H 4.032967286 -0.557195404 -2.126643772
H 4.372547669 0.076783541 1.462488055
H 4.355374972 2.895183274 -1.557139599
H -0.056627552 -3.789476963 1.841528225
H 3.382487800 -1.243756451 1.646026099
H -3.169654447 2.912031146 -1.061494086
H -6.115911293 1.744237735 -0.110440640

