10

C -2.309045750 -1.848236224 -0.824929817
C -0.903614139 -1.779630567 1.251843421
C 1.502503440 -0.416554484 1.501750611
C 3.234012907 -0.209570703 -0.301383595
H 2.999463728 -1.121775008 -2.121556252
H 4.957344999 0.853290411 -0.005485610
H 1.864442572 0.444356626 3.331444540
H -1.565606611 -2.757622815 2.932508294
H -4.055008295 -2.913315933 -0.891491830
H -1.774904230 -0.816737401 -2.513303167

