12

O -2.322981384 4.457664883 0.963096765
C -1.308191709 2.875019839 -0.143984375
C -2.108831100 -1.159722731 -1.409874584
C -0.596501046 -1.311654859 0.724040307
C 2.904051305 -0.418738554 -0.147423204
C 1.008380423 0.918475512 1.153099259
H -3.735093083 -2.392967486 -1.599124230
H -1.364735471 -0.449881429 -3.173088325
H -0.978568369 -2.577200136 2.281668570
H 2.718878044 -0.899753108 -2.116453840
H 4.729273972 -0.767356344 0.720673438
H 1.473945351 1.496348300 3.071091624

