17

C 4.286135085 -0.588995186 0.044280856
C 2.336647827 1.495224801 0.421145177
C -0.133376870 0.602095694 1.592466064
O -1.797377080 2.479636562 2.043223702
C -4.254868055 -1.019205228 0.855433455
C -3.733546436 0.152818372 -1.446023646
C -1.712689155 -1.369683189 0.048065770
H 3.625298861 -2.019388322 -1.291396088
H 4.716316951 -1.542991049 1.825351357
H 6.055622699 0.166939993 -0.696837283
H 1.898570288 2.413764545 -1.380222627
H 3.080238012 2.970946571 1.660590294
H 0.295175731 -0.514148237 3.305362427
H -5.773384430 -1.897013570 1.895630158
H -4.747635023 -0.220248506 -3.181898285
H -3.099006545 2.142368051 -0.955910628
H -0.992962526 -3.229404904 -0.419530103

