12

C -2.812765987 0.106471044 0.818590448
C -0.650520455 0.666717978 -0.848852068
C 1.752701592 1.355812222 0.012854900
C 2.685659361 -1.869167397 -0.427664297
O 4.795184879 -2.284370651 0.196698663
O 0.846831006 -3.010439503 -1.330145943
H -3.949670539 1.838149640 0.914385333
H -2.207129324 -0.375260453 2.725122776
H -3.997218089 -1.387281169 0.049444438
H -1.043786124 0.778812355 -2.856779919
H 2.961177008 2.427456027 -1.244604542
H 1.983106714 1.757553974 2.008564386

