13

C -3.663175303 0.677906914 0.746499286
C -1.736155811 -1.204479269 -0.236650535
N 0.516787636 0.066960650 -1.145974217
C 2.393240117 -1.647597992 -2.160562863
H 3.981600901 -0.577772632 -2.923293366
H 3.120985401 -2.847239826 -0.645057351
H 1.670397348 -2.900887563 -3.658681062
H 0.031280750 1.359334596 -2.468149238
H -1.166552333 -2.479837213 1.290182922
H -2.607832238 -2.406469881 -1.702904795
H -4.282497041 1.956716330 -0.753724124
H -5.334219996 -0.286364864 1.474337753
H -2.850554689 1.818868576 2.259082582

