17

C -3.894614918 -0.401084676 1.109289682
C -1.201637763 -0.895465867 1.832711954
O -0.458518082 -3.433284602 1.542862756
C 1.279580405 -1.830187979 0.394349767
C 1.387753110 -1.383003302 -2.378772336
C 0.319204846 1.037277529 -1.443699831
C 2.291160589 2.926501648 -0.665505889
H -4.283018284 1.617266092 1.145288662
H -4.289754648 -1.107463677 -0.777845534
H -5.114095589 -1.370642981 2.474175915
H -0.636671181 -0.093385295 3.646230677
H 3.010823363 -1.541368247 1.455111452
H 3.331918729 -1.388663655 -3.065657112
H 0.148335658 -2.576016846 -3.501669463
H 2.441940929 4.189387193 -2.299462533
H 1.669336740 4.106654737 0.907696779
H 4.205853831 2.209799866 -0.272283022

