10

N 1.001852383 -1.576170747 -0.388678283
C 2.634532518 -0.341564539 1.015753511
O 1.688409972 1.768143206 1.759288856
C -0.743831125 1.967181236 0.789154241
C -1.307249718 -0.188086841 -0.644221922
N -3.105461245 -1.158279925 -1.970557591
H 1.247575550 -3.274128145 -1.210205725
H 4.518047113 -0.899154442 1.547472062
H -1.767183433 3.645833457 1.275281373
H -4.628132900 -0.002944363 -2.006435043

