10

N 1.410978694 -1.209026876 -1.043970939
C 2.190685400 -0.413530771 1.170903050
O 0.838022520 1.267425781 2.267471738
C -1.428087424 1.749148170 0.602948660
C -1.271848874 -0.370032280 -1.166825625
N -3.256870694 -1.391707513 -1.846631109
H 2.153588810 -2.737826252 -1.905080527
H 3.838033041 -1.146445212 2.145960099
H -1.135822212 3.645713742 -0.145256765
H -3.800122036 0.547110106 0.087329139

