12

O 3.504642683 -1.051928841 -1.645511621
C 1.287815133 -1.520242054 -0.758363648
C 0.388769708 -0.574465044 1.770437616
C -1.512198529 1.273791343 0.734538529
O -0.412242790 2.001477989 -1.617058336
C -2.792774631 0.174495799 -1.483509690
H 4.230996524 0.422400182 -0.842343870
H 0.336071143 -3.051547037 -1.710831025
H -0.403835248 -2.111225194 2.898425968
H 1.956959689 0.313741534 2.791932494
H -2.211471991 2.810712119 1.909289760
H -4.380180972 1.384916291 -2.038481605

