9

O -1.450689777 0.885741355 -2.008620587
C -3.502023276 0.451680978 -0.342190870
C -5.617956705 -0.751820093 -1.835320380
H -7.241911898 -1.122349220 -0.618971988
H -4.990947239 -2.535387527 -2.657364983
H -6.213709760 0.492817840 -3.367073625
H -4.152048340 2.234308575 0.496653190
H -2.929456632 -0.800633968 1.209561234
H -0.089713387 1.636064842 -1.080819541

