9

C 4.562953487 -1.563041384 -0.744387819
C 3.392594188 -0.222594487 1.450882415
C 3.651966052 2.214793732 1.951491445
H 2.757926229 3.075708093 3.579141790
H 4.775586302 3.440027995 0.750208195
H 2.248779096 -1.376129839 2.710211779
H 3.116588765 -2.446479503 -1.925253939
H 5.815870367 -3.074951295 -0.102522593
H 5.659666210 -0.272247646 -1.919362378

