8

N -2.682965273 -0.424493658 0.354246491
C -0.286810726 -0.173923117 -0.244655679
O 0.832963969 1.938076355 0.236882650
C 3.006942187 0.037623578 -0.335299454
O 4.320708210 -0.737548012 1.314802406
H -3.637853521 0.995625188 1.208704904
H -3.581150512 -2.059739776 0.019694801
H 3.449865210 0.275348101 -2.330851791

