14

C 2.081891392 0.538816627 -0.724950247
C 0.435860115 1.961265562 1.003162077
C -2.184434791 0.784120218 0.651223962
C -1.417158628 -1.914179332 -0.108765908
C 1.168895404 -2.011285535 0.126800510
O 1.889108543 0.586673356 2.745673075
H 0.732747106 0.422520519 -3.218162640
H 4.015605692 1.059687206 -1.132810404
H 0.587181578 4.004653311 1.169333027
H -3.229573543 0.761401383 2.429389538
H -3.310840478 1.789868763 -0.757398754
H -2.638613911 -3.510192166 0.258917102
H -0.510555792 -0.855079774 -2.836304605
H 2.357853124 -3.668395142 0.250786178

