19

C -4.026472769 0.799867778 1.133479858
C -1.745481345 -0.761502804 0.306801950
C -2.282410004 -2.075351541 -2.215171980
O -0.321462993 -3.710118141 -2.969683818
C 2.826169248 0.295354990 1.057499829
C 5.151824481 1.878316053 0.783644026
C 0.583702366 0.842788145 0.076328381
H -5.712213938 -0.378907965 1.301416493
H -4.434782019 2.292378404 -0.235990340
H -3.688348326 1.696950589 2.958495279
H -1.386443624 -2.245285106 1.703459373
H -3.977844409 -3.240653215 -2.048387568
H -2.656739219 -0.638358763 -3.671500907
H 3.010221523 -1.422285700 2.175361309
H 6.686965589 0.803020163 -0.084264626
H 5.834751604 2.513176026 2.626648864
H 4.794614843 3.542774672 -0.379161868
H 1.240304300 -2.788391695 -2.845889447
H 0.381285165 2.564658364 -1.040076800

