19

C -4.450870826 0.942757775 0.515530855
C -1.981570424 -0.501938433 0.792280093
C -1.369505158 -2.233744189 -1.596368121
O 0.816971992 -1.314301137 -2.752803522
C 2.553438285 -0.248264792 0.513067276
C 5.055434181 0.917025318 0.008061099
C 0.318329978 1.173201675 0.822308673
H -6.056753511 -0.347699195 0.397865319
H -4.435859484 2.084572100 -1.206782108
H -4.775054193 2.207266537 2.114780261
H -2.078711134 -1.706860559 2.469735096
H -1.130597875 -4.211132214 -1.023798812
H -2.961812164 -2.154547449 -2.918676538
H 2.602197925 -2.242769030 1.006696810
H 5.953750228 -0.027298209 -1.588694510
H 6.277409630 0.645151894 1.651579758
H 4.898442084 2.929428021 -0.397783116
H 0.572126981 0.974374670 -1.634910503
H 0.351283570 3.107892944 1.487663440

