9

C -0.020542495 -2.934987218 1.505485957
C -1.773747717 -1.579627623 2.675497056
C -2.691818847 0.896865719 1.758502692
N -2.933214768 1.603078482 -0.513113536
H -2.455010785 0.177170725 -1.722494490
H -3.219838128 2.253206516 3.223338392
H -2.566830321 -2.242744652 4.448803560
H 0.608379336 -4.737034699 2.241898376
H 0.879250467 -2.269198305 -0.212464214

