13

C 0.729350380 -2.530548581 0.457548521
C 2.760587984 0.445988782 -1.269385012
C 1.176249482 2.194547093 -1.442885794
C -1.517503444 1.480739578 0.577453212
N -3.777773983 1.116805066 -0.462660664
C -0.622067605 -0.840836455 1.840148971
H 1.609827563 -4.150078187 1.355380703
H 0.319904952 -2.783977805 -1.534254827
H 4.560239028 -0.430598475 -1.562348705
H 1.017687343 4.020341666 -2.316814169
H -1.393489109 3.178186126 1.752035520
H -3.846952680 -0.657367821 -1.203911330
H -0.999505873 -1.075883822 3.838886044

