12

C -3.697402703 0.735342588 -0.115758594
C -1.809879092 -1.293319206 -0.609195206
C 0.762888862 -0.918125384 -0.407436272
C 2.783887457 0.431040595 -0.431024892
C 4.933603878 0.878354114 1.102686525
O 5.257477141 2.698251324 2.463616711
H -4.121922231 0.900973285 1.899125150
H -2.946079173 2.552676726 -0.740374343
H -5.468031106 0.316193473 -1.084723186
H -2.474652542 -3.200911821 -0.963092022
H 0.406824927 -2.506022808 1.104189198
H 6.427515962 -0.578325944 0.852219296

