17

C 3.145917522 -1.563263975 -0.344218867
C 0.592328304 -0.356105093 -0.027369546
C -1.080716135 -0.008341232 -2.363383578
C -3.579765343 1.049000937 -1.271504831
C -1.337392664 -1.267384907 1.943538967
O -2.374523154 1.311502472 1.839199005
C 0.221525545 2.166248520 1.345578977
H 4.324133452 -0.446226359 -1.617382651
H 2.960843811 -3.449299955 -1.159206703
H 4.136080230 -1.736223539 1.459104236
H -0.133615448 1.229532369 -3.730100823
H -1.387812315 -1.838887824 -3.275934610
H -3.633261827 3.100458535 -1.604645405
H -2.762131059 -2.649411995 1.420209723
H -0.558964717 -1.587955684 3.827141264
H 0.251853098 3.932373630 0.293072031
H 1.231017241 2.325378313 3.139198544

