17

C 3.132952659 -1.671184967 -0.148012251
C 0.665201718 -0.272014813 0.009314744
C -1.021331850 0.318693694 -2.323039248
C -2.962636651 0.822841009 -0.224390559
C -1.766358605 -1.391787335 1.222446690
O -1.964177989 2.996892510 1.034251983
C 0.653217548 2.331278076 1.260849572
H 4.525718702 -0.594268505 -1.227794842
H 2.890982942 -3.499581391 -1.071916436
H 3.913991697 -2.008843783 1.733960290
H -0.504123051 1.904555183 -3.534759210
H -1.437507954 -1.363566788 -3.434997677
H -4.978395508 1.055963085 -0.536983536
H -2.253309809 -3.234967766 0.444717261
H -1.934228929 -1.379188474 3.277340679
H 1.831595220 3.709989337 0.266330895
H 1.208409842 2.275190929 3.252681643

