17

C 3.135285583 -1.623430776 -0.282328976
C 0.622838424 -0.315073829 0.024777333
C -1.030493299 0.162276357 -2.297201911
C -3.388737011 0.940309710 -0.871002777
C -1.417717042 -1.438976120 1.701319655
O -2.265092875 1.878252274 1.772021698
C 0.386053964 2.235915938 1.365105668
H 4.367224669 -0.516893329 -1.512842264
H 2.903107028 -3.486238659 -1.137370653
H 4.093818867 -1.860390678 1.530288405
H -0.166226225 1.492203961 -3.635890965
H -1.348424885 -1.632325395 -3.285318480
H -4.401837706 2.567809898 -1.624541292
H -2.546550725 -2.994845181 1.000315998
H -1.071389070 -1.507864197 3.729472829
H 0.791246319 3.924046514 0.251378701
H 1.338738338 2.314800571 3.194750237

