14

O 4.574077757 -0.202769314 0.192731618
C 2.557366610 0.733023611 -1.260054054
C 0.043800922 -0.047063648 -0.223791383
C -0.688471409 -2.170752815 1.264555609
N -0.431418030 -0.046321798 2.563586001
C -2.681538227 0.561321924 -1.076973494
O -3.704289507 2.219758799 0.378461782
H 4.329980851 0.341255852 1.908646233
H 2.604035721 2.800901153 -1.402694550
H 2.786093769 -0.032038492 -3.162552233
H -0.791165684 -4.175266951 1.630317712
H -3.366790507 -1.622581004 -0.399356540
H -2.142712340 1.199922515 2.590913897
H -3.154035105 0.508351162 -3.090842701

