15

C 3.742104023 -0.716294527 0.054839399
C 2.046940189 1.171591288 1.323278546
O 0.548962416 2.760319511 -0.236307625
C -0.716534881 1.045922592 1.388981469
C -5.166080972 0.506440630 -2.947873260
O -4.631340975 0.002071045 -0.626340086
C -2.205818062 -1.010665046 0.149114490
H 4.307616207 -2.180313922 1.394248042
H 2.836589216 -1.607972986 -1.563249726
H 5.449679125 0.222749539 -0.618318596
H 2.922488853 2.173442689 2.893193940
H -1.685178956 1.941251114 2.966942581
H -3.479499026 -0.053987642 -4.112737180
H -1.261152968 -1.761263355 -1.522458287
H -2.617872674 -2.524526250 1.486375762

