17

O 5.110480562 0.045490621 2.245631115
C 2.846612361 -1.232240196 1.583571085
C 0.680161225 0.534017951 2.035657220
C 0.059007019 2.512804997 0.082771044
C -1.678742266 0.317394734 0.513227959
O -1.806343358 -1.596520603 -1.278653740
C -3.359946750 -0.961875511 -3.341015833
H 6.501608193 -1.086256547 1.998652471
H 2.868259609 -1.816937181 -0.400847572
H 2.606166142 -2.935713855 2.741500257
H 0.435199656 1.070034552 3.997636853
H -0.511684998 4.377247531 0.696196420
H 1.183792040 2.467949513 -1.627008405
H -5.308502865 -0.594724080 -2.734568515
H -3.464398489 0.678642017 1.469966854
H -3.351212568 -2.566920498 -4.629294043
H -2.650299335 0.715488918 -4.328096643

