17

O 5.035402782 0.396711490 1.736180208
C 3.311378899 -0.690560747 -0.032189481
C 0.686163997 -0.454380225 0.951419826
C -0.592236804 1.963891166 0.977529586
C -3.129855436 1.776285695 -0.467761394
O -4.291082823 -0.528615224 -0.087088123
C -2.610315451 -1.943880346 -1.581035091
H 6.703012010 0.322058767 1.028145938
H 3.449730548 0.296690535 -1.854555808
H 3.770255935 -2.686464989 -0.350635527
H 0.082793947 -1.852090868 2.320200463
H -1.160893567 2.408662757 2.923553411
H 0.515647735 3.537571236 0.242552716
H -1.616553854 0.093176065 -2.362505762
H -4.463443628 3.345065365 -0.255105600
H -3.502024637 -2.319815583 -3.407968829
H -2.027819694 -3.736422694 -0.755411896

