9

C -3.070292856 0.833165357 0.373724484
C -4.056582399 0.034830638 -2.151286009
H -5.438732452 1.394277975 -2.864444346
H -4.958397085 -1.816444851 -2.057574717
H -2.531931936 -0.056387084 -3.542084299
C -3.229310758 -0.517491937 2.473692561
H -2.473191103 0.169005218 4.247697867
H -4.125911632 -2.362060448 2.495028684
H -2.153987693 2.671646853 0.447364994

