18

C 5.132507984 -0.342410909 0.835513077
C 2.763337271 0.904882788 -0.187004727
O 0.742193885 -0.816712551 -0.256937009
C -2.533034837 0.626984086 -0.382147390
C -3.705267856 -0.861561818 -2.470366378
C -3.002181230 0.081486313 2.194458692
H 5.663048953 -1.950209039 -0.340534506
H 4.811121166 -1.027727950 2.754327133
H 6.705479349 0.993462755 0.876481641
H 2.268476505 2.546014628 1.001225448
H 3.102061967 1.616099262 -2.103029792
H -1.912462648 2.520551079 -0.881221773
H -5.606862595 -0.119158363 -2.801552844
H -3.880209328 -2.844460436 -1.941467317
H -2.632531071 -0.724563118 -4.219715747
H -2.929967104 1.625590789 3.537082307
H -0.567702452 -0.850079767 1.699109639
H -4.325520927 -1.423172700 2.625145833

