16

C 0.434713429 -1.745945727 3.832382476
C -0.282544934 0.441029366 -1.625018542
C -1.694761512 -1.796996905 -2.555063412
C 0.474348583 2.925927550 -2.794120022
O 1.725602031 3.575486285 -0.406593719
C 0.945220674 1.249119362 0.442595193
N 1.633616305 0.485409074 2.806945782
H -1.628333746 -1.580752521 3.948465725
H 0.890766742 -3.375490919 2.653680338
H 1.180031731 -2.107715671 5.715876435
H -1.950437526 -3.193521140 -1.061184757
H -3.577794151 -1.280437585 -3.234890817
H -0.720434596 -2.738989322 -4.118094402
H -1.020650151 4.287233734 -3.210007697
H 1.866578548 2.884595441 -4.318058833
H 1.858797166 1.938598600 4.015922844

