15

C 2.813907778 0.328235242 1.938446023
C 1.114362519 0.310800686 -0.329688706
C 0.096917288 -2.224068716 -1.584615404
H -1.703558319 -2.992313723 -0.953339164
H 1.581936056 -3.646205317 -1.691314500
C 0.105875251 -0.254070673 -3.719533758
C -1.859328746 1.351326900 -3.235542413
H -3.792983709 0.854367329 -3.675945127
C -1.091564486 2.317296030 -0.633874311
H -0.316579714 4.213254282 -0.405005914
H -2.710086698 2.103744978 0.636789346
O 2.327714411 0.901755159 -2.694313097
H 3.674324139 2.190303827 2.153824667
H 4.314950555 -1.067348193 1.731195980
H 1.733060062 -0.102947045 3.641429299

