10

C -0.152780748 -2.267278948 -3.450663034
C -1.366299691 -0.457888974 -2.262705962
C -2.983851265 0.301996811 -0.157680732
H -4.964191476 -0.219381103 -0.203573147
H -2.168172885 0.388231855 1.719228835
C -2.049833926 2.213371751 -2.115335519
H -3.416013148 2.947088911 -3.453643831
H -0.623523109 3.561219930 -1.529126129
H -0.200272475 -4.199104391 -2.771513606
H 0.933724015 -1.881896158 -5.143721014

