18

C -1.883833297 1.769569476 0.126575972
C -2.579548159 -0.949199870 0.621851004
C -0.765024554 -2.730392391 -0.737952092
C 1.948730782 -2.071838426 -0.083174198
C 2.719656025 0.533916719 -0.723409232
O 2.320897149 2.872337241 2.509263858
H -2.087199103 2.289376838 -1.863432437
H -3.030429820 3.069243717 1.254957463
H 0.499186595 2.587415126 1.533917624
H -4.517577327 -1.405060204 0.040502708
H -2.489964558 -1.327944317 2.657376945
H -1.143706697 -4.703076056 -0.259047153
H -1.029896108 -2.551202512 -2.784922649
H 2.354672658 -2.422483402 1.913551206
H 3.261474822 -3.291864151 -1.141576069
H 1.981704292 1.385760715 -2.425737623
H 4.660751425 1.006602607 -0.302769387
H 2.870238965 4.583400683 2.205902250

