10

O 4.694556887 -1.050686213 1.529921874
C 2.567850244 -0.946485695 0.803575308
N 1.143610151 1.239027525 0.452521603
N -3.156740890 1.931754371 -0.970974183
C -1.242201245 0.631895976 -0.402647819
C -1.118489719 -2.182867357 -0.542646573
N 1.002412215 -3.078982326 0.127800931
H 1.825599516 2.973885189 0.802804337
H -2.874325686 3.820823267 -0.750344689
H -2.703866040 -3.325881224 -1.157598565

