12

N -3.616269013 -1.005637070 2.810050262
C -1.726452295 -0.412485110 1.481950231
N 0.566759913 -1.785294114 1.187357632
C 1.817536848 -0.650143020 -0.517898739
O 4.061662380 -1.357559444 -1.367495756
C 0.584204825 1.657074534 -1.604123482
N -1.584200496 1.766960256 0.030153150
H -3.277138384 -2.657317135 3.718579050
H 0.133629016 1.354801577 -3.603457388
H 4.549212514 -2.866086726 -0.465089038
H 1.818503481 3.308203913 -1.460046888
H -3.202262050 2.612632010 -0.483824898

