12

O 1.819882811 3.805099329 1.353213300
C 0.657247937 1.992280824 0.625045530
C -2.174765005 1.884873383 0.518129663
C -0.022861264 -4.147150359 -0.514902105
O 0.690229005 -2.085932684 -1.618761508
C 2.148382747 -0.348144962 -0.132741922
H -2.799529646 1.585008770 -1.425625281
H -2.951543392 3.639946431 1.250270564
H -2.861635382 0.281163733 1.623734663
H -1.108626161 -5.126072087 -2.027169383
H 3.770479565 0.223210047 -1.262076571
H 2.771615594 -1.320082206 1.579494719

