18

C -2.528510700 3.093784135 1.337186023
C -0.808384434 0.891472536 1.114938225
N -0.980363438 -1.086263709 -0.376722308
C -2.229580764 -2.724946238 -1.714210498
H -1.182982425 -4.090011447 -2.808581888
H -4.263883938 -2.796446822 -1.558613944
C 1.486292557 0.178302746 -0.322158015
C 3.632887151 -1.177972024 0.982097092
H 5.048913681 0.196467758 1.588274500
H 2.943398370 -2.174053448 2.645913885
H 4.563896328 -2.520744455 -0.283180127
C 2.203139772 1.506757932 -2.757153993
H 0.544414393 2.283176420 -3.701838533
H 3.169125532 0.240623495 -4.070081167
H 3.493722447 3.058699990 -2.326428472
H -4.337626777 2.512968194 2.139184788
H -1.728953007 4.524419364 2.583441316
H -2.913479394 3.977679247 -0.505177310

