16

C 4.336978185 -1.060591062 -2.208109809
N 2.068545692 -0.144844956 -1.015109681
C 1.983039742 1.922564443 0.350276403
O 0.057150042 2.807252239 1.358583902
C -3.740523041 1.190518860 1.429508120
C -4.016700467 -1.417865914 0.599358804
O -2.621560021 -1.090381441 -1.565807206
H 4.746802561 -2.993253805 -1.615339025
H 4.142633705 -1.040805289 -4.262057083
H 5.942824493 0.129423166 -1.695028587
H 3.788626718 2.926064744 0.608922046
H -3.188534191 1.767790734 3.306362319
H -4.489344800 2.624569787 0.184334072
H -3.225431471 -2.775532411 1.965382841
H -6.014885041 -1.943336200 0.287180526
H 0.228308641 -0.918542636 -1.355760500

