11

C -2.998959776 -0.018133302 -0.092973486
C -0.197140613 0.216536989 -0.061212651
C 1.359732213 2.313990653 0.340379870
N 3.803002035 1.279353109 0.084928185
N 3.779476816 -1.186794890 -0.346926334
N 1.367856807 -1.722038782 -0.565210375
H -3.806380922 1.686659557 0.724879099
H -3.728106595 -0.201983963 -2.015434769
H -3.648802575 -1.641731602 1.001867274
H 3.406154314 2.457156682 1.918821973
H 0.905933854 -3.480512184 -1.141672615

