13

C -2.901441877 0.184637600 -1.003629690
C -1.754237013 -0.357663513 1.572959101
C 1.092642234 -0.411303143 1.615920059
C 2.552934031 0.004827419 -0.318223549
C 4.009272312 0.422906420 -2.254560826
H -2.269002680 2.009076540 -1.729678378
H -4.960016334 0.216225543 -0.893718229
H -2.354784492 -1.252102295 -2.379191515
H -2.446728040 -2.172290919 2.286973447
H -2.391635739 1.056547917 2.942898424
H 1.989056328 -0.826044624 3.417524929
H 4.615740700 -1.106540414 -3.475105866
H 4.658473379 2.313866064 -2.702057440

