13

C -3.359653786 0.504564094 -0.878625724
C -2.103579381 -0.974937468 1.260222712
C 0.676850066 -1.153702762 1.186168881
C 2.418840709 0.034546631 -0.021737746
C 4.313466818 0.489105586 -1.765829141
H -2.689143090 2.454937048 -0.909057080
H -5.412448214 0.527194736 -0.661810454
H -2.925221397 -0.337933978 -2.710661344
H -2.867550414 -2.893249309 1.380378283
H -2.578664296 -0.136697686 3.094792342
H 4.237592424 0.253986485 1.219321310
H 4.678338804 -0.812062408 -3.307640907
H 5.592788482 2.062184420 -1.514983929

