11

O -3.874994874 1.482281916 -0.571453312
C -2.767975812 -0.387154503 0.056656011
N 0.701464920 1.949044382 2.363989008
C 1.695253710 1.649845216 -0.053637571
C -0.112311904 -0.436164588 1.068234475
C 1.387287557 -2.593967147 1.446910627
H -3.634983008 -2.286943948 -0.119260710
H 2.003923125 1.414060989 3.672109305
H 0.737958858 2.663481365 -1.555686891
H 3.660131294 1.147079688 -0.328090735
H 0.379650495 -4.249754928 0.661819657

