11

O -3.519524862 0.762831565 -1.294713521
C -2.409315847 -0.362993863 0.285536578
N -0.029719458 1.410020754 2.061225781
C 1.671600273 1.864381420 -0.143834085
C 0.794757902 -0.691080327 0.110587774
C 1.155136195 -3.202228110 -0.107535338
H -3.138026649 -1.646868274 1.722982644
H 0.823376160 1.048585972 3.737224486
H 0.857268644 3.139333640 -1.525752987
H 3.637970986 2.214359133 0.311933728
H 0.219703112 -4.286161069 1.394847444

