8

N -1.333975435 1.812799456 0.121231638
C -0.561576829 -0.854358409 0.374520153
N 1.034397662 -1.891717348 -1.692765111
C 2.093073468 -1.361863597 0.349904108
N 0.114380266 3.569078110 0.068482239
H -3.281559115 2.029217978 -0.017385972
H -2.005900988 -2.050057160 1.211175645
H 3.936967687 -1.378869753 1.219172607

