8

N -1.291978974 1.466712273 0.304430060
C -1.057929949 -1.073411852 0.173253134
N 1.067580535 -1.836840249 -1.604510422
C 2.010963677 -0.361743885 0.079220116
N 0.932299180 2.384765564 -0.101627033
H -2.879933675 2.532032545 0.340953382
H -2.368388310 -2.482154433 0.830404260
H 3.570705032 -0.625514352 1.409995980

