10

C -2.227117506 -0.885789373 -0.237284935
C 0.186936187 -0.603208043 -1.239168744
C 1.428338228 1.797413400 -1.106763515
N 2.622910872 1.713010843 1.043673043
N 2.378508133 -0.613998984 2.055341514
O 1.752670355 -2.241309443 -0.055070399
H -2.875992444 -2.771351278 0.233133169
H -3.666649754 0.524567620 -0.604428977
H -0.502347672 -0.478576996 2.112809673
H 1.168227443 3.505953888 -2.184492541

