15

O 4.933062301 -1.348292831 -0.353945363
C 2.427590897 -0.884178212 -0.254528931
N 0.855815256 -2.671709743 -0.524536043
C -1.813576870 -2.036135812 -0.432365426
C -2.374129713 0.423942897 0.968080275
C -0.633537203 2.506386939 0.020968212
N 1.943728393 1.602575739 0.195441542
H 5.075229119 -3.141374205 -0.638208190
H -2.548287742 -1.924198433 -2.367398017
H -2.816140622 -3.598269976 0.471051445
H -2.059589997 0.157228880 2.992558593
H -4.345378831 0.973012574 0.705605688
H -0.818937326 4.207463670 1.172025585
H -1.124017754 3.008412111 -1.930893222
H 3.392571360 2.808358031 -0.009371398

