15

C -3.233014092 -1.042182843 0.017058992
C -0.895095197 0.615380091 -0.072988971
C 1.150269149 -0.006251800 1.869339873
C 3.632082354 0.310537333 0.381028030
C 2.990927420 0.116911025 -2.398770910
N 0.532269274 0.291429065 -2.454909061
H -4.208981404 -0.811431390 1.818948984
H -4.567972846 -0.556323315 -1.481161573
H -2.718916367 -3.030358521 -0.190217186
H -1.460795446 2.603231926 0.069397452
H -0.411552133 0.295356578 -4.112547319
H 1.027706709 1.193603952 3.538314881
H 0.936421051 -1.964402942 2.491498014
H 5.093862896 -1.044132398 0.902550129
H 4.473418547 2.185443130 0.643715816

