14

C 3.730672352 -0.998282483 -0.015886606
C 1.349402762 0.473671229 -0.386303918
C -0.967444874 -0.652309780 -1.007982107
C -3.335031183 0.776087918 -0.757288488
C -1.385756142 1.555504136 3.089365351
O -1.611144778 0.639290795 5.022116817
H 4.807663780 -0.249623278 1.578961476
H 3.334950795 -2.984809753 0.374732275
H 4.974366952 -0.909805638 -1.669134123
H 1.546741494 2.480795588 -0.753420559
H -1.673273984 -0.259438402 -3.070054996
H -1.136662932 -2.673847495 -0.674847391
H -3.315802710 2.747681249 -1.302387661
H -5.115277480 -0.217663927 -0.963195484

