14

C -3.989405225 -0.511551508 0.049193483
C -1.961530785 0.633467434 1.679615716
H -2.233459237 2.610813847 2.160600658
N -0.864267793 -0.827008365 3.818380021
H -1.522949483 -2.629572667 3.861325937
C 0.587045254 -0.342600354 1.640358375
C 2.747115635 -0.764566164 0.553793519
C 4.652149222 -0.581581904 -1.349811245
H 4.515787133 -1.702873142 -3.062057070
H 5.848916896 1.081517209 -1.446381012
O 4.935525748 -2.054199402 0.958633345
H -4.124045717 0.495571851 -1.745789824
H -5.827971720 -0.401770873 0.980560480
H -3.569773454 -2.489450722 -0.362658267

