16

C -4.003034137 -0.687708508 0.070283034
C -2.285460570 1.094584268 1.464951918
N -0.451825258 0.127076088 3.315052791
C 0.448528215 1.029977480 1.017179385
C 1.944719989 -0.183150688 -0.864852134
C 4.604624594 -0.676895041 -1.230468048
O 2.794041333 -2.642973339 -0.692480954
H -4.693571546 0.183940499 -1.666504645
H -5.640842573 -1.177596308 1.227636823
H -3.006796546 -2.419158939 -0.446685865
H -3.137367059 2.866986236 2.050445139
H -0.378315649 -1.766770036 3.587751515
H 1.154304149 3.268127868 -0.865009453
H 1.250434951 2.257374005 -2.329892566
H 5.382235367 -0.710047659 -3.128195784
H 5.941981713 -0.326813167 0.285796208

