10

C -4.045813077 -2.042797323 -1.590286907
C -3.371547004 0.118757174 0.102065979
C -1.445546320 0.150845177 1.700487004
O 0.169313886 -1.843172816 1.972487946
H 1.415331999 -1.448243526 3.220662464
H -1.057814242 1.783358052 2.881550468
H -4.530362930 1.806134940 0.039215200
H -3.980274975 -1.478109835 -3.576369278
H -2.754096699 -3.624080876 -1.331128392
H -5.964174864 -2.708635029 -1.212435412

