11

C -2.255463473 -1.413714224 1.362942631
C -0.245809565 0.526424238 1.143935845
C 3.464345860 -1.018349900 -1.220883244
O 2.643592527 0.778407935 -2.568094321
C 0.330574062 1.815678869 -1.125620846
N -1.145595233 3.512969534 -1.364046514
H -3.914114662 -0.645492952 2.322728029
H -2.812833772 -2.157990606 -0.470932185
H -1.534927739 -2.955903859 2.531302581
H 0.466470352 1.364734469 2.875075530
H 5.140666631 -1.793126424 -2.200350612

