8

O -2.602657204 -0.432941792 0.451018213
C -0.254509562 -1.171160846 -0.408140667
C 1.600292232 0.510672634 -0.479284453
O 1.388357104 2.924921554 0.345308634
H -0.301529406 3.146730633 0.985436333
H -3.396198538 -1.805110311 1.323247063
H -0.034548086 -3.076363979 -1.117750250
H 3.440034458 0.061002684 -1.242301343

