8

O -2.664311692 0.262670854 0.201996794
C -0.202629002 -1.309650219 -0.260671694
C 1.789777659 0.467120720 -0.196477849
O 1.393607217 2.678201519 0.434906257
H -1.800823468 1.928775520 0.478309524
H -1.843865911 -1.063867110 1.640825327
H -0.490427903 -2.701125031 -1.723377918
H 3.702477600 -0.197769741 -0.659884842

