29

C     4.16024   0.72646   0.12102
N     2.70358   0.68971  -0.00848
C     1.92465   0.17186   0.95497
O     2.37019  -0.26284   2.02204
C     0.40898  -0.00024   0.66011
N    -0.24359   1.11290   0.34673
N    -1.59463   1.02069   0.21760
C    -2.02556   1.22389  -1.07191
C    -3.51679   1.39362  -1.23192
O    -1.27551   1.22290  -2.06673
C    -1.60704  -1.44411   0.46484
C    -2.12087  -1.90366  -0.84809
C    -0.19256  -1.48665   0.81913
C     0.68927  -2.45326  -0.01151
H     4.56594  -0.27322   0.40891
H     4.62821   0.99901  -0.84871
H     4.51171   1.44595   0.87931
H     2.30631   1.07599  -0.85111
H    -3.73951   2.44935  -1.52822
H    -3.87421   0.76051  -2.06076
H    -4.06244   1.17517  -0.31622
H    -2.33033  -1.25391   1.25750
H    -1.52175  -1.46563  -1.66274
H    -3.17493  -1.61321  -0.99571
H    -2.06450  -3.01338  -1.00528
H    -0.06849  -1.69313   1.93237
H     1.70808  -2.44745   0.39911
H     0.37656  -3.53524  -0.05263
H     0.72287  -2.10074  -1.04614
29

C     4.16451   0.72538   0.12040
N     2.70899   0.68995  -0.00976
C     1.92959   0.17659   0.95519
O     2.37030  -0.26196   2.02188
C     0.42005   0.02634   0.65926
N    -0.25415   1.10581   0.34894
N    -1.59707   1.03635   0.21773
C    -2.02654   1.22778  -1.07418
C    -3.51755   1.39536  -1.23348
O    -1.27535   1.22120  -2.06647
C    -1.60765  -1.45785   0.46797
C    -2.12203  -1.90567  -0.84963
C    -0.20323  -1.51324   0.82354
C     0.68932  -2.45660  -0.01166
H     4.56692  -0.27359   0.40883
H     4.62962   0.99861  -0.84883
H     4.51280   1.44563   0.87920
H     2.30789   1.07739  -0.85090
H    -3.74022   2.44980  -1.52845
H    -3.87411   0.76095  -2.06126
H    -4.06236   1.17530  -0.31661
H    -2.33000  -1.25345   1.25704
H    -1.52182  -1.46503  -1.66227
H    -3.17483  -1.61209  -0.99585
H    -2.06661  -3.01353  -1.00846
H    -0.06804  -1.69299   1.93232
H     1.70777  -2.44694   0.39972
H     0.38015  -3.53693  -0.05667
H     0.72241  -2.09870  -1.04510
29

C     4.16879   0.72429   0.11978
N     2.71439   0.69019  -0.01104
C     1.93453   0.18132   0.95542
O     2.37041  -0.26109   2.02171
C     0.43111   0.05292   0.65840
N    -0.26471   1.09871   0.35116
N    -1.59951   1.05200   0.21787
C    -2.02753   1.23166  -1.07646
C    -3.51832   1.39710  -1.23504
O    -1.27519   1.21950  -2.06622
C    -1.60826  -1.47160   0.47109
C    -2.12318  -1.90768  -0.85118
C    -0.21390  -1.53982   0.82794
C     0.68936  -2.45994  -0.01180
H     4.56789  -0.27395   0.40875
H     4.63102   0.99822  -0.84894
H     4.51389   1.44531   0.87909
H     2.30946   1.07879  -0.85070
H    -3.74093   2.45026  -1.52868
H    -3.87401   0.76139  -2.06176
H    -4.06228   1.17544  -0.31699
H    -2.32968  -1.25299   1.25657
H    -1.52190  -1.46442  -1.66180
H    -3.17473  -1.61097  -0.99600
H    -2.06871  -3.01368  -1.01163
H    -0.06759  -1.69284   1.93228
H     1.70746  -2.44643   0.40033
H     0.38375  -3.53862  -0.06072
H     0.72195  -2.09666  -1.04405
29

C     4.17306   0.72321   0.11915
N     2.71980   0.69043  -0.01232
C     1.93947   0.18606   0.95564
O     2.37051  -0.26021   2.02155
C     0.44218   0.07950   0.65755
N    -0.27527   1.09162   0.35337
N    -1.60194   1.06766   0.21800
C    -2.02851   1.23555  -1.07874
C    -3.51908   1.39884  -1.23660
O    -1.27503   1.21781  -2.06596
C    -1.60887  -1.48534   0.47422
C    -2.12434  -1.90968  -0.85272
C    -0.22457  -1.56641   0.83235
C     0.68940  -2.46328  -0.01194
H     4.56887  -0.27431   0.40867
H     4.63243   0.99782  -0.84905
H     4.51498   1.44499   0.87898
H     2.31103   1.08019  -0.85050
H    -3.74164   2.45072  -1.52892
H    -3.87390   0.76183  -2.06226
H    -4.06220   1.17557  -0.31738
H    -2.32935  -1.25253   1.25610
H    -1.52197  -1.46382  -1.66133
H    -3.17463  -1.60985  -0.99614
H    -2.07082  -3.01384  -1.01481
H    -0.06714  -1.69270   1.93224
H     1.70714  -2.44592   0.40095
H     0.38734  -3.54031  -0.06476
H     0.72149  -2.09461  -1.04300
29

C     4.17734   0.72212   0.11853
N     2.72520   0.69067  -0.01360
C     1.94441   0.19079   0.95587
O     2.37062  -0.25934   2.02138
C     0.45325   0.10608   0.65669
N    -0.28583   1.08453   0.35559
N    -1.60438   1.08331   0.21814
C    -2.02950   1.23943  -1.08101
C    -3.51985   1.40057  -1.23816
O    -1.27486   1.21611  -2.06570
C    -1.60948  -1.49909   0.47734
C    -2.12549  -1.91169  -0.85426
C    -0.23524  -1.59299   0.83675
C     0.68945  -2.46662  -0.01209
H     4.56984  -0.27468   0.40859
H     4.63384   0.99743  -0.84916
H     4.51607   1.44468   0.87887
H     2.31261   1.08160  -0.85030
H    -3.74235   2.45117  -1.52915
H    -3.87380   0.76227  -2.06276
H    -4.06212   1.17570  -0.31777
H    -2.32902  -1.25207   1.25563
H    -1.52204  -1.46322  -1.66086
H    -3.17453  -1.60873  -0.99628
H    -2.07293  -3.01399  -1.01799
H    -0.06669  -1.69255   1.93220
H     1.70683  -2.44541   0.40156
H     0.39093  -3.54200  -0.06880
H     0.72103  -2.09257  -1.04196
29

C     4.18161   0.72104   0.11790
N     2.73061   0.69091  -0.01488
C     1.94935   0.19552   0.95610
O     2.37073  -0.25846   2.02122
C     0.46431   0.13266   0.65584
N    -0.29639   1.07744   0.35780
N    -1.60682   1.09897   0.21827
C    -2.03048   1.24332  -1.08329
C    -3.52061   1.40231  -1.23971
O    -1.27470   1.21441  -2.06545
C    -1.61010  -1.51284   0.48047
C    -2.12665  -1.91370  -0.85580
C    -0.24590  -1.61958   0.84116
C     0.68949  -2.46996  -0.01223
H     4.57082  -0.27504   0.40851
H     4.63524   0.99703  -0.84928
H     4.51716   1.44436   0.87876
H     2.31418   1.08300  -0.85009
H    -3.74306   2.45163  -1.52938
H    -3.87370   0.76271  -2.06326
H    -4.06203   1.17583  -0.31815
H    -2.32869  -1.25162   1.25516
H    -1.52211  -1.46261  -1.66039
H    -3.17444  -1.60761  -0.99642
H    -2.07503  -3.01414  -1.02116
H    -0.06624  -1.69240   1.93216
H     1.70652  -2.44490   0.40217
H     0.39452  -3.54370  -0.07284
H     0.72057  -2.09053  -1.04091
29

C     4.18588   0.71995   0.11728
N     2.73601   0.69115  -0.01617
C     1.95429   0.20025   0.95632
O     2.37084  -0.25759   2.02105
C     0.47538   0.15923   0.65498
N    -0.30695   1.07035   0.36002
N    -1.60926   1.11462   0.21841
C    -2.03147   1.24721  -1.08557
C    -3.52138   1.40405  -1.24127
O    -1.27454   1.21272  -2.06519
C    -1.61071  -1.52658   0.48359
C    -2.12780  -1.91571  -0.85734
C    -0.25657  -1.64616   0.84557
C     0.68953  -2.47330  -0.01238
H     4.57179  -0.27540   0.40843
H     4.63665   0.99663  -0.84939
H     4.51826   1.44404   0.87865
H     2.31575   1.08440  -0.84989
H    -3.74378   2.45208  -1.52961
H    -3.87360   0.76315  -2.06377
H    -4.06195   1.17597  -0.31854
H    -2.32836  -1.25116   1.25469
H    -1.52218  -1.46201  -1.65992
H    -3.17434  -1.60648  -0.99657
H    -2.07714  -3.01430  -1.02434
H    -0.06580  -1.69226   1.93211
H     1.70621  -2.44439   0.40278
H     0.39811  -3.54539  -0.07688
H     0.72011  -2.08848  -1.03986
29

C     4.19016   0.71887   0.11666
N     2.74142   0.69139  -0.01745
C     1.95923   0.20499   0.95655
O     2.37095  -0.25671   2.02089
C     0.48644   0.18581   0.65413
N    -0.31751   1.06325   0.36223
N    -1.61170   1.13028   0.21854
C    -2.03245   1.25109  -1.08784
C    -3.52214   1.40579  -1.24283
O    -1.27438   1.21102  -2.06493
C    -1.61132  -1.54033   0.48672
C    -2.12896  -1.91771  -0.85888
C    -0.26724  -1.67275   0.84997
C     0.68958  -2.47665  -0.01252
H     4.57276  -0.27576   0.40835
H     4.63806   0.99624  -0.84950
H     4.51935   1.44372   0.87855
H     2.31733   1.08580  -0.84969
H    -3.74449   2.45254  -1.52984
H    -3.87350   0.76359  -2.06427
H    -4.06187   1.17610  -0.31893
H    -2.32803  -1.25070   1.25422
H    -1.52225  -1.46140  -1.65945
H    -3.17424  -1.60536  -0.99671
H    -2.07925  -3.01445  -1.02752
H    -0.06535  -1.69211   1.93207
H     1.70590  -2.44388   0.40340
H     0.40170  -3.54708  -0.08093
H     0.71965  -2.08644  -1.03882
29

C     4.19443   0.71779   0.11603
N     2.74682   0.69163  -0.01873
C     1.96417   0.20972   0.95677
O     2.37106  -0.25584   2.02072
C     0.49751   0.21239   0.65327
N    -0.32807   1.05616   0.36445
N    -1.61414   1.14593   0.21867
C    -2.03343   1.25498  -1.09012
C    -3.52290   1.40752  -1.24439
O    -1.27422   1.20932  -2.06467
C    -1.61193  -1.55408   0.48984
C    -2.13011  -1.91972  -0.86043
C    -0.27791  -1.69933   0.85438
C     0.68962  -2.47999  -0.01266
H     4.57374  -0.27613   0.40827
H     4.63947   0.99584  -0.84961
H     4.52044   1.44340   0.87844
H     2.31890   1.08720  -0.84948
H    -3.74520   2.45300  -1.53008
H    -3.87340   0.76403  -2.06477
H    -4.06179   1.17623  -0.31931
H    -2.32770  -1.25024   1.25375
H    -1.52233  -1.46080  -1.65898
H    -3.17414  -1.60424  -0.99685
H    -2.08135  -3.01460  -1.03069
H    -0.06490  -1.69197   1.93203
H     1.70559  -2.44337   0.40401
H     0.40529  -3.54877  -0.08497
H     0.71919  -2.08439  -1.03777
29

C     4.19871   0.71670   0.11541
N     2.75223   0.69187  -0.02001
C     1.96911   0.21445   0.95700
O     2.37116  -0.25496   2.02056
C     0.50858   0.23897   0.65241
N    -0.33863   1.04907   0.36666
N    -1.61657   1.16159   0.21881
C    -2.03442   1.25887  -1.09240
C    -3.52367   1.40926  -1.24595
O    -1.27406   1.20762  -2.06442
C    -1.61254  -1.56782   0.49296
C    -2.13127  -1.92173  -0.86197
C    -0.28858  -1.72592   0.85878
C     0.68966  -2.48333  -0.01281
H     4.57471  -0.27649   0.40818
H     4.64087   0.99545  -0.84972
H     4.52153   1.44308   0.87833
H     2.32047   1.08860  -0.84928
H    -3.74591   2.45345  -1.53031
H    -3.87330   0.76447  -2.06527
H    -4.06171   1.17636  -0.31970
H    -2.32737  -1.24978   1.25328
H    -1.52240  -1.46019  -1.65851
H    -3.17404  -1.60312  -0.99699
H    -2.08346  -3.01476  -1.03387
H    -0.06445  -1.69182   1.93199
H     1.70528  -2.44286   0.40462
H     0.40888  -3.55046  -0.08901
H     0.71873  -2.08235  -1.03672
29

C     4.20298   0.71562   0.11479
N     2.75763   0.69210  -0.02129
C     1.97405   0.21919   0.95723
O     2.37127  -0.25409   2.02040
C     0.51964   0.26555   0.65156
N    -0.34919   1.04198   0.36887
N    -1.61901   1.17724   0.21894
C    -2.03540   1.26275  -1.09467
C    -3.52443   1.41100  -1.24751
O    -1.27389   1.20593  -2.06416
C    -1.61315  -1.58157   0.49609
C    -2.13242  -1.92374  -0.86351
C    -0.29925  -1.75251   0.86319
C     0.68971  -2.48667  -0.01295
H     4.57569  -0.27685   0.40810
H     4.64228   0.99505  -0.84984
H     4.52262   1.44276   0.87822
H     2.32204   1.09000  -0.84908
H    -3.74662   2.45391  -1.53054
H    -3.87320   0.76492  -2.06577
H    -4.06162   1.17650  -0.32009
H    -2.32705  -1.24932   1.25281
H    -1.52247  -1.45959  -1.65804
H    -3.17394  -1.60200  -0.99714
H    -2.08557  -3.01491  -1.03705
H    -0.06400  -1.69167   1.93195
H     1.70496  -2.44235   0.40523
H     0.41247  -3.55215  -0.09305
H     0.71827  -2.08031  -1.03568
29

C     4.20726   0.71453   0.11416
N     2.76303   0.69234  -0.02257
C     1.97899   0.22392   0.95745
O     2.37138  -0.25321   2.02023
C     0.53071   0.29213   0.65070
N    -0.35975   1.03489   0.37109
N    -1.62145   1.19290   0.21908
C    -2.03639   1.26664  -1.09695
C    -3.52520   1.41274  -1.24907
O    -1.27373   1.20423  -2.06390
C    -1.61376  -1.59531   0.49921
C    -2.13358  -1.92574  -0.86505
C    -0.30991  -1.77909   0.86760
C     0.68975  -2.49001  -0.01309
H     4.57666  -0.27722   0.40802
H     4.64369   0.99465  -0.84995
H     4.52371   1.44244   0.87811
H     2.32362   1.09140  -0.84888
H    -3.74733   2.45436  -1.53077
H    -3.87310   0.76536  -2.06627
H    -4.06154   1.17663  -0.32047
H    -2.32672  -1.24886   1.25234
H    -1.52254  -1.45899  -1.65757
H    -3.17385  -1.60088  -0.99728
H    -2.08767  -3.01506  -1.04023
H    -0.06355  -1.69153   1.93191
H     1.70465  -2.44184   0.40585
H     0.41606  -3.55384  -0.09709
H     0.71781  -2.07826  -1.03463
29

C     4.21153   0.71345   0.11354
N     2.76844   0.69258  -0.02385
C     1.98393   0.22865   0.95768
O     2.37149  -0.25234   2.02007
C     0.54177   0.31871   0.64985
N    -0.37031   1.02779   0.37330
N    -1.62389   1.20855   0.21921
C    -2.03737   1.27053  -1.09922
C    -3.52596   1.41447  -1.25062
O    -1.27357   1.20253  -2.06364
C    -1.61437  -1.60906   0.50234
C    -2.13473  -1.92775  -0.86659
C    -0.32058  -1.80568   0.87200
C     0.68979  -2.49335  -0.01324
H     4.57764  -0.27758   0.40794
H     4.64509   0.99426  -0.85006
H     4.52480   1.44212   0.87800
H     2.32519   1.09280  -0.84867
H    -3.74804   2.45482  -1.53100
H    -3.87300   0.76580  -2.06677
H    -4.06146   1.17676  -0.32086
H    -2.32639  -1.24840   1.25187
H    -1.52261  -1.45838  -1.65710
H    -3.17375  -1.59976  -0.99742
H    -2.08978  -3.01522  -1.04340
H    -0.06310  -1.69138   1.93186
H     1.70434  -2.44133   0.40646
H     0.41965  -3.55554  -0.10114
H     0.71735  -2.07622  -1.03358
29

C     4.21581   0.71236   0.11292
N     2.77384   0.69282  -0.02513
C     1.98887   0.23338   0.95790
O     2.37160  -0.25146   2.01990
C     0.55284   0.34529   0.64899
N    -0.38087   1.02070   0.37552
N    -1.62633   1.22421   0.21935
C    -2.03836   1.27441  -1.10150
C    -3.52673   1.41621  -1.25218
O    -1.27341   1.20084  -2.06339
C    -1.61498  -1.62281   0.50546
C    -2.13589  -1.92976  -0.86813
C    -0.33125  -1.83226   0.87641
C     0.68984  -2.49669  -0.01338
H     4.57861  -0.27794   0.40786
H     4.64650   0.99386  -0.85017
H     4.52589   1.44180   0.87789
H     2.32676   1.09420  -0.84847
H    -3.74875   2.45527  -1.53124
H    -3.87289   0.76624  -2.06727
H    -4.06138   1.17689  -0.32125
H    -2.32606  -1.24794   1.25140
H    -1.52268  -1.45778  -1.65663
H    -3.17365  -1.59864  -0.99757
H    -2.09189  -3.01537  -1.04658
H    -0.06265  -1.69124   1.93182
H     1.70403  -2.44082   0.40707
H     0.42324  -3.55723  -0.10518
H     0.71689  -2.07418  -1.03254
29

C     4.22008   0.71128   0.11229
N     2.77925   0.69306  -0.02641
C     1.99381   0.23812   0.95813
O     2.37171  -0.25059   2.01974
C     0.56390   0.37186   0.64814
N    -0.39143   1.01361   0.37773
N    -1.62877   1.23986   0.21948
C    -2.03934   1.27830  -1.10378
C    -3.52749   1.41795  -1.25374
O    -1.27325   1.19914  -2.06313
C    -1.61560  -1.63655   0.50859
C    -2.13704  -1.93176  -0.86968
C    -0.34192  -1.85885   0.88081
C     0.68988  -2.50004  -0.01353
H     4.57959  -0.27830   0.40778
H     4.64791   0.99347  -0.85028
H     4.52698   1.44148   0.87778
H     2.32834   1.09561  -0.84827
H    -3.74946   2.45573  -1.53147
H    -3.87279   0.76668  -2.06777
H    -4.06129   1.17703  -0.32163
H    -2.32573  -1.24748   1.25093
H    -1.52276  -1.45717  -1.65616
H    -3.17355  -1.59752  -0.99771
H    -2.09399  -3.01553  -1.04976
H    -0.06220  -1.69109   1.93178
H     1.70372  -2.44031   0.40768
H     0.42683  -3.55892  -0.10922
H     0.71643  -2.07213  -1.03149
29

C     4.22435   0.71020   0.11167
N     2.78465   0.69330  -0.02769
C     1.99875   0.24285   0.95836
O     2.37181  -0.24971   2.01957
C     0.57497   0.39844   0.64728
N    -0.40199   1.00652   0.37995
N    -1.63121   1.25552   0.21962
C    -2.04033   1.28218  -1.10605
C    -3.52826   1.41969  -1.25530
O    -1.27308   1.19744  -2.06287
C    -1.61621  -1.65030   0.51171
C    -2.13820  -1.93377  -0.87122
C    -0.35259  -1.88543   0.88522
C     0.68992  -2.50338  -0.01367
H     4.58056  -0.27867   0.40770
H     4.64931   0.99307  -0.85040
H     4.52807   1.44116   0.87767
H     2.32991   1.09701  -0.84806
H    -3.75017   2.45619  -1.53170
H    -3.87269   0.76712  -2.06827
H    -4.06121   1.17716  -0.32202
H    -2.32540  -1.24702   1.25046
H    -1.52283  -1.45657  -1.65569
H    -3.17345  -1.59639  -0.99785
H    -2.09610  -3.01568  -1.05293
H    -0.06176  -1.69094   1.93174
H     1.70341  -2.43980   0.40829
H     0.43042  -3.56061  -0.11326
H     0.71597  -2.07009  -1.03044
29

C     4.22863   0.70911   0.11104
N     2.79006   0.69354  -0.02897
C     2.00370   0.24758   0.95858
O     2.37192  -0.24884   2.01941
C     0.58604   0.42502   0.64643
N    -0.41255   0.99942   0.38216
N    -1.63364   1.27117   0.21975
C    -2.04131   1.28607  -1.10833
C    -3.52902   1.42142  -1.25686
O    -1.27292   1.19575  -2.06262
C    -1.61682  -1.66405   0.51483
C    -2.13935  -1.93578  -0.87276
C    -0.36326  -1.91202   0.88962
C     0.68997  -2.50672  -0.01381
H     4.58153  -0.27903   0.40762
H     4.65072   0.99267  -0.85051
H     4.52917   1.44085   0.87756
H     2.33148   1.09841  -0.84786
H    -3.75088   2.45664  -1.53193
H    -3.87259   0.76756  -2.06877
H    -4.06113   1.17729  -0.32241
H    -2.32507  -1.24656   1.24999
H    -1.52290  -1.45596  -1.65522
H    -3.17335  -1.59527  -0.99799
H    -2.09821  -3.01583  -1.05611
H    -0.06131  -1.69080   1.93170
H     1.70310  -2.43929   0.40891
H     0.43401  -3.56230  -0.11730
H     0.71550  -2.06805  -1.02940
29

C     4.23290   0.70803   0.11042
N     2.79546   0.69378  -0.03025
C     2.00864   0.25232   0.95881
O     2.37203  -0.24796   2.01924
C     0.59710   0.45160   0.64557
N    -0.42311   0.99233   0.38438
N    -1.63608   1.28683   0.21989
C    -2.04230   1.28996  -1.11061
C    -3.52979   1.42316  -1.25842
O    -1.27276   1.19405  -2.06236
C    -1.61743  -1.67779   0.51796
C    -2.14051  -1.93779  -0.87430
C    -0.37393  -1.93860   0.89403
C     0.69001  -2.51006  -0.01396
H     4.58251  -0.27939   0.40754
H     4.65213   0.99228  -0.85062
H     4.53026   1.44053   0.87745
H     2.33305   1.09981  -0.84766
H    -3.75160   2.45710  -1.53216
H    -3.87249   0.76800  -2.06927
H    -4.06105   1.17742  -0.32279
H    -2.32475  -1.24610   1.24952
H    -1.52297  -1.45536  -1.65475
H    -3.17326  -1.59415  -0.99814
H    -2.10032  -3.01599  -1.05929
H    -0.06086  -1.69065   1.93165
H     1.70278  -2.43878   0.40952
H     0.43761  -3.56399  -0.12135
H     0.71504  -2.06600  -1.02835
29

C     4.23718   0.70694   0.10980
N     2.80087   0.69402  -0.03153
C     2.01358   0.25705   0.95903
O     2.37214  -0.24709   2.01908
C     0.60817   0.47818   0.64472
N    -0.43367   0.98524   0.38659
N    -1.63852   1.30248   0.22002
C    -2.04328   1.29384  -1.11288
C    -3.53055   1.42490  -1.25997
O    -1.27260   1.19235  -2.06210
C    -1.61804  -1.69154   0.52108
C    -2.14166  -1.93979  -0.87584
C    -0.38459  -1.96519   0.89844
C     0.69005  -2.51340  -0.01410
H     4.58348  -0.27976   0.40746
H     4.65353   0.99188  -0.85073
H     4.53135   1.44021   0.87735
H     2.33463   1.10121  -0.84746
H    -3.75231   2.45755  -1.53240
H    -3.87239   0.76844  -2.06978
H    -4.06097   1.17756  -0.32318
H    -2.32442  -1.24564   1.24905
H    -1.52304  -1.45475  -1.65428
H    -3.17316  -1.59303  -0.99828
H    -2.10242  -3.01614  -1.06246
H    -0.06041  -1.69051   1.93161
H     1.70247  -2.43827   0.41013
H     0.44120  -3.56569  -0.12539
H     0.71458  -2.06396  -1.02730
29

C     4.24145   0.70586   0.10917
N     2.80627   0.69426  -0.03281
C     2.01852   0.26178   0.95926
O     2.37225  -0.24621   2.01891
C     0.61923   0.50476   0.64386
N    -0.44423   0.97815   0.38880
N    -1.64096   1.31814   0.22015
C    -2.04426   1.29773  -1.11516
C    -3.53132   1.42664  -1.26153
O    -1.27244   1.19065  -2.06184
C    -1.61865  -1.70528   0.52421
C    -2.14281  -1.94180  -0.87738
C    -0.39526  -1.99178   0.90284
C     0.69010  -2.51674  -0.01424
H     4.58446  -0.28012   0.40738
H     4.65494   0.99149  -0.85084
H     4.53244   1.43989   0.87724
H     2.33620   1.10261  -0.84725
H    -3.75302   2.45801  -1.53263
H    -3.87229   0.76888  -2.07028
H    -4.06088   1.17769  -0.32357
H    -2.32409  -1.24518   1.24858
H    -1.52311  -1.45415  -1.65381
H    -3.17306  -1.59191  -0.99842
H    -2.10453  -3.01629  -1.06564
H    -0.05996  -1.69036   1.93157
H     1.70216  -2.43776   0.41074
H     0.44479  -3.56738  -0.12943
H     0.71412  -2.06191  -1.02626
29

C     4.24573   0.70478   0.10855
N     2.81168   0.69450  -0.03409
C     2.02346   0.26651   0.95949
O     2.37236  -0.24534   2.01875
C     0.63030   0.53134   0.64300
N    -0.45479   0.97106   0.39102
N    -1.64340   1.33379   0.22029
C    -2.04525   1.30162  -1.11744
C    -3.53208   1.42837  -1.26309
O    -1.27227   1.18896  -2.06159
C    -1.61926  -1.71903   0.52733
C    -2.14397  -1.94381  -0.87893
C    -0.40593  -2.01836   0.90725
C     0.69014  -2.52008  -0.01439
H     4.58543  -0.28048   0.40730
H     4.65635   0.99109  -0.85096
H     4.53353   1.43957   0.87713
H     2.33777   1.10401  -0.84705
H    -3.75373   2.45846  -1.53286
H    -3.87219   0.76932  -2.07078
H    -4.06080   1.17782  -0.32395
H    -2.32376  -1.24472   1.24811
H    -1.52319  -1.45355  -1.65334
H    -3.17296  -1.59079  -0.99857
H    -2.10664  -3.01645  -1.06882
H    -0.05951  -1.69021   1.93153
H     1.70185  -2.43724   0.41136
H     0.44838  -3.56907  -0.13347
H     0.71366  -2.05987  -1.02521
29

C     4.24145   0.70586   0.10917
N     2.80627   0.69426  -0.03281
C     2.01852   0.26178   0.95926
O     2.37225  -0.24621   2.01891
C     0.61923   0.50476   0.64386
N    -0.44423   0.97815   0.38880
N    -1.64096   1.31814   0.22015
C    -2.04426   1.29773  -1.11516
C    -3.53132   1.42664  -1.26153
O    -1.27244   1.19065  -2.06184
C    -1.61865  -1.70528   0.52421
C    -2.14281  -1.94180  -0.87738
C    -0.39526  -1.99178   0.90284
C     0.69010  -2.51674  -0.01424
H     4.58446  -0.28012   0.40738
H     4.65494   0.99149  -0.85084
H     4.53244   1.43989   0.87724
H     2.33620   1.10261  -0.84725
H    -3.75302   2.45801  -1.53263
H    -3.87229   0.76888  -2.07028
H    -4.06088   1.17769  -0.32357
H    -2.32409  -1.24518   1.24858
H    -1.52311  -1.45415  -1.65381
H    -3.17306  -1.59191  -0.99842
H    -2.10453  -3.01629  -1.06564
H    -0.05996  -1.69036   1.93157
H     1.70216  -2.43776   0.41074
H     0.44479  -3.56738  -0.12943
H     0.71412  -2.06191  -1.02626
29

C     4.23718   0.70694   0.10980
N     2.80087   0.69402  -0.03153
C     2.01358   0.25705   0.95903
O     2.37214  -0.24709   2.01908
C     0.60817   0.47818   0.64472
N    -0.43367   0.98524   0.38659
N    -1.63852   1.30248   0.22002
C    -2.04328   1.29384  -1.11288
C    -3.53055   1.42490  -1.25997
O    -1.27260   1.19235  -2.06210
C    -1.61804  -1.69154   0.52108
C    -2.14166  -1.93979  -0.87584
C    -0.38459  -1.96519   0.89844
C     0.69005  -2.51340  -0.01410
H     4.58348  -0.27976   0.40746
H     4.65353   0.99188  -0.85073
H     4.53135   1.44021   0.87735
H     2.33463   1.10121  -0.84746
H    -3.75231   2.45755  -1.53240
H    -3.87239   0.76844  -2.06978
H    -4.06097   1.17756  -0.32318
H    -2.32442  -1.24564   1.24905
H    -1.52304  -1.45475  -1.65428
H    -3.17316  -1.59303  -0.99828
H    -2.10242  -3.01614  -1.06246
H    -0.06041  -1.69051   1.93161
H     1.70247  -2.43827   0.41013
H     0.44120  -3.56569  -0.12539
H     0.71458  -2.06396  -1.02730
29

C     4.23290   0.70803   0.11042
N     2.79546   0.69378  -0.03025
C     2.00864   0.25232   0.95881
O     2.37203  -0.24796   2.01924
C     0.59710   0.45160   0.64557
N    -0.42311   0.99233   0.38438
N    -1.63608   1.28683   0.21989
C    -2.04230   1.28996  -1.11061
C    -3.52979   1.42316  -1.25842
O    -1.27276   1.19405  -2.06236
C    -1.61743  -1.67779   0.51796
C    -2.14051  -1.93779  -0.87430
C    -0.37393  -1.93860   0.89403
C     0.69001  -2.51006  -0.01396
H     4.58251  -0.27939   0.40754
H     4.65213   0.99228  -0.85062
H     4.53026   1.44053   0.87745
H     2.33305   1.09981  -0.84766
H    -3.75160   2.45710  -1.53216
H    -3.87249   0.76800  -2.06927
H    -4.06105   1.17742  -0.32279
H    -2.32475  -1.24610   1.24952
H    -1.52297  -1.45536  -1.65475
H    -3.17326  -1.59415  -0.99814
H    -2.10032  -3.01599  -1.05929
H    -0.06086  -1.69065   1.93165
H     1.70278  -2.43878   0.40952
H     0.43761  -3.56399  -0.12135
H     0.71504  -2.06600  -1.02835
29

C     4.22863   0.70911   0.11104
N     2.79006   0.69354  -0.02897
C     2.00370   0.24758   0.95858
O     2.37192  -0.24884   2.01941
C     0.58604   0.42502   0.64643
N    -0.41255   0.99942   0.38216
N    -1.63364   1.27117   0.21975
C    -2.04131   1.28607  -1.10833
C    -3.52902   1.42142  -1.25686
O    -1.27292   1.19575  -2.06262
C    -1.61682  -1.66405   0.51483
C    -2.13935  -1.93578  -0.87276
C    -0.36326  -1.91202   0.88962
C     0.68997  -2.50672  -0.01381
H     4.58153  -0.27903   0.40762
H     4.65072   0.99267  -0.85051
H     4.52917   1.44085   0.87756
H     2.33148   1.09841  -0.84786
H    -3.75088   2.45664  -1.53193
H    -3.87259   0.76756  -2.06877
H    -4.06113   1.17729  -0.32241
H    -2.32507  -1.24656   1.24999
H    -1.52290  -1.45596  -1.65522
H    -3.17335  -1.59527  -0.99799
H    -2.09821  -3.01583  -1.05611
H    -0.06131  -1.69080   1.93170
H     1.70310  -2.43929   0.40891
H     0.43401  -3.56230  -0.11730
H     0.71550  -2.06805  -1.02940
29

C     4.22435   0.71020   0.11167
N     2.78465   0.69330  -0.02769
C     1.99875   0.24285   0.95836
O     2.37181  -0.24971   2.01957
C     0.57497   0.39844   0.64728
N    -0.40199   1.00652   0.37995
N    -1.63121   1.25552   0.21962
C    -2.04033   1.28218  -1.10605
C    -3.52826   1.41969  -1.25530
O    -1.27308   1.19744  -2.06287
C    -1.61621  -1.65030   0.51171
C    -2.13820  -1.93377  -0.87122
C    -0.35259  -1.88543   0.88522
C     0.68992  -2.50338  -0.01367
H     4.58056  -0.27867   0.40770
H     4.64931   0.99307  -0.85040
H     4.52807   1.44116   0.87767
H     2.32991   1.09701  -0.84806
H    -3.75017   2.45619  -1.53170
H    -3.87269   0.76712  -2.06827
H    -4.06121   1.17716  -0.32202
H    -2.32540  -1.24702   1.25046
H    -1.52283  -1.45657  -1.65569
H    -3.17345  -1.59639  -0.99785
H    -2.09610  -3.01568  -1.05293
H    -0.06176  -1.69094   1.93174
H     1.70341  -2.43980   0.40829
H     0.43042  -3.56061  -0.11326
H     0.71597  -2.07009  -1.03044
29

C     4.22008   0.71128   0.11229
N     2.77925   0.69306  -0.02641
C     1.99381   0.23812   0.95813
O     2.37171  -0.25059   2.01974
C     0.56390   0.37186   0.64814
N    -0.39143   1.01361   0.37773
N    -1.62877   1.23986   0.21948
C    -2.03934   1.27830  -1.10378
C    -3.52749   1.41795  -1.25374
O    -1.27325   1.19914  -2.06313
C    -1.61560  -1.63655   0.50859
C    -2.13704  -1.93176  -0.86968
C    -0.34192  -1.85885   0.88081
C     0.68988  -2.50004  -0.01353
H     4.57959  -0.27830   0.40778
H     4.64791   0.99347  -0.85028
H     4.52698   1.44148   0.87778
H     2.32834   1.09561  -0.84827
H    -3.74946   2.45573  -1.53147
H    -3.87279   0.76668  -2.06777
H    -4.06129   1.17703  -0.32163
H    -2.32573  -1.24748   1.25093
H    -1.52276  -1.45717  -1.65616
H    -3.17355  -1.59752  -0.99771
H    -2.09399  -3.01553  -1.04976
H    -0.06220  -1.69109   1.93178
H     1.70372  -2.44031   0.40768
H     0.42683  -3.55892  -0.10922
H     0.71643  -2.07213  -1.03149
29

C     4.21581   0.71236   0.11292
N     2.77384   0.69282  -0.02513
C     1.98887   0.23338   0.95790
O     2.37160  -0.25146   2.01990
C     0.55284   0.34529   0.64899
N    -0.38087   1.02070   0.37552
N    -1.62633   1.22421   0.21935
C    -2.03836   1.27441  -1.10150
C    -3.52673   1.41621  -1.25218
O    -1.27341   1.20084  -2.06339
C    -1.61498  -1.62281   0.50546
C    -2.13589  -1.92976  -0.86813
C    -0.33125  -1.83226   0.87641
C     0.68984  -2.49669  -0.01338
H     4.57861  -0.27794   0.40786
H     4.64650   0.99386  -0.85017
H     4.52589   1.44180   0.87789
H     2.32676   1.09420  -0.84847
H    -3.74875   2.45527  -1.53124
H    -3.87289   0.76624  -2.06727
H    -4.06138   1.17689  -0.32125
H    -2.32606  -1.24794   1.25140
H    -1.52268  -1.45778  -1.65663
H    -3.17365  -1.59864  -0.99757
H    -2.09189  -3.01537  -1.04658
H    -0.06265  -1.69124   1.93182
H     1.70403  -2.44082   0.40707
H     0.42324  -3.55723  -0.10518
H     0.71689  -2.07418  -1.03254
29

C     4.21153   0.71345   0.11354
N     2.76844   0.69258  -0.02385
C     1.98393   0.22865   0.95768
O     2.37149  -0.25234   2.02007
C     0.54177   0.31871   0.64985
N    -0.37031   1.02779   0.37330
N    -1.62389   1.20855   0.21921
C    -2.03737   1.27053  -1.09922
C    -3.52596   1.41447  -1.25062
O    -1.27357   1.20253  -2.06364
C    -1.61437  -1.60906   0.50234
C    -2.13473  -1.92775  -0.86659
C    -0.32058  -1.80568   0.87200
C     0.68979  -2.49335  -0.01324
H     4.57764  -0.27758   0.40794
H     4.64509   0.99426  -0.85006
H     4.52480   1.44212   0.87800
H     2.32519   1.09280  -0.84867
H    -3.74804   2.45482  -1.53100
H    -3.87300   0.76580  -2.06677
H    -4.06146   1.17676  -0.32086
H    -2.32639  -1.24840   1.25187
H    -1.52261  -1.45838  -1.65710
H    -3.17375  -1.59976  -0.99742
H    -2.08978  -3.01522  -1.04340
H    -0.06310  -1.69138   1.93186
H     1.70434  -2.44133   0.40646
H     0.41965  -3.55554  -0.10114
H     0.71735  -2.07622  -1.03358
29

C     4.20726   0.71453   0.11416
N     2.76303   0.69234  -0.02257
C     1.97899   0.22392   0.95745
O     2.37138  -0.25321   2.02023
C     0.53071   0.29213   0.65070
N    -0.35975   1.03489   0.37109
N    -1.62145   1.19290   0.21908
C    -2.03639   1.26664  -1.09695
C    -3.52520   1.41274  -1.24907
O    -1.27373   1.20423  -2.06390
C    -1.61376  -1.59531   0.49921
C    -2.13358  -1.92574  -0.86505
C    -0.30991  -1.77909   0.86760
C     0.68975  -2.49001  -0.01309
H     4.57666  -0.27722   0.40802
H     4.64369   0.99465  -0.84995
H     4.52371   1.44244   0.87811
H     2.32362   1.09140  -0.84888
H    -3.74733   2.45436  -1.53077
H    -3.87310   0.76536  -2.06627
H    -4.06154   1.17663  -0.32047
H    -2.32672  -1.24886   1.25234
H    -1.52254  -1.45899  -1.65757
H    -3.17385  -1.60088  -0.99728
H    -2.08767  -3.01506  -1.04023
H    -0.06355  -1.69153   1.93191
H     1.70465  -2.44184   0.40585
H     0.41606  -3.55384  -0.09709
H     0.71781  -2.07826  -1.03463
29

C     4.20298   0.71562   0.11479
N     2.75763   0.69210  -0.02129
C     1.97405   0.21919   0.95723
O     2.37127  -0.25409   2.02040
C     0.51964   0.26555   0.65156
N    -0.34919   1.04198   0.36887
N    -1.61901   1.17724   0.21894
C    -2.03540   1.26275  -1.09467
C    -3.52443   1.41100  -1.24751
O    -1.27389   1.20593  -2.06416
C    -1.61315  -1.58157   0.49609
C    -2.13242  -1.92374  -0.86351
C    -0.29925  -1.75251   0.86319
C     0.68971  -2.48667  -0.01295
H     4.57569  -0.27685   0.40810
H     4.64228   0.99505  -0.84984
H     4.52262   1.44276   0.87822
H     2.32204   1.09000  -0.84908
H    -3.74662   2.45391  -1.53054
H    -3.87320   0.76492  -2.06577
H    -4.06162   1.17650  -0.32009
H    -2.32705  -1.24932   1.25281
H    -1.52247  -1.45959  -1.65804
H    -3.17394  -1.60200  -0.99714
H    -2.08557  -3.01491  -1.03705
H    -0.06400  -1.69167   1.93195
H     1.70496  -2.44235   0.40523
H     0.41247  -3.55215  -0.09305
H     0.71827  -2.08031  -1.03568
29

C     4.19871   0.71670   0.11541
N     2.75223   0.69187  -0.02001
C     1.96911   0.21445   0.95700
O     2.37116  -0.25496   2.02056
C     0.50858   0.23897   0.65241
N    -0.33863   1.04907   0.36666
N    -1.61657   1.16159   0.21881
C    -2.03442   1.25887  -1.09240
C    -3.52367   1.40926  -1.24595
O    -1.27406   1.20762  -2.06442
C    -1.61254  -1.56782   0.49296
C    -2.13127  -1.92173  -0.86197
C    -0.28858  -1.72592   0.85878
C     0.68966  -2.48333  -0.01281
H     4.57471  -0.27649   0.40818
H     4.64087   0.99545  -0.84972
H     4.52153   1.44308   0.87833
H     2.32047   1.08860  -0.84928
H    -3.74591   2.45345  -1.53031
H    -3.87330   0.76447  -2.06527
H    -4.06171   1.17636  -0.31970
H    -2.32737  -1.24978   1.25328
H    -1.52240  -1.46019  -1.65851
H    -3.17404  -1.60312  -0.99699
H    -2.08346  -3.01476  -1.03387
H    -0.06445  -1.69182   1.93199
H     1.70528  -2.44286   0.40462
H     0.40888  -3.55046  -0.08901
H     0.71873  -2.08235  -1.03672
29

C     4.19443   0.71779   0.11603
N     2.74682   0.69163  -0.01873
C     1.96417   0.20972   0.95677
O     2.37106  -0.25584   2.02072
C     0.49751   0.21239   0.65327
N    -0.32807   1.05616   0.36445
N    -1.61414   1.14593   0.21867
C    -2.03343   1.25498  -1.09012
C    -3.52290   1.40752  -1.24439
O    -1.27422   1.20932  -2.06467
C    -1.61193  -1.55408   0.48984
C    -2.13011  -1.91972  -0.86043
C    -0.27791  -1.69933   0.85438
C     0.68962  -2.47999  -0.01266
H     4.57374  -0.27613   0.40827
H     4.63947   0.99584  -0.84961
H     4.52044   1.44340   0.87844
H     2.31890   1.08720  -0.84948
H    -3.74520   2.45300  -1.53008
H    -3.87340   0.76403  -2.06477
H    -4.06179   1.17623  -0.31931
H    -2.32770  -1.25024   1.25375
H    -1.52233  -1.46080  -1.65898
H    -3.17414  -1.60424  -0.99685
H    -2.08135  -3.01460  -1.03069
H    -0.06490  -1.69197   1.93203
H     1.70559  -2.44337   0.40401
H     0.40529  -3.54877  -0.08497
H     0.71919  -2.08439  -1.03777
29

C     4.19016   0.71887   0.11666
N     2.74142   0.69139  -0.01745
C     1.95923   0.20499   0.95655
O     2.37095  -0.25671   2.02089
C     0.48644   0.18581   0.65413
N    -0.31751   1.06325   0.36223
N    -1.61170   1.13028   0.21854
C    -2.03245   1.25109  -1.08784
C    -3.52214   1.40579  -1.24283
O    -1.27438   1.21102  -2.06493
C    -1.61132  -1.54033   0.48672
C    -2.12896  -1.91771  -0.85888
C    -0.26724  -1.67275   0.84997
C     0.68958  -2.47665  -0.01252
H     4.57276  -0.27576   0.40835
H     4.63806   0.99624  -0.84950
H     4.51935   1.44372   0.87855
H     2.31733   1.08580  -0.84969
H    -3.74449   2.45254  -1.52984
H    -3.87350   0.76359  -2.06427
H    -4.06187   1.17610  -0.31893
H    -2.32803  -1.25070   1.25422
H    -1.52225  -1.46140  -1.65945
H    -3.17424  -1.60536  -0.99671
H    -2.07925  -3.01445  -1.02752
H    -0.06535  -1.69211   1.93207
H     1.70590  -2.44388   0.40340
H     0.40170  -3.54708  -0.08093
H     0.71965  -2.08644  -1.03882
29

C     4.18588   0.71995   0.11728
N     2.73601   0.69115  -0.01617
C     1.95429   0.20025   0.95632
O     2.37084  -0.25759   2.02105
C     0.47538   0.15923   0.65498
N    -0.30695   1.07035   0.36002
N    -1.60926   1.11462   0.21841
C    -2.03147   1.24721  -1.08557
C    -3.52138   1.40405  -1.24127
O    -1.27454   1.21272  -2.06519
C    -1.61071  -1.52658   0.48359
C    -2.12780  -1.91571  -0.85734
C    -0.25657  -1.64616   0.84557
C     0.68953  -2.47330  -0.01238
H     4.57179  -0.27540   0.40843
H     4.63665   0.99663  -0.84939
H     4.51826   1.44404   0.87865
H     2.31575   1.08440  -0.84989
H    -3.74378   2.45208  -1.52961
H    -3.87360   0.76315  -2.06377
H    -4.06195   1.17597  -0.31854
H    -2.32836  -1.25116   1.25469
H    -1.52218  -1.46201  -1.65992
H    -3.17434  -1.60648  -0.99657
H    -2.07714  -3.01430  -1.02434
H    -0.06580  -1.69226   1.93211
H     1.70621  -2.44439   0.40278
H     0.39811  -3.54539  -0.07688
H     0.72011  -2.08848  -1.03986
29

C     4.18161   0.72104   0.11790
N     2.73061   0.69091  -0.01488
C     1.94935   0.19552   0.95610
O     2.37073  -0.25846   2.02122
C     0.46431   0.13266   0.65584
N    -0.29639   1.07744   0.35780
N    -1.60682   1.09897   0.21827
C    -2.03048   1.24332  -1.08329
C    -3.52061   1.40231  -1.23971
O    -1.27470   1.21441  -2.06545
C    -1.61010  -1.51284   0.48047
C    -2.12665  -1.91370  -0.85580
C    -0.24590  -1.61958   0.84116
C     0.68949  -2.46996  -0.01223
H     4.57082  -0.27504   0.40851
H     4.63524   0.99703  -0.84928
H     4.51716   1.44436   0.87876
H     2.31418   1.08300  -0.85009
H    -3.74306   2.45163  -1.52938
H    -3.87370   0.76271  -2.06326
H    -4.06203   1.17583  -0.31815
H    -2.32869  -1.25162   1.25516
H    -1.52211  -1.46261  -1.66039
H    -3.17444  -1.60761  -0.99642
H    -2.07503  -3.01414  -1.02116
H    -0.06624  -1.69240   1.93216
H     1.70652  -2.44490   0.40217
H     0.39452  -3.54370  -0.07284
H     0.72057  -2.09053  -1.04091
29

C     4.17734   0.72212   0.11853
N     2.72520   0.69067  -0.01360
C     1.94441   0.19079   0.95587
O     2.37062  -0.25934   2.02138
C     0.45325   0.10608   0.65669
N    -0.28583   1.08453   0.35559
N    -1.60438   1.08331   0.21814
C    -2.02950   1.23943  -1.08101
C    -3.51985   1.40057  -1.23816
O    -1.27486   1.21611  -2.06570
C    -1.60948  -1.49909   0.47734
C    -2.12549  -1.91169  -0.85426
C    -0.23524  -1.59299   0.83675
C     0.68945  -2.46662  -0.01209
H     4.56984  -0.27468   0.40859
H     4.63384   0.99743  -0.84916
H     4.51607   1.44468   0.87887
H     2.31261   1.08160  -0.85030
H    -3.74235   2.45117  -1.52915
H    -3.87380   0.76227  -2.06276
H    -4.06212   1.17570  -0.31777
H    -2.32902  -1.25207   1.25563
H    -1.52204  -1.46322  -1.66086
H    -3.17453  -1.60873  -0.99628
H    -2.07293  -3.01399  -1.01799
H    -0.06669  -1.69255   1.93220
H     1.70683  -2.44541   0.40156
H     0.39093  -3.54200  -0.06880
H     0.72103  -2.09257  -1.04196
29

C     4.17306   0.72321   0.11915
N     2.71980   0.69043  -0.01232
C     1.93947   0.18606   0.95564
O     2.37051  -0.26021   2.02155
C     0.44218   0.07950   0.65755
N    -0.27527   1.09162   0.35337
N    -1.60194   1.06766   0.21800
C    -2.02851   1.23555  -1.07874
C    -3.51908   1.39884  -1.23660
O    -1.27503   1.21781  -2.06596
C    -1.60887  -1.48534   0.47422
C    -2.12434  -1.90968  -0.85272
C    -0.22457  -1.56641   0.83235
C     0.68940  -2.46328  -0.01194
H     4.56887  -0.27431   0.40867
H     4.63243   0.99782  -0.84905
H     4.51498   1.44499   0.87898
H     2.31103   1.08019  -0.85050
H    -3.74164   2.45072  -1.52892
H    -3.87390   0.76183  -2.06226
H    -4.06220   1.17557  -0.31738
H    -2.32935  -1.25253   1.25610
H    -1.52197  -1.46382  -1.66133
H    -3.17463  -1.60985  -0.99614
H    -2.07082  -3.01384  -1.01481
H    -0.06714  -1.69270   1.93224
H     1.70714  -2.44592   0.40095
H     0.38734  -3.54031  -0.06476
H     0.72149  -2.09461  -1.04300
29

C     4.16879   0.72429   0.11978
N     2.71439   0.69019  -0.01104
C     1.93453   0.18132   0.95542
O     2.37041  -0.26109   2.02171
C     0.43111   0.05292   0.65840
N    -0.26471   1.09871   0.35116
N    -1.59951   1.05200   0.21787
C    -2.02753   1.23166  -1.07646
C    -3.51832   1.39710  -1.23504
O    -1.27519   1.21950  -2.06622
C    -1.60826  -1.47160   0.47109
C    -2.12318  -1.90768  -0.85118
C    -0.21390  -1.53982   0.82794
C     0.68936  -2.45994  -0.01180
H     4.56789  -0.27395   0.40875
H     4.63102   0.99822  -0.84894
H     4.51389   1.44531   0.87909
H     2.30946   1.07879  -0.85070
H    -3.74093   2.45026  -1.52868
H    -3.87401   0.76139  -2.06176
H    -4.06228   1.17544  -0.31699
H    -2.32968  -1.25299   1.25657
H    -1.52190  -1.46442  -1.66180
H    -3.17473  -1.61097  -0.99600
H    -2.06871  -3.01368  -1.01163
H    -0.06759  -1.69284   1.93228
H     1.70746  -2.44643   0.40033
H     0.38375  -3.53862  -0.06072
H     0.72195  -2.09666  -1.04405
29

C     4.16451   0.72538   0.12040
N     2.70899   0.68995  -0.00976
C     1.92959   0.17659   0.95519
O     2.37030  -0.26196   2.02188
C     0.42005   0.02634   0.65926
N    -0.25415   1.10581   0.34894
N    -1.59707   1.03635   0.21773
C    -2.02654   1.22778  -1.07418
C    -3.51755   1.39536  -1.23348
O    -1.27535   1.22120  -2.06647
C    -1.60765  -1.45785   0.46797
C    -2.12203  -1.90567  -0.84963
C    -0.20323  -1.51324   0.82354
C     0.68932  -2.45660  -0.01166
H     4.56692  -0.27359   0.40883
H     4.62962   0.99861  -0.84883
H     4.51280   1.44563   0.87920
H     2.30789   1.07739  -0.85090
H    -3.74022   2.44980  -1.52845
H    -3.87411   0.76095  -2.06126
H    -4.06236   1.17530  -0.31661
H    -2.33000  -1.25345   1.25704
H    -1.52182  -1.46503  -1.66227
H    -3.17483  -1.61209  -0.99585
H    -2.06661  -3.01353  -1.00846
H    -0.06804  -1.69299   1.93232
H     1.70777  -2.44694   0.39972
H     0.38015  -3.53693  -0.05667
H     0.72241  -2.09870  -1.04510
