14

C -1.838724533 -1.510869844 -0.670378283
C -2.912059719 -0.808686582 1.873622748
C 0.915852214 3.349834032 -0.845008668
C 2.950779300 1.697975785 -0.578335695
C 2.695139984 -0.900240657 -0.363484511
O 0.753272896 -2.378737980 -0.426548357
H -2.796568067 -3.141118695 -1.484747479
H -1.864142748 0.110072163 -1.939942119
H -4.918022652 -0.384613520 1.651402067
H -2.716173657 -2.356710634 3.221043508
H 1.677653821 5.264112140 -1.152520021
H 4.937237066 2.268033459 -0.539216172
H -1.983805629 0.881844305 2.594622636
H 4.404484569 -2.032078154 -0.162006523

