10

N 3.585555407 -0.907266243 0.119653584
C 1.186730810 -0.350593934 0.048853030
C -0.824804831 -2.255581524 0.344047866
C -2.862908944 -0.729296145 0.128940965
C -2.235049631 1.951033886 -0.273411623
O -3.347147106 3.854610682 -0.546987765
O 0.554779201 2.018412108 -0.301714656
H 4.943283395 0.409049569 -0.085112547
H 4.023292304 -2.740395127 0.392520097
H -4.838465654 -1.253539186 0.217351291

