11

C 2.560196494 -0.533218030 0.441936019
C -0.231286774 -0.082658492 0.263574389
N -1.806850296 -1.977798852 1.335594779
C -1.140882728 1.988044625 -0.746966615
N -1.995418242 4.067259409 -1.338720934
H 3.624565099 1.040297161 -0.350682675
H 3.099848871 -0.784361385 2.418285016
H 3.098046413 -2.247792489 -0.581841401
H -2.338046564 4.252013699 -3.225440372
H -1.655473085 -3.644277532 0.410063010
H -3.641760322 -1.462904910 1.396595818

