12

O -1.912184235 -5.112941420 -2.374591638
C -1.397645713 -1.178000634 1.359039666
C -0.456632967 1.500442486 1.542247688
C 2.267070492 1.603881105 0.669368054
C 0.184535743 1.354758019 -1.245129564
C -0.856392775 -1.293857437 -1.117572522
N -0.643392238 -3.289127808 -2.881197203
H -1.939508219 -2.566238288 2.757265543
H -1.353514523 3.052386075 2.516384989
H 3.499059241 0.009317956 1.034259656
H 3.168566003 3.441615214 0.790468980
H -0.215656490 2.772915424 -2.655881888

