12

O -1.042773042 -0.618397511 3.603435750
C -1.221157538 -0.758518379 0.952010857
H -3.161771889 -1.257772626 0.486780921
C -0.607597102 1.840792536 -0.265166238
H -1.175518120 1.951994055 -2.241491329
H -1.620941345 3.245114141 0.846564801
O 2.031491791 2.520286253 -0.123595288
C 3.571534017 0.664636841 0.630810706
H 5.384261172 1.288923041 1.341152520
N 2.937699957 -1.649351355 0.377551803
C 0.706592257 -2.307574958 -0.492422018
H 0.645025849 -1.057713009 4.111846665

