14

O -1.984717725 -1.171686984 2.304066020
C -1.735421691 0.187625842 0.017052397
C -0.271642782 2.669310263 0.446769523
O 2.378407297 2.258077588 0.908821695
C 3.289595478 -0.029191658 0.284551747
N 2.136452887 -1.607126956 -1.109999274
C -0.140761126 -0.942602364 -2.049288098
H -0.444038963 -2.084553978 2.613637098
H -3.644949745 0.634655146 -0.610165316
H -0.447597185 3.955792534 -1.153541871
H -1.026001836 3.554496511 2.144156677
H 5.164291155 -0.370353439 1.032308721
H -1.489512348 -3.203201470 -3.091863399
H -1.835948034 -4.151985242 -1.958372996

