16

C 2.625783351 -0.442651129 2.381305910
C 1.759105269 -0.404087583 -0.343908480
C -0.804817236 -2.565960688 -1.543206988
C -1.104689805 0.081476184 -0.897990825
C -2.747496396 0.810157394 1.325458552
O -1.455061602 1.754784883 -2.958907352
H 4.657381798 -0.775916747 2.492324032
H 2.222801825 1.351201139 3.315266500
H 1.673859875 -1.945033438 3.420434351
H 2.810810706 0.835548453 -1.602676670
H -0.381125369 -2.619793750 -3.581323951
H 2.135001747 -2.400941242 -1.084833413
H -4.721445044 0.780246128 0.733105531
H -2.304663834 2.711172912 2.011953232
H -2.524933543 -0.519848218 2.876287279
H -1.637339708 3.443867427 -2.322026921

