17

C 3.823336301 1.411199433 -0.513828023
C 2.217243063 -0.614809904 0.685161799
O 1.356127485 -0.190249784 2.951630886
C -1.536305671 -2.114401446 1.019857902
C -3.360315681 0.008167944 1.290207356
C -2.413397674 1.005500859 -1.307411271
C -0.608798949 -1.248814719 -1.323633531
H 2.845142155 3.224320936 -0.479751612
H 5.524110108 1.588360615 0.647922497
H 4.371711087 0.944471757 -2.446853839
H 2.981729272 -2.517008939 0.290472165
H -1.339776478 -3.865089497 2.058469483
H -3.040090667 1.192012953 2.941505847
H -5.310223139 -0.676604930 1.266546964
H -3.848915237 1.005703796 -2.784729481
H -1.512396554 2.859290742 -1.246173165
H 0.084243310 -2.327154108 -2.915983130

