26

C     2.61188   0.74408   1.29996
C     1.19403   0.72882   0.94799
N     0.09238   1.14808   1.11707
C    -1.19222   1.01948   0.51053
C    -1.48495   2.29154  -0.30226
C    -1.17988  -0.49795  -0.34381
C    -1.49828  -1.54228   0.74985
C    -2.35347  -0.40576  -1.34414
C     0.12188  -0.65596  -0.98832
C     1.25009  -1.34424  -0.50053
O     2.39337  -1.40590  -1.04515
H     2.92912   1.84180   1.40676
H     3.24730   0.23846   0.63126
H     2.72957   0.31999   2.33771
H    -1.89953   0.96049   1.40404
H    -1.42759   3.31634   0.23832
H    -0.77427   2.37569  -1.13241
H    -2.49977   2.23294  -0.67535
H    -0.75609  -1.48808   1.53840
H    -2.48878  -1.32799   1.16299
H    -1.53247  -2.63034   0.41945
H    -2.70637  -1.39554  -1.79967
H    -3.23678  -0.01415  -0.82073
H    -2.12134   0.23860  -2.19653
H     0.23057  -0.21804  -2.00001
H     1.09700  -1.90203   0.45710
26

C     2.61220   0.75026   1.30644
C     1.19686   0.72294   0.94745
N     0.09563   1.14779   1.11249
C    -1.18651   1.04498   0.52862
C    -1.48411   2.29909  -0.29999
C    -1.18167  -0.52288  -0.35850
C    -1.49911  -1.54650   0.74801
C    -2.35658  -0.40971  -1.34699
C     0.11691  -0.66506  -0.99495
C     1.25040  -1.34286  -0.49912
O     2.39186  -1.40210  -1.04457
H     2.92772   1.84395   1.40999
H     3.24951   0.24175   0.63395
H     2.72949   0.32125   2.33938
H    -1.89777   0.96385   1.40772
H    -1.42883   3.32083   0.23455
H    -0.77405   2.37537  -1.13178
H    -2.49938   2.23225  -0.67411
H    -0.75547  -1.48705   1.53672
H    -2.48841  -1.32660   1.16215
H    -1.53419  -2.63271   0.42346
H    -2.71227  -1.39477  -1.80043
H    -3.23474  -0.01266  -0.81935
H    -2.12137   0.23704  -2.19740
H     0.22927  -0.22092  -2.00200
H     1.09733  -1.90171   0.45737
26

C     2.61252   0.75644   1.31291
C     1.19969   0.71706   0.94692
N     0.09889   1.14751   1.10790
C    -1.18079   1.07047   0.54671
C    -1.48327   2.30665  -0.29772
C    -1.18346  -0.54781  -0.37320
C    -1.49993  -1.55072   0.74618
C    -2.35969  -0.41367  -1.34984
C     0.11193  -0.67416  -1.00158
C     1.25071  -1.34148  -0.49771
O     2.39035  -1.39830  -1.04399
H     2.92632   1.84611   1.41323
H     3.25172   0.24503   0.63663
H     2.72940   0.32251   2.34106
H    -1.89601   0.96721   1.41141
H    -1.43007   3.32531   0.23077
H    -0.77382   2.37506  -1.13114
H    -2.49900   2.23157  -0.67287
H    -0.75486  -1.48602   1.53504
H    -2.48804  -1.32521   1.16130
H    -1.53591  -2.63508   0.42747
H    -2.71816  -1.39399  -1.80120
H    -3.23271  -0.01117  -0.81797
H    -2.12140   0.23547  -2.19826
H     0.22796  -0.22380  -2.00398
H     1.09766  -1.90138   0.45764
26

C     2.61284   0.76262   1.31938
C     1.20252   0.71118   0.94639
N     0.10214   1.14722   1.10332
C    -1.17507   1.09596   0.56479
C    -1.48243   2.31421  -0.29544
C    -1.18525  -0.57274  -0.38789
C    -1.50076  -1.55494   0.74434
C    -2.36280  -0.41763  -1.35269
C     0.10696  -0.68327  -1.00821
C     1.25102  -1.34010  -0.49629
O     2.38884  -1.39450  -1.04341
H     2.92492   1.84826   1.41646
H     3.25393   0.24832   0.63932
H     2.72932   0.32376   2.34274
H    -1.89425   0.97057   1.41510
H    -1.43131   3.32979   0.22700
H    -0.77360   2.37474  -1.13050
H    -2.49861   2.23089  -0.67162
H    -0.75425  -1.48499   1.53336
H    -2.48767  -1.32382   1.16046
H    -1.53763  -2.63745   0.43148
H    -2.72406  -1.39322  -1.80196
H    -3.23068  -0.00967  -0.81659
H    -2.12143   0.23391  -2.19913
H     0.22666  -0.22668  -2.00597
H     1.09798  -1.90106   0.45791
26

C     2.61316   0.76880   1.32585
C     1.20535   0.70530   0.94585
N     0.10540   1.14693   1.09874
C    -1.16936   1.12145   0.58288
C    -1.48159   2.32177  -0.29317
C    -1.18703  -0.59766  -0.40258
C    -1.50158  -1.55916   0.74251
C    -2.36591  -0.42158  -1.35555
C     0.10199  -0.69237  -1.01484
C     1.25132  -1.33873  -0.49488
O     2.38733  -1.39070  -1.04283
H     2.92352   1.85041   1.41970
H     3.25614   0.25161   0.64200
H     2.72923   0.32502   2.34442
H    -1.89249   0.97393   1.41879
H    -1.43255   3.33428   0.22323
H    -0.77338   2.37443  -1.12986
H    -2.49823   2.23020  -0.67038
H    -0.75363  -1.48396   1.53169
H    -2.48730  -1.32243   1.15961
H    -1.53935  -2.63982   0.43549
H    -2.72996  -1.39244  -1.80273
H    -3.22865  -0.00818  -0.81520
H    -2.12146   0.23235  -2.20000
H     0.22536  -0.22956  -2.00796
H     1.09831  -1.90074   0.45818
26

C     2.61348   0.77498   1.33233
C     1.20818   0.69942   0.94532
N     0.10865   1.14665   1.09415
C    -1.16364   1.14694   0.60096
C    -1.48075   2.32933  -0.29090
C    -1.18882  -0.62259  -0.41727
C    -1.50241  -1.56338   0.74068
C    -2.36902  -0.42554  -1.35840
C     0.09702  -0.70148  -1.02147
C     1.25163  -1.33735  -0.49347
O     2.38581  -1.38690  -1.04225
H     2.92212   1.85256   1.42294
H     3.25835   0.25490   0.64469
H     2.72915   0.32628   2.34610
H    -1.89073   0.97729   1.42248
H    -1.43378   3.33876   0.21945
H    -0.77315   2.37412  -1.12923
H    -2.49784   2.22952  -0.66914
H    -0.75302  -1.48293   1.53001
H    -2.48693  -1.32104   1.15876
H    -1.54107  -2.64219   0.43950
H    -2.73586  -1.39167  -1.80349
H    -3.22662  -0.00668  -0.81382
H    -2.12149   0.23078  -2.20086
H     0.22405  -0.23244  -2.00995
H     1.09864  -1.90042   0.45845
26

C     2.61379   0.78116   1.33880
C     1.21101   0.69354   0.94479
N     0.11191   1.14636   1.08957
C    -1.15793   1.17243   0.61905
C    -1.47991   2.33689  -0.28863
C    -1.19061  -0.64752  -0.43196
C    -1.50323  -1.56760   0.73884
C    -2.37213  -0.42950  -1.36125
C     0.09205  -0.71058  -1.02810
C     1.25194  -1.33597  -0.49206
O     2.38430  -1.38310  -1.04167
H     2.92072   1.85472   1.42617
H     3.26056   0.25818   0.64738
H     2.72906   0.32754   2.34778
H    -1.88897   0.98065   1.42616
H    -1.43502   3.34324   0.21568
H    -0.77293   2.37380  -1.12859
H    -2.49745   2.22884  -0.66790
H    -0.75240  -1.48190   1.52833
H    -2.48656  -1.31966   1.15792
H    -1.54279  -2.64456   0.44352
H    -2.74176  -1.39090  -1.80426
H    -3.22459  -0.00519  -0.81244
H    -2.12152   0.22922  -2.20173
H     0.22275  -0.23533  -2.01194
H     1.09896  -1.90009   0.45873
26

C     2.61411   0.78735   1.34527
C     1.21384   0.68766   0.94425
N     0.11517   1.14607   1.08498
C    -1.15221   1.19792   0.63714
C    -1.47907   2.34445  -0.28636
C    -1.19240  -0.67244  -0.44666
C    -1.50406  -1.57182   0.73701
C    -2.37524  -0.43345  -1.36410
C     0.08707  -0.71969  -1.03473
C     1.25225  -1.33459  -0.49065
O     2.38279  -1.37930  -1.04109
H     2.91932   1.85687   1.42941
H     3.26277   0.26147   0.65006
H     2.72898   0.32880   2.34946
H    -1.88721   0.98401   1.42985
H    -1.43626   3.34773   0.21191
H    -0.77271   2.37349  -1.12795
H    -2.49707   2.22816  -0.66665
H    -0.75179  -1.48087   1.52665
H    -2.48619  -1.31827   1.15707
H    -1.54451  -2.64693   0.44753
H    -2.74765  -1.39012  -1.80502
H    -3.22255  -0.00370  -0.81105
H    -2.12156   0.22765  -2.20260
H     0.22144  -0.23821  -2.01393
H     1.09929  -1.89977   0.45900
26

C     2.61443   0.79353   1.35174
C     1.21667   0.68178   0.94372
N     0.11842   1.14579   1.08040
C    -1.14649   1.22341   0.65522
C    -1.47823   2.35200  -0.28409
C    -1.19419  -0.69737  -0.46135
C    -1.50488  -1.57603   0.73517
C    -2.37835  -0.43741  -1.36695
C     0.08210  -0.72879  -1.04137
C     1.25255  -1.33321  -0.48924
O     2.38128  -1.37550  -1.04051
H     2.91792   1.85902   1.43264
H     3.26498   0.26476   0.65275
H     2.72889   0.33006   2.35114
H    -1.88545   0.98737   1.43354
H    -1.43750   3.35221   0.20813
H    -0.77249   2.37317  -1.12731
H    -2.49668   2.22747  -0.66541
H    -0.75118  -1.47984   1.52498
H    -2.48582  -1.31688   1.15622
H    -1.54623  -2.64930   0.45154
H    -2.75355  -1.38935  -1.80578
H    -3.22052  -0.00220  -0.80967
H    -2.12159   0.22609  -2.20346
H     0.22014  -0.24109  -2.01591
H     1.09962  -1.89945   0.45927
26

C     2.61475   0.79971   1.35822
C     1.21950   0.67590   0.94319
N     0.12168   1.14550   1.07581
C    -1.14078   1.24890   0.67331
C    -1.47739   2.35956  -0.28182
C    -1.19597  -0.72230  -0.47604
C    -1.50571  -1.58025   0.73334
C    -2.38146  -0.44136  -1.36981
C     0.07713  -0.73790  -1.04800
C     1.25286  -1.33183  -0.48782
O     2.37976  -1.37170  -1.03993
H     2.91652   1.86118   1.43588
H     3.26719   0.26805   0.65543
H     2.72880   0.33132   2.35282
H    -1.88369   0.99073   1.43723
H    -1.43874   3.35669   0.20436
H    -0.77226   2.37286  -1.12667
H    -2.49630   2.22679  -0.66417
H    -0.75056  -1.47881   1.52330
H    -2.48545  -1.31549   1.15538
H    -1.54795  -2.65167   0.45555
H    -2.75945  -1.38858  -1.80655
H    -3.21849  -0.00071  -0.80829
H    -2.12162   0.22452  -2.20433
H     0.21884  -0.24397  -2.01790
H     1.09994  -1.89913   0.45954
26

C     2.61507   0.80589   1.36469
C     1.22233   0.67002   0.94265
N     0.12493   1.14521   1.07123
C    -1.13506   1.27439   0.69139
C    -1.47655   2.36712  -0.27955
C    -1.19776  -0.74722  -0.49073
C    -1.50654  -1.58447   0.73150
C    -2.38457  -0.44532  -1.37266
C     0.07216  -0.74700  -1.05463
C     1.25317  -1.33045  -0.48641
O     2.37825  -1.36790  -1.03935
H     2.91512   1.86333   1.43912
H     3.26941   0.27134   0.65812
H     2.72872   0.33258   2.35450
H    -1.88193   0.99408   1.44092
H    -1.43998   3.36118   0.20058
H    -0.77204   2.37255  -1.12604
H    -2.49591   2.22611  -0.66292
H    -0.74995  -1.47778   1.52162
H    -2.48508  -1.31410   1.15453
H    -1.54967  -2.65404   0.45956
H    -2.76535  -1.38780  -1.80731
H    -3.21646   0.00078  -0.80691
H    -2.12165   0.22296  -2.20520
H     0.21753  -0.24685  -2.01989
H     1.10027  -1.89881   0.45981
26

C     2.61539   0.81207   1.37116
C     1.22516   0.66414   0.94212
N     0.12819   1.14493   1.06665
C    -1.12934   1.29989   0.70948
C    -1.47571   2.37468  -0.27727
C    -1.19955  -0.77215  -0.50542
C    -1.50736  -1.58869   0.72967
C    -2.38768  -0.44928  -1.37551
C     0.06719  -0.75611  -1.06126
C     1.25348  -1.32907  -0.48500
O     2.37674  -1.36410  -1.03877
H     2.91372   1.86548   1.44235
H     3.27162   0.27462   0.66081
H     2.72863   0.33384   2.35618
H    -1.88017   0.99744   1.44460
H    -1.44121   3.36566   0.19681
H    -0.77182   2.37223  -1.12540
H    -2.49553   2.22543  -0.66168
H    -0.74934  -1.47675   1.51994
H    -2.48471  -1.31271   1.15369
H    -1.55139  -2.65641   0.46357
H    -2.77124  -1.38703  -1.80808
H    -3.21443   0.00228  -0.80552
H    -2.12168   0.22139  -2.20607
H     0.21623  -0.24973  -2.02188
H     1.10060  -1.89848   0.46008
26

C     2.61571   0.81825   1.37763
C     1.22800   0.65826   0.94159
N     0.13144   1.14464   1.06206
C    -1.12363   1.32538   0.72756
C    -1.47486   2.38224  -0.27500
C    -1.20134  -0.79708  -0.52012
C    -1.50819  -1.59291   0.72783
C    -2.39079  -0.45323  -1.37836
C     0.06222  -0.76521  -1.06789
C     1.25379  -1.32769  -0.48359
O     2.37523  -1.36030  -1.03819
H     2.91232   1.86763   1.44559
H     3.27383   0.27791   0.66349
H     2.72855   0.33510   2.35786
H    -1.87841   1.00080   1.44829
H    -1.44245   3.37014   0.19304
H    -0.77159   2.37192  -1.12476
H    -2.49514   2.22474  -0.66044
H    -0.74872  -1.47572   1.51827
H    -2.48434  -1.31132   1.15284
H    -1.55311  -2.65878   0.46758
H    -2.77714  -1.38625  -1.80884
H    -3.21239   0.00377  -0.80414
H    -2.12171   0.21983  -2.20693
H     0.21493  -0.25261  -2.02387
H     1.10092  -1.89816   0.46035
26

C     2.61602   0.82443   1.38410
C     1.23083   0.65238   0.94105
N     0.13470   1.14435   1.05748
C    -1.11791   1.35087   0.74565
C    -1.47402   2.38980  -0.27273
C    -1.20312  -0.82201  -0.53481
C    -1.50901  -1.59713   0.72600
C    -2.39390  -0.45719  -1.38122
C     0.05724  -0.77432  -1.07452
C     1.25409  -1.32631  -0.48218
O     2.37371  -1.35650  -1.03761
H     2.91092   1.86979   1.44882
H     3.27604   0.28120   0.66618
H     2.72846   0.33636   2.35954
H    -1.87665   1.00416   1.45198
H    -1.44369   3.37463   0.18926
H    -0.77137   2.37160  -1.12412
H    -2.49476   2.22406  -0.65920
H    -0.74811  -1.47469   1.51659
H    -2.48397  -1.30993   1.15199
H    -1.55483  -2.66115   0.47160
H    -2.78304  -1.38548  -1.80961
H    -3.21036   0.00526  -0.80276
H    -2.12174   0.21827  -2.20780
H     0.21362  -0.25549  -2.02586
H     1.10125  -1.89784   0.46062
26

C     2.61634   0.83061   1.39058
C     1.23366   0.64650   0.94052
N     0.13795   1.14407   1.05289
C    -1.11220   1.37636   0.76374
C    -1.47318   2.39736  -0.27046
C    -1.20491  -0.84693  -0.54950
C    -1.50984  -1.60135   0.72416
C    -2.39701  -0.46114  -1.38407
C     0.05227  -0.78342  -1.08115
C     1.25440  -1.32493  -0.48077
O     2.37220  -1.35271  -1.03703
H     2.90953   1.87194   1.45206
H     3.27825   0.28449   0.66887
H     2.72838   0.33762   2.36122
H    -1.87489   1.00752   1.45567
H    -1.44493   3.37911   0.18549
H    -0.77115   2.37129  -1.12349
H    -2.49437   2.22338  -0.65795
H    -0.74750  -1.47366   1.51491
H    -2.48360  -1.30855   1.15115
H    -1.55655  -2.66352   0.47561
H    -2.78894  -1.38471  -1.81037
H    -3.20833   0.00676  -0.80138
H    -2.12178   0.21670  -2.20867
H     0.21232  -0.25837  -2.02784
H     1.10157  -1.89752   0.46089
26

C     2.61666   0.83679   1.39705
C     1.23649   0.64062   0.93999
N     0.14121   1.14378   1.04831
C    -1.10648   1.40185   0.78182
C    -1.47234   2.40491  -0.26819
C    -1.20670  -0.87186  -0.56419
C    -1.51066  -1.60556   0.72233
C    -2.40012  -0.46510  -1.38692
C     0.04730  -0.79253  -1.08778
C     1.25471  -1.32355  -0.47936
O     2.37069  -1.34891  -1.03645
H     2.90813   1.87409   1.45530
H     3.28046   0.28777   0.67155
H     2.72829   0.33888   2.36290
H    -1.87313   1.01088   1.45936
H    -1.44617   3.38359   0.18172
H    -0.77092   2.37098  -1.12285
H    -2.49398   2.22270  -0.65671
H    -0.74688  -1.47263   1.51323
H    -2.48323  -1.30716   1.15030
H    -1.55827  -2.66589   0.47962
H    -2.79484  -1.38393  -1.81114
H    -3.20630   0.00825  -0.79999
H    -2.12181   0.21514  -2.20953
H     0.21101  -0.26125  -2.02983
H     1.10190  -1.89720   0.46117
26

C     2.61698   0.84297   1.40352
C     1.23932   0.63474   0.93945
N     0.14446   1.14349   1.04373
C    -1.10076   1.42734   0.79991
C    -1.47150   2.41247  -0.26592
C    -1.20849  -0.89679  -0.57888
C    -1.51149  -1.60978   0.72049
C    -2.40323  -0.46906  -1.38977
C     0.04233  -0.80163  -1.09441
C     1.25502  -1.32217  -0.47794
O     2.36918  -1.34511  -1.03587
H     2.90673   1.87624   1.45853
H     3.28267   0.29106   0.67424
H     2.72821   0.34014   2.36458
H    -1.87137   1.01424   1.46304
H    -1.44741   3.38808   0.17794
H    -0.77070   2.37066  -1.12221
H    -2.49360   2.22201  -0.65547
H    -0.74627  -1.47160   1.51155
H    -2.48286  -1.30577   1.14945
H    -1.55999  -2.66826   0.48363
H    -2.80073  -1.38316  -1.81190
H    -3.20427   0.00974  -0.79861
H    -2.12184   0.21357  -2.21040
H     0.20971  -0.26413  -2.03182
H     1.10223  -1.89687   0.46144
26

C     2.61730   0.84915   1.40999
C     1.24215   0.62886   0.93892
N     0.14772   1.14320   1.03914
C    -1.09505   1.45283   0.81799
C    -1.47066   2.42003  -0.26365
C    -1.21028  -0.92171  -0.59357
C    -1.51231  -1.61400   0.71866
C    -2.40634  -0.47301  -1.39263
C     0.03736  -0.81074  -1.10104
C     1.25532  -1.32079  -0.47653
O     2.36766  -1.34131  -1.03529
H     2.90533   1.87840   1.46177
H     3.28488   0.29435   0.67692
H     2.72812   0.34140   2.36626
H    -1.86960   1.01760   1.46673
H    -1.44864   3.39256   0.17417
H    -0.77048   2.37035  -1.12157
H    -2.49321   2.22133  -0.65422
H    -0.74566  -1.47057   1.50988
H    -2.48249  -1.30438   1.14861
H    -1.56171  -2.67063   0.48764
H    -2.80663  -1.38238  -1.81266
H    -3.20223   0.01124  -0.79723
H    -2.12187   0.21201  -2.21127
H     0.20841  -0.26701  -2.03381
H     1.10255  -1.89655   0.46171
26

C     2.61762   0.85533   1.41647
C     1.24498   0.62298   0.93839
N     0.15097   1.14292   1.03456
C    -1.08933   1.47832   0.83608
C    -1.46982   2.42759  -0.26137
C    -1.21206  -0.94664  -0.60827
C    -1.51314  -1.61822   0.71682
C    -2.40945  -0.47697  -1.39548
C     0.03238  -0.81984  -1.10768
C     1.25563  -1.31941  -0.47512
O     2.36615  -1.33751  -1.03471
H     2.90393   1.88055   1.46500
H     3.28709   0.29764   0.67961
H     2.72804   0.34265   2.36794
H    -1.86784   1.02096   1.47042
H    -1.44988   3.39704   0.17040
H    -0.77025   2.37003  -1.12093
H    -2.49283   2.22065  -0.65298
H    -0.74504  -1.46954   1.50820
H    -2.48212  -1.30299   1.14776
H    -1.56343  -2.67299   0.49165
H    -2.81253  -1.38161  -1.81343
H    -3.20020   0.01273  -0.79585
H    -2.12190   0.21044  -2.21213
H     0.20710  -0.26989  -2.03580
H     1.10288  -1.89623   0.46198
26

C     2.61794   0.86151   1.42294
C     1.24781   0.61710   0.93785
N     0.15423   1.14263   1.02997
C    -1.08362   1.50381   0.85417
C    -1.46898   2.43515  -0.25910
C    -1.21385  -0.97157  -0.62296
C    -1.51397  -1.62244   0.71499
C    -2.41256  -0.48092  -1.39833
C     0.02741  -0.82895  -1.11431
C     1.25594  -1.31804  -0.47371
O     2.36464  -1.33371  -1.03413
H     2.90253   1.88270   1.46824
H     3.28930   0.30093   0.68230
H     2.72795   0.34391   2.36962
H    -1.86608   1.02432   1.47411
H    -1.45112   3.40153   0.16662
H    -0.77003   2.36972  -1.12030
H    -2.49244   2.21996  -0.65174
H    -0.74443  -1.46850   1.50652
H    -2.48175  -1.30160   1.14691
H    -1.56515  -2.67536   0.49567
H    -2.81843  -1.38084  -1.81419
H    -3.19817   0.01422  -0.79446
H    -2.12193   0.20888  -2.21300
H     0.20580  -0.27277  -2.03779
H     1.10321  -1.89591   0.46225
26

C     2.61825   0.86769   1.42941
C     1.25064   0.61122   0.93732
N     0.15748   1.14234   1.02539
C    -1.07790   1.52931   0.87225
C    -1.46814   2.44271  -0.25683
C    -1.21564  -0.99649  -0.63765
C    -1.51479  -1.62666   0.71315
C    -2.41567  -0.48488  -1.40118
C     0.02244  -0.83805  -1.12094
C     1.25625  -1.31666  -0.47230
O     2.36313  -1.32991  -1.03355
H     2.90113   1.88486   1.47148
H     3.29151   0.30421   0.68498
H     2.72786   0.34517   2.37130
H    -1.86432   1.02768   1.47780
H    -1.45236   3.40601   0.16285
H    -0.76981   2.36941  -1.11966
H    -2.49206   2.21928  -0.65050
H    -0.74382  -1.46747   1.50484
H    -2.48138  -1.30021   1.14607
H    -1.56687  -2.67773   0.49968
H    -2.82433  -1.38006  -1.81496
H    -3.19614   0.01572  -0.79308
H    -2.12196   0.20731  -2.21387
H     0.20449  -0.27566  -2.03977
H     1.10353  -1.89558   0.46252
26

C     2.61794   0.86151   1.42294
C     1.24781   0.61710   0.93785
N     0.15423   1.14263   1.02997
C    -1.08362   1.50381   0.85417
C    -1.46898   2.43515  -0.25910
C    -1.21385  -0.97157  -0.62296
C    -1.51397  -1.62244   0.71499
C    -2.41256  -0.48092  -1.39833
C     0.02741  -0.82895  -1.11431
C     1.25594  -1.31804  -0.47371
O     2.36464  -1.33371  -1.03413
H     2.90253   1.88270   1.46824
H     3.28930   0.30093   0.68230
H     2.72795   0.34391   2.36962
H    -1.86608   1.02432   1.47411
H    -1.45112   3.40153   0.16662
H    -0.77003   2.36972  -1.12030
H    -2.49244   2.21996  -0.65174
H    -0.74443  -1.46850   1.50652
H    -2.48175  -1.30160   1.14691
H    -1.56515  -2.67536   0.49567
H    -2.81843  -1.38084  -1.81419
H    -3.19817   0.01422  -0.79446
H    -2.12193   0.20888  -2.21300
H     0.20580  -0.27277  -2.03779
H     1.10321  -1.89591   0.46225
26

C     2.61762   0.85533   1.41647
C     1.24498   0.62298   0.93839
N     0.15097   1.14292   1.03456
C    -1.08933   1.47832   0.83608
C    -1.46982   2.42759  -0.26137
C    -1.21206  -0.94664  -0.60827
C    -1.51314  -1.61822   0.71682
C    -2.40945  -0.47697  -1.39548
C     0.03238  -0.81984  -1.10768
C     1.25563  -1.31941  -0.47512
O     2.36615  -1.33751  -1.03471
H     2.90393   1.88055   1.46500
H     3.28709   0.29764   0.67961
H     2.72804   0.34265   2.36794
H    -1.86784   1.02096   1.47042
H    -1.44988   3.39704   0.17040
H    -0.77025   2.37003  -1.12093
H    -2.49283   2.22065  -0.65298
H    -0.74504  -1.46954   1.50820
H    -2.48212  -1.30299   1.14776
H    -1.56343  -2.67299   0.49165
H    -2.81253  -1.38161  -1.81343
H    -3.20020   0.01273  -0.79585
H    -2.12190   0.21044  -2.21213
H     0.20710  -0.26989  -2.03580
H     1.10288  -1.89623   0.46198
26

C     2.61730   0.84915   1.40999
C     1.24215   0.62886   0.93892
N     0.14772   1.14320   1.03914
C    -1.09505   1.45283   0.81799
C    -1.47066   2.42003  -0.26365
C    -1.21028  -0.92171  -0.59357
C    -1.51231  -1.61400   0.71866
C    -2.40634  -0.47301  -1.39263
C     0.03736  -0.81074  -1.10104
C     1.25532  -1.32079  -0.47653
O     2.36766  -1.34131  -1.03529
H     2.90533   1.87840   1.46177
H     3.28488   0.29435   0.67692
H     2.72812   0.34140   2.36626
H    -1.86960   1.01760   1.46673
H    -1.44864   3.39256   0.17417
H    -0.77048   2.37035  -1.12157
H    -2.49321   2.22133  -0.65422
H    -0.74566  -1.47057   1.50988
H    -2.48249  -1.30438   1.14861
H    -1.56171  -2.67063   0.48764
H    -2.80663  -1.38238  -1.81266
H    -3.20223   0.01124  -0.79723
H    -2.12187   0.21201  -2.21127
H     0.20841  -0.26701  -2.03381
H     1.10255  -1.89655   0.46171
26

C     2.61698   0.84297   1.40352
C     1.23932   0.63474   0.93945
N     0.14446   1.14349   1.04373
C    -1.10076   1.42734   0.79991
C    -1.47150   2.41247  -0.26592
C    -1.20849  -0.89679  -0.57888
C    -1.51149  -1.60978   0.72049
C    -2.40323  -0.46906  -1.38977
C     0.04233  -0.80163  -1.09441
C     1.25502  -1.32217  -0.47794
O     2.36918  -1.34511  -1.03587
H     2.90673   1.87624   1.45853
H     3.28267   0.29106   0.67424
H     2.72821   0.34014   2.36458
H    -1.87137   1.01424   1.46304
H    -1.44741   3.38808   0.17794
H    -0.77070   2.37066  -1.12221
H    -2.49360   2.22201  -0.65547
H    -0.74627  -1.47160   1.51155
H    -2.48286  -1.30577   1.14945
H    -1.55999  -2.66826   0.48363
H    -2.80073  -1.38316  -1.81190
H    -3.20427   0.00974  -0.79861
H    -2.12184   0.21357  -2.21040
H     0.20971  -0.26413  -2.03182
H     1.10223  -1.89687   0.46144
26

C     2.61666   0.83679   1.39705
C     1.23649   0.64062   0.93999
N     0.14121   1.14378   1.04831
C    -1.10648   1.40185   0.78182
C    -1.47234   2.40491  -0.26819
C    -1.20670  -0.87186  -0.56419
C    -1.51066  -1.60556   0.72233
C    -2.40012  -0.46510  -1.38692
C     0.04730  -0.79253  -1.08778
C     1.25471  -1.32355  -0.47936
O     2.37069  -1.34891  -1.03645
H     2.90813   1.87409   1.45530
H     3.28046   0.28777   0.67155
H     2.72829   0.33888   2.36290
H    -1.87313   1.01088   1.45936
H    -1.44617   3.38359   0.18172
H    -0.77092   2.37098  -1.12285
H    -2.49398   2.22270  -0.65671
H    -0.74688  -1.47263   1.51323
H    -2.48323  -1.30716   1.15030
H    -1.55827  -2.66589   0.47962
H    -2.79484  -1.38393  -1.81114
H    -3.20630   0.00825  -0.79999
H    -2.12181   0.21514  -2.20953
H     0.21101  -0.26125  -2.02983
H     1.10190  -1.89720   0.46117
26

C     2.61634   0.83061   1.39058
C     1.23366   0.64650   0.94052
N     0.13795   1.14407   1.05289
C    -1.11220   1.37636   0.76374
C    -1.47318   2.39736  -0.27046
C    -1.20491  -0.84693  -0.54950
C    -1.50984  -1.60135   0.72416
C    -2.39701  -0.46114  -1.38407
C     0.05227  -0.78342  -1.08115
C     1.25440  -1.32493  -0.48077
O     2.37220  -1.35271  -1.03703
H     2.90953   1.87194   1.45206
H     3.27825   0.28449   0.66887
H     2.72838   0.33762   2.36122
H    -1.87489   1.00752   1.45567
H    -1.44493   3.37911   0.18549
H    -0.77115   2.37129  -1.12349
H    -2.49437   2.22338  -0.65795
H    -0.74750  -1.47366   1.51491
H    -2.48360  -1.30855   1.15115
H    -1.55655  -2.66352   0.47561
H    -2.78894  -1.38471  -1.81037
H    -3.20833   0.00676  -0.80138
H    -2.12178   0.21670  -2.20867
H     0.21232  -0.25837  -2.02784
H     1.10157  -1.89752   0.46089
26

C     2.61602   0.82443   1.38410
C     1.23083   0.65238   0.94105
N     0.13470   1.14435   1.05748
C    -1.11791   1.35087   0.74565
C    -1.47402   2.38980  -0.27273
C    -1.20312  -0.82201  -0.53481
C    -1.50901  -1.59713   0.72600
C    -2.39390  -0.45719  -1.38122
C     0.05724  -0.77432  -1.07452
C     1.25409  -1.32631  -0.48218
O     2.37371  -1.35650  -1.03761
H     2.91092   1.86979   1.44882
H     3.27604   0.28120   0.66618
H     2.72846   0.33636   2.35954
H    -1.87665   1.00416   1.45198
H    -1.44369   3.37463   0.18926
H    -0.77137   2.37160  -1.12412
H    -2.49476   2.22406  -0.65920
H    -0.74811  -1.47469   1.51659
H    -2.48397  -1.30993   1.15199
H    -1.55483  -2.66115   0.47160
H    -2.78304  -1.38548  -1.80961
H    -3.21036   0.00526  -0.80276
H    -2.12174   0.21827  -2.20780
H     0.21362  -0.25549  -2.02586
H     1.10125  -1.89784   0.46062
26

C     2.61571   0.81825   1.37763
C     1.22800   0.65826   0.94159
N     0.13144   1.14464   1.06206
C    -1.12363   1.32538   0.72756
C    -1.47486   2.38224  -0.27500
C    -1.20134  -0.79708  -0.52012
C    -1.50819  -1.59291   0.72783
C    -2.39079  -0.45323  -1.37836
C     0.06222  -0.76521  -1.06789
C     1.25379  -1.32769  -0.48359
O     2.37523  -1.36030  -1.03819
H     2.91232   1.86763   1.44559
H     3.27383   0.27791   0.66349
H     2.72855   0.33510   2.35786
H    -1.87841   1.00080   1.44829
H    -1.44245   3.37014   0.19304
H    -0.77159   2.37192  -1.12476
H    -2.49514   2.22474  -0.66044
H    -0.74872  -1.47572   1.51827
H    -2.48434  -1.31132   1.15284
H    -1.55311  -2.65878   0.46758
H    -2.77714  -1.38625  -1.80884
H    -3.21239   0.00377  -0.80414
H    -2.12171   0.21983  -2.20693
H     0.21493  -0.25261  -2.02387
H     1.10092  -1.89816   0.46035
26

C     2.61539   0.81207   1.37116
C     1.22516   0.66414   0.94212
N     0.12819   1.14493   1.06665
C    -1.12934   1.29989   0.70948
C    -1.47571   2.37468  -0.27727
C    -1.19955  -0.77215  -0.50542
C    -1.50736  -1.58869   0.72967
C    -2.38768  -0.44928  -1.37551
C     0.06719  -0.75611  -1.06126
C     1.25348  -1.32907  -0.48500
O     2.37674  -1.36410  -1.03877
H     2.91372   1.86548   1.44235
H     3.27162   0.27462   0.66081
H     2.72863   0.33384   2.35618
H    -1.88017   0.99744   1.44460
H    -1.44121   3.36566   0.19681
H    -0.77182   2.37223  -1.12540
H    -2.49553   2.22543  -0.66168
H    -0.74934  -1.47675   1.51994
H    -2.48471  -1.31271   1.15369
H    -1.55139  -2.65641   0.46357
H    -2.77124  -1.38703  -1.80808
H    -3.21443   0.00228  -0.80552
H    -2.12168   0.22139  -2.20607
H     0.21623  -0.24973  -2.02188
H     1.10060  -1.89848   0.46008
26

C     2.61507   0.80589   1.36469
C     1.22233   0.67002   0.94265
N     0.12493   1.14521   1.07123
C    -1.13506   1.27439   0.69139
C    -1.47655   2.36712  -0.27955
C    -1.19776  -0.74722  -0.49073
C    -1.50654  -1.58447   0.73150
C    -2.38457  -0.44532  -1.37266
C     0.07216  -0.74700  -1.05463
C     1.25317  -1.33045  -0.48641
O     2.37825  -1.36790  -1.03935
H     2.91512   1.86333   1.43912
H     3.26941   0.27134   0.65812
H     2.72872   0.33258   2.35450
H    -1.88193   0.99408   1.44092
H    -1.43998   3.36118   0.20058
H    -0.77204   2.37255  -1.12604
H    -2.49591   2.22611  -0.66292
H    -0.74995  -1.47778   1.52162
H    -2.48508  -1.31410   1.15453
H    -1.54967  -2.65404   0.45956
H    -2.76535  -1.38780  -1.80731
H    -3.21646   0.00078  -0.80691
H    -2.12165   0.22296  -2.20520
H     0.21753  -0.24685  -2.01989
H     1.10027  -1.89881   0.45981
26

C     2.61475   0.79971   1.35822
C     1.21950   0.67590   0.94319
N     0.12168   1.14550   1.07581
C    -1.14078   1.24890   0.67331
C    -1.47739   2.35956  -0.28182
C    -1.19597  -0.72230  -0.47604
C    -1.50571  -1.58025   0.73334
C    -2.38146  -0.44136  -1.36981
C     0.07713  -0.73790  -1.04800
C     1.25286  -1.33183  -0.48782
O     2.37976  -1.37170  -1.03993
H     2.91652   1.86118   1.43588
H     3.26719   0.26805   0.65543
H     2.72880   0.33132   2.35282
H    -1.88369   0.99073   1.43723
H    -1.43874   3.35669   0.20436
H    -0.77226   2.37286  -1.12667
H    -2.49630   2.22679  -0.66417
H    -0.75056  -1.47881   1.52330
H    -2.48545  -1.31549   1.15538
H    -1.54795  -2.65167   0.45555
H    -2.75945  -1.38858  -1.80655
H    -3.21849  -0.00071  -0.80829
H    -2.12162   0.22452  -2.20433
H     0.21884  -0.24397  -2.01790
H     1.09994  -1.89913   0.45954
26

C     2.61443   0.79353   1.35174
C     1.21667   0.68178   0.94372
N     0.11842   1.14579   1.08040
C    -1.14649   1.22341   0.65522
C    -1.47823   2.35200  -0.28409
C    -1.19419  -0.69737  -0.46135
C    -1.50488  -1.57603   0.73517
C    -2.37835  -0.43741  -1.36695
C     0.08210  -0.72879  -1.04137
C     1.25255  -1.33321  -0.48924
O     2.38128  -1.37550  -1.04051
H     2.91792   1.85902   1.43264
H     3.26498   0.26476   0.65275
H     2.72889   0.33006   2.35114
H    -1.88545   0.98737   1.43354
H    -1.43750   3.35221   0.20813
H    -0.77249   2.37317  -1.12731
H    -2.49668   2.22747  -0.66541
H    -0.75118  -1.47984   1.52498
H    -2.48582  -1.31688   1.15622
H    -1.54623  -2.64930   0.45154
H    -2.75355  -1.38935  -1.80578
H    -3.22052  -0.00220  -0.80967
H    -2.12159   0.22609  -2.20346
H     0.22014  -0.24109  -2.01591
H     1.09962  -1.89945   0.45927
26

C     2.61411   0.78735   1.34527
C     1.21384   0.68766   0.94425
N     0.11517   1.14607   1.08498
C    -1.15221   1.19792   0.63714
C    -1.47907   2.34445  -0.28636
C    -1.19240  -0.67244  -0.44666
C    -1.50406  -1.57182   0.73701
C    -2.37524  -0.43345  -1.36410
C     0.08707  -0.71969  -1.03473
C     1.25225  -1.33459  -0.49065
O     2.38279  -1.37930  -1.04109
H     2.91932   1.85687   1.42941
H     3.26277   0.26147   0.65006
H     2.72898   0.32880   2.34946
H    -1.88721   0.98401   1.42985
H    -1.43626   3.34773   0.21191
H    -0.77271   2.37349  -1.12795
H    -2.49707   2.22816  -0.66665
H    -0.75179  -1.48087   1.52665
H    -2.48619  -1.31827   1.15707
H    -1.54451  -2.64693   0.44753
H    -2.74765  -1.39012  -1.80502
H    -3.22255  -0.00370  -0.81105
H    -2.12156   0.22765  -2.20260
H     0.22144  -0.23821  -2.01393
H     1.09929  -1.89977   0.45900
26

C     2.61379   0.78116   1.33880
C     1.21101   0.69354   0.94479
N     0.11191   1.14636   1.08957
C    -1.15793   1.17243   0.61905
C    -1.47991   2.33689  -0.28863
C    -1.19061  -0.64752  -0.43196
C    -1.50323  -1.56760   0.73884
C    -2.37213  -0.42950  -1.36125
C     0.09205  -0.71058  -1.02810
C     1.25194  -1.33597  -0.49206
O     2.38430  -1.38310  -1.04167
H     2.92072   1.85472   1.42617
H     3.26056   0.25818   0.64738
H     2.72906   0.32754   2.34778
H    -1.88897   0.98065   1.42616
H    -1.43502   3.34324   0.21568
H    -0.77293   2.37380  -1.12859
H    -2.49745   2.22884  -0.66790
H    -0.75240  -1.48190   1.52833
H    -2.48656  -1.31966   1.15792
H    -1.54279  -2.64456   0.44352
H    -2.74176  -1.39090  -1.80426
H    -3.22459  -0.00519  -0.81244
H    -2.12152   0.22922  -2.20173
H     0.22275  -0.23533  -2.01194
H     1.09896  -1.90009   0.45873
26

C     2.61348   0.77498   1.33233
C     1.20818   0.69942   0.94532
N     0.10865   1.14665   1.09415
C    -1.16364   1.14694   0.60096
C    -1.48075   2.32933  -0.29090
C    -1.18882  -0.62259  -0.41727
C    -1.50241  -1.56338   0.74068
C    -2.36902  -0.42554  -1.35840
C     0.09702  -0.70148  -1.02147
C     1.25163  -1.33735  -0.49347
O     2.38581  -1.38690  -1.04225
H     2.92212   1.85256   1.42294
H     3.25835   0.25490   0.64469
H     2.72915   0.32628   2.34610
H    -1.89073   0.97729   1.42248
H    -1.43378   3.33876   0.21945
H    -0.77315   2.37412  -1.12923
H    -2.49784   2.22952  -0.66914
H    -0.75302  -1.48293   1.53001
H    -2.48693  -1.32104   1.15876
H    -1.54107  -2.64219   0.43950
H    -2.73586  -1.39167  -1.80349
H    -3.22662  -0.00668  -0.81382
H    -2.12149   0.23078  -2.20086
H     0.22405  -0.23244  -2.00995
H     1.09864  -1.90042   0.45845
26

C     2.61316   0.76880   1.32585
C     1.20535   0.70530   0.94585
N     0.10540   1.14693   1.09874
C    -1.16936   1.12145   0.58288
C    -1.48159   2.32177  -0.29317
C    -1.18703  -0.59766  -0.40258
C    -1.50158  -1.55916   0.74251
C    -2.36591  -0.42158  -1.35555
C     0.10199  -0.69237  -1.01484
C     1.25132  -1.33873  -0.49488
O     2.38733  -1.39070  -1.04283
H     2.92352   1.85041   1.41970
H     3.25614   0.25161   0.64200
H     2.72923   0.32502   2.34442
H    -1.89249   0.97393   1.41879
H    -1.43255   3.33428   0.22323
H    -0.77338   2.37443  -1.12986
H    -2.49823   2.23020  -0.67038
H    -0.75363  -1.48396   1.53169
H    -2.48730  -1.32243   1.15961
H    -1.53935  -2.63982   0.43549
H    -2.72996  -1.39244  -1.80273
H    -3.22865  -0.00818  -0.81520
H    -2.12146   0.23235  -2.20000
H     0.22536  -0.22956  -2.00796
H     1.09831  -1.90074   0.45818
26

C     2.61284   0.76262   1.31938
C     1.20252   0.71118   0.94639
N     0.10214   1.14722   1.10332
C    -1.17507   1.09596   0.56479
C    -1.48243   2.31421  -0.29544
C    -1.18525  -0.57274  -0.38789
C    -1.50076  -1.55494   0.74434
C    -2.36280  -0.41763  -1.35269
C     0.10696  -0.68327  -1.00821
C     1.25102  -1.34010  -0.49629
O     2.38884  -1.39450  -1.04341
H     2.92492   1.84826   1.41646
H     3.25393   0.24832   0.63932
H     2.72932   0.32376   2.34274
H    -1.89425   0.97057   1.41510
H    -1.43131   3.32979   0.22700
H    -0.77360   2.37474  -1.13050
H    -2.49861   2.23089  -0.67162
H    -0.75425  -1.48499   1.53336
H    -2.48767  -1.32382   1.16046
H    -1.53763  -2.63745   0.43148
H    -2.72406  -1.39322  -1.80196
H    -3.23068  -0.00967  -0.81659
H    -2.12143   0.23391  -2.19913
H     0.22666  -0.22668  -2.00597
H     1.09798  -1.90106   0.45791
26

C     2.61252   0.75644   1.31291
C     1.19969   0.71706   0.94692
N     0.09889   1.14751   1.10790
C    -1.18079   1.07047   0.54671
C    -1.48327   2.30665  -0.29772
C    -1.18346  -0.54781  -0.37320
C    -1.49993  -1.55072   0.74618
C    -2.35969  -0.41367  -1.34984
C     0.11193  -0.67416  -1.00158
C     1.25071  -1.34148  -0.49771
O     2.39035  -1.39830  -1.04399
H     2.92632   1.84611   1.41323
H     3.25172   0.24503   0.63663
H     2.72940   0.32251   2.34106
H    -1.89601   0.96721   1.41141
H    -1.43007   3.32531   0.23077
H    -0.77382   2.37506  -1.13114
H    -2.49900   2.23157  -0.67287
H    -0.75486  -1.48602   1.53504
H    -2.48804  -1.32521   1.16130
H    -1.53591  -2.63508   0.42747
H    -2.71816  -1.39399  -1.80120
H    -3.23271  -0.01117  -0.81797
H    -2.12140   0.23547  -2.19826
H     0.22796  -0.22380  -2.00398
H     1.09766  -1.90138   0.45764
26

C     2.61220   0.75026   1.30644
C     1.19686   0.72294   0.94745
N     0.09563   1.14779   1.11249
C    -1.18651   1.04498   0.52862
C    -1.48411   2.29909  -0.29999
C    -1.18167  -0.52288  -0.35850
C    -1.49911  -1.54650   0.74801
C    -2.35658  -0.40971  -1.34699
C     0.11691  -0.66506  -0.99495
C     1.25040  -1.34286  -0.49912
O     2.39186  -1.40210  -1.04457
H     2.92772   1.84395   1.40999
H     3.24951   0.24175   0.63395
H     2.72949   0.32125   2.33938
H    -1.89777   0.96385   1.40772
H    -1.42883   3.32083   0.23455
H    -0.77405   2.37537  -1.13178
H    -2.49938   2.23225  -0.67411
H    -0.75547  -1.48705   1.53672
H    -2.48841  -1.32660   1.16215
H    -1.53419  -2.63271   0.42346
H    -2.71227  -1.39477  -1.80043
H    -3.23474  -0.01266  -0.81935
H    -2.12137   0.23704  -2.19740
H     0.22927  -0.22092  -2.00200
H     1.09733  -1.90171   0.45737
