19

C -2.571621230 -2.271365915 -1.946603461
C -0.456766155 -1.221304143 -0.364773456
C -1.276034939 0.331089107 1.880000649
C -1.920655215 3.047999681 1.133773805
O 0.170072554 4.345602121 0.108851192
C 1.951178374 -1.627611133 -0.987437080
C 4.276233468 -0.764100403 0.377606397
H -3.868508352 -0.780968268 -2.553926156
H -1.863905587 -3.227527726 -3.628116065
H -3.691856584 -3.622120927 -0.853921826
H 0.844539090 3.323930913 -1.234794558
H 0.183638275 0.378895682 3.333711266
H -2.956226587 -0.525138771 2.730838820
H -2.498786782 4.112526381 2.802409721
H -3.516822629 3.063977807 -0.193928344
H 2.303789061 -2.755818769 -2.670489471
H 3.861108373 0.434841912 1.996444099
H 5.375379459 -2.387088945 1.031613510
H 5.504997078 0.312416175 -0.886890781

