13

C -1.848197787 -2.299358031 -0.185725383
C -1.119251203 0.137968621 0.968408880
C 2.376600662 0.718993566 -1.358921331
O -0.950452456 0.110106518 3.434162191
C -0.178789426 2.368310509 -0.314094970
N -0.420754060 4.637760866 -0.390317564
H -0.624868405 -3.844994320 0.433791866
H -3.761930160 -2.724037204 0.463982452
H -1.845040621 -2.178168213 -2.234177069
H 3.764558713 2.227151672 -1.280605846
H 1.999086030 0.160259944 -3.302583150
H 3.065483446 -0.910466456 -0.295107228
H -0.738465588 1.842715181 4.004663573

