11

C 5.121351702 0.414677986 -0.116741365
C 2.773370337 -0.300561904 0.162810620
C 0.500356524 -0.987147480 0.424738151
C -1.846783232 -1.707852212 0.741203404
N -3.978800800 -0.178274174 0.368408268
N -3.658529808 2.043378244 -0.764737807
C -3.260793822 4.029242050 -1.636470434
H 6.666576011 -0.853017062 0.323446979
H -2.340365315 -3.571762844 1.431089991
H -5.569723581 -1.060519347 -0.196923522
H 5.568660288 2.293703272 -0.793427233

