16

C 3.538481592 -2.467621098 1.541901944
C 1.217819204 -0.951390327 2.235102373
N 1.375261699 1.810314901 1.565155439
C -0.643775380 1.330782799 -0.088765784
O -1.621699957 3.102831785 -1.569643236
C -1.048733805 -1.104469010 0.488891405
C -3.723128830 2.267952352 -3.005399906
H 3.984623953 -2.228976524 -0.460473288
H 3.207026162 -4.475103597 1.883324885
H 5.172284621 -1.897039799 2.670498749
H 0.776216571 -1.149741424 4.243862724
H 3.014989983 2.355740032 0.736912271
H -2.499264505 -2.488579162 0.143357345
H -4.302357666 3.847282230 -4.184723462
H -5.276908892 1.717079631 -1.759776216
H -3.197466681 0.660556450 -4.194097883

