11

C -3.142630192 -0.392720219 -1.251045541
C -0.745658754 -0.227993492 -0.550531682
C 0.305876532 0.731052098 1.931616628
O 2.991704588 0.460968736 1.605287647
C 3.282971780 -0.503190131 -0.723536298
N 1.342639621 -0.947749184 -2.058819215
H -0.273362906 -0.395775717 3.557646458
H -4.653663252 0.188338383 -0.001454390
H -3.630520477 -1.117932874 -3.097720624
H -0.114094104 2.717577515 2.287304300
H 5.220142843 -0.836018730 -1.292046097

