11

C -3.111231882 -0.695191313 -0.085509502
C -0.362016402 -0.113375517 -0.023587373
C 0.854020715 1.994578845 0.725708727
O 3.387220203 1.621965652 0.430833462
C 3.561880484 -0.729283503 -0.495868349
N 1.438557225 -1.858406352 -0.810415889
H -3.537726628 -2.308303541 1.126522189
H -3.701155964 -1.183116387 -2.000164629
H -4.224586894 0.915337906 0.553585933
H 0.261869875 3.794684613 1.462496691
H 5.433169269 -1.438890421 -0.883601240

