13

C -2.782197777 -1.073027368 1.428948156
C -2.142486594 1.240886184 -0.030644952
N -0.821968862 3.163061061 0.966062445
C 0.312096981 1.985662266 -1.408795871
C 2.292504203 0.413842141 -0.931502680
C 3.607171606 -1.660425604 -0.850144074
H -1.383264878 -1.486601830 2.908567032
H -4.605513446 -0.765923233 2.347727121
H -2.972172625 -2.707162384 0.192104172
H 2.880772582 -3.425953863 -1.626463389
H 0.134898307 2.813563527 2.636812643
H 0.259918922 3.156941995 -3.079064586
H 5.478550153 -1.730922498 -0.011234649

