13

C -1.907365773 -1.285156874 1.572797681
C -1.159195629 0.459033335 -0.540148979
N -1.529696127 3.045347053 0.073356712
C 1.064779904 2.323167258 -0.679526938
C 2.746859105 0.439745770 0.112314342
C 3.018707206 -1.756148868 -0.827966192
H -1.275591345 -0.581333254 3.417379514
H -3.974683370 -1.358806682 1.582506413
H -1.179118974 -3.187489701 1.294271703
H 0.336424729 -1.403913953 -2.043940154
H -1.842594938 3.282931415 1.957273346
H 1.555254276 3.188747371 -2.465776593
H 4.404527617 -3.242186274 -0.910173246

