11

N 2.543890368 -0.782783842 2.362572243
C -0.443131346 0.149101470 -2.126630072
C -1.349278815 -0.759110392 0.408404700
O 0.057543219 0.199947783 2.471653924
C -1.568926444 1.997831290 -3.325149843
O -2.598102529 3.609234639 -4.383518984
H 2.850466099 -1.504634957 4.111800442
H 3.680956530 0.752966136 2.194886375
H 1.228851426 -0.649546528 -2.987139501
H -3.282496533 -0.140184192 0.765946042
H -1.297462921 -2.824969725 0.447521690

