11

N 2.600137972 0.021662290 1.492653073
C -0.467739133 -0.646680531 -1.930298223
C -1.741221336 -1.579923139 0.351085622
O -1.251485242 0.527889985 1.861575082
C -0.220047023 1.845825443 -1.157891586
O 0.125236251 4.001767511 -1.451166744
H 2.358979288 1.059585841 3.092990658
H 3.603056992 1.164831945 0.303740026
H -0.265304301 -1.339744561 -3.840626199
H -3.804687274 -1.632609459 0.063145312
H -1.114619050 -3.374755570 1.155138123

