16

O -3.245771576 -0.605824936 2.649534619
C -2.881648432 -1.366849073 0.372589571
C -1.737133348 1.116516694 -1.638593787
C 0.857656907 0.740501597 -0.539279648
C 3.445118407 1.581686877 -1.020611203
N 2.058170434 2.366586040 1.250569481
C -0.225830020 -1.802626002 -0.256924348
H -1.072581695 -1.900961453 3.548649094
H -4.286177226 -2.575489613 -0.555784818
H -2.808171269 2.657112156 -0.823553568
H -1.948687810 0.875922282 -3.661498247
H 3.818272061 3.079769341 -2.364630778
H 4.932236605 0.181584067 -0.830511974
H 2.584730184 1.372072124 2.803027378
H 0.226491556 -3.139727837 -1.762949482
H 0.300984749 -2.696826811 2.927381221

