12

C 3.001408710 0.673369946 -2.842715198
C 1.338358031 0.618643496 -0.544973260
O 1.778744305 1.642791058 1.420450228
C -2.863908685 -0.443230274 3.071509140
C -2.653859371 -1.199638886 0.700059512
O -0.754292138 -0.776061160 -1.029138385
H 1.968030782 1.471402177 -4.436568245
H 3.546800356 -1.246988752 -3.353209517
H 4.670332110 1.801081623 -2.447490884
H -1.475698941 0.690930850 4.033213328
H -4.548445625 -1.020361608 4.076407271
H -4.089925842 -2.339302231 -0.207628178

