12

C 2.709017358 0.096730129 -1.526379506
C 0.553074857 1.550372528 -0.426005420
O 0.395522380 3.704327000 0.065547683
C -1.307952980 -0.994617756 1.952432510
C -3.057058518 -0.464907076 0.061904612
O -2.206669422 0.373501213 -2.020259183
H 2.195209215 -1.840381898 -1.958345538
H 4.275562653 0.149131970 -0.189764956
H 3.266539723 1.067909007 -3.257471079
H 0.197870709 -2.310633252 1.536480470
H -1.923008000 -1.003996977 3.907122600
H -5.112556822 -0.491867516 0.311536413

