12

N 4.163674861 -1.212564367 -3.110074614
C 2.848163033 -1.029437377 -1.393865712
C 1.301081615 -0.738669149 0.901822566
C 0.152214624 1.866088825 1.489525425
C -1.718167395 1.266015724 -0.638776506
N -1.420829345 -1.369341338 0.408906158
H 2.149251605 -1.838011974 2.422578946
H -1.748082327 -0.386845003 2.384668697
H 1.302934038 3.564751167 1.499200369
H -1.007875224 1.304076547 -2.585741793
H -3.646675481 1.976336128 -0.540759058
H -1.997022884 -2.975746267 -0.483098487

