11

N -2.518053390 1.648321436 1.494519820
C -1.484489097 -0.496818806 0.917243657
O -3.188433109 -2.212631319 1.019495226
C 1.161852868 -1.039557956 0.201994413
C 2.202543205 0.109304178 -2.090451341
O 2.857236534 1.017201835 0.334794652
H -4.312252310 -0.094713489 1.630140192
H -1.572847985 3.293922100 1.660486529
H 1.877125790 -2.853590213 0.837366615
H 3.692495330 -0.872540277 -3.100872101
H 1.011977838 1.352485019 -3.206899985

