16

C 2.850979292 -0.228533878 0.998839952
C 1.469329317 0.367863555 -1.373218187
C -0.743728343 -1.463931692 -1.920080644
C -2.761432767 -0.623366243 -0.084996045
C -2.297301802 1.819881998 0.659017023
C 0.204749785 2.405281338 0.129344686
H 4.239154207 1.161874940 1.570011280
H 3.437152286 -2.147876716 1.411339292
H 0.468813216 -1.333673702 2.708935287
H 2.555677100 0.883486326 -3.045222615
H -1.418247828 -1.175813937 -3.852252096
H -0.243533900 -3.455625757 -1.732272349
H -1.036852738 -1.846864320 2.522922742
H -4.516351348 -1.639776737 0.179288012
H -3.521442537 2.925917969 1.865719176
H 1.139831322 4.155299954 0.608733168

