9

C -3.245041367 0.718216397 0.714833693
C -2.698553378 -1.500218573 -0.947847091
C -0.983879425 -3.262103610 -0.484726807
H -0.680045404 -4.824530681 -1.771683381
H 0.180411473 -3.206217265 1.202927274
H -3.820449555 -1.639781896 -2.664594470
H -2.969589161 2.491334798 -0.308326713
H -5.210428705 0.694926033 1.351024903
H -2.028245827 0.733293899 2.378880938

