15

C -3.372924709 0.915432657 0.540233071
C -1.620945219 -0.883060798 -0.827535466
C 0.099897972 -2.354169632 0.512495558
N 3.524549095 -0.660533641 0.543293237
C 3.360987177 1.598153818 -0.390058445
O 1.970615001 2.040925153 -2.314193289
H -4.060465787 2.398373652 -0.717671759
H -5.025447742 -0.038322531 1.336355904
H -2.390412444 1.851643079 2.099238359
H 0.216312943 0.660769838 -1.956641894
H -2.315613512 -1.702736855 -2.581058466
H 0.845561488 -4.060179058 -0.325109956
H 0.102082986 -2.338568337 2.562163642
H 4.468354648 -0.701933610 2.208274083
H 4.314592244 3.223576724 0.484351413

