14

C -3.643857502 1.154560622 -0.647006925
C -0.943043445 0.567354591 -0.110133768
C 0.878017308 2.138355482 0.679297658
N 3.196047345 0.852893059 0.970157462
C 2.870692915 -1.520452494 0.373140521
O 4.940745248 -2.719298716 0.618280215
C 0.202913160 -2.049341426 -0.392627093
H -4.130017780 0.744732789 -2.613627083
H -4.045728474 3.144878172 -0.296232522
H -4.910591927 0.031845986 0.538881520
H 0.732157361 4.133888846 1.079649743
H 5.393288035 -0.275938640 1.260801554
H -0.659429928 -3.460672497 0.844948896
H 0.110477792 -2.790407957 -2.318195162

