15

C 3.403954749 1.679429994 0.963846627
C 2.364741535 -0.542828780 -0.538840986
N -0.334281893 -0.798535502 -0.226030217
C -1.473030403 -2.621889419 0.886846524
O -3.842562922 -2.500433489 1.050385350
C -3.952107795 0.904459376 -0.674289128
H 3.099365517 1.395426777 2.984131776
H 5.426660277 1.916082267 0.633168366
H 2.453065463 3.426697943 0.418121955
H 3.320981467 -2.291718644 0.030026671
H 2.776569738 -0.274071458 -2.548107141
H -0.476408876 -4.247336154 1.689760711
H -5.740613253 0.120090508 -1.273651767
H -2.959357277 1.865364853 -2.174746316
H -4.025408022 1.943243981 1.080504637

