15

C -2.808916728 -4.321857693 -0.237782103
O -0.847794672 -3.762264226 1.367064879
C -0.999694732 -1.154895028 0.378720258
C 1.398648023 -0.398760218 -0.864236007
C 2.626873231 1.766444398 -0.545889192
C 1.927109764 3.929761367 1.134083456
C -3.140331624 -2.062690149 -1.284171438
H -3.594962086 -6.207137878 -0.320093792
H 0.268614704 3.549958769 2.291705604
H -1.563486244 0.088679575 1.919706724
H 2.136629387 -1.790883527 -2.179385254
H 4.344535503 2.032195676 -1.640415124
H 3.493442238 4.396382822 2.395508884
H 1.540403769 5.618944540 0.009771830
H -4.346892766 -1.218419948 -2.683885588

