15

C -2.492921941 -1.544532121 -1.195618740
O -1.017087431 -3.579950782 -0.928454627
C 0.135121408 -2.285029391 1.331192775
C 2.716679404 -1.379956005 0.744779465
C 2.689414643 0.956328654 -0.161424374
C 0.189947031 2.417521094 -0.516086378
C -1.635205149 -0.071864149 0.833365687
H -3.737973044 -1.306053314 -2.798348416
H -2.905662845 3.354117531 -0.905789139
H -0.157049204 -3.454919377 2.993838958
H 4.383413689 -2.551050522 0.934435667
H 4.388034088 1.911841155 -0.812010988
H 0.379133126 4.200961614 0.488216262
H 0.109402670 2.804889193 -2.546267889
H -2.677212852 0.837534045 2.320736068

