11

O 1.382986427 -1.907704412 -1.339351252
C 1.114248531 -1.714519052 1.396150826
C -1.028251234 0.199044456 1.061118900
O -0.591627651 2.558499463 2.158549870
C -0.384009961 -0.062411437 -1.714683118
N -1.107366527 1.044617264 -3.665355064
H -0.179297801 0.439440636 -5.235997116
H 0.631108886 -3.536798092 2.219230847
H 2.808878386 -0.917437769 2.249063991
H -2.899983896 -0.548848333 1.527903419
H -1.431058489 3.812836037 1.148745822

