14

O 1.786297408 -1.662962429 -1.626180573
C 3.747178977 1.150870195 0.374005089
C 1.851475649 2.511161068 1.449117052
C -0.482773700 2.184491010 1.575633460
C -2.762899063 1.363212956 0.657324981
C -2.148387547 -1.595685987 0.888775405
N -4.446700522 -0.497952793 1.789113364
H 2.665194742 -3.247750044 -1.759925127
H 4.920552617 -0.077171332 1.519390373
H 4.549616575 1.793220419 -1.392646348
H -3.389753854 2.082648321 -1.150995390
H -0.886697481 -2.035490641 2.472151905
H -0.410619232 -2.045405164 -1.005537123
H -4.467435504 -0.378144723 3.704598686

