10

N 1.173659064 -0.200598453 2.302475985
C 2.443928429 -1.856598016 0.797237374
O 1.906424916 -2.343189076 -1.355811976
C -3.247746945 1.342402952 -2.483281352
C -1.909578491 1.114373083 -0.435671842
N -0.916952733 1.171152512 1.660999835
H 1.736262978 0.083379951 4.091520506
H 4.054570975 -2.708743650 1.816692443
H -4.796622167 0.060850655 -2.847647629
H -2.741410817 2.726781256 -3.897868233

