13

O 2.761215695 1.648736608 1.668706365
C 3.161973542 0.740918282 -0.662635262
C -0.320257499 -1.439962614 -1.519442473
C -1.900837185 -1.020786154 0.824475830
C -2.840013060 1.575127675 0.979656227
N -3.512791465 3.634899312 1.061458692
H 2.100697096 3.339499913 1.545971714
H 4.171559743 -1.052472477 -0.501938527
H 1.335807108 0.494944046 -2.050279732
H 0.489281010 -3.322251873 -1.602430117
H -1.364544287 -1.042759587 -3.254254632
H -0.794493548 -1.373733420 2.530691916
H -3.527609393 -2.293857625 0.871426907

