13

C -3.284288106 -0.777443003 -0.021076059
N -0.651912635 -0.654434569 0.726894284
C 0.417883755 1.834969609 1.062979109
C 1.099060368 0.263695010 -1.162129939
C 5.191500887 -1.483229802 -3.120218796
C 3.562476050 -1.034491620 -1.364036026
H -3.629509454 -2.560282911 -0.995554134
H -3.845154190 0.783470058 -1.274073328
H -4.465892826 -0.718232328 1.666767052
H -0.784772400 3.461400817 0.706414396
H 1.740329555 2.050428189 2.611620553
H 0.307956194 0.859872403 -2.959190584
H 4.390747054 -1.930375721 0.324196935

