13

C -3.426569555 -0.717262105 -0.272417570
N -0.807690942 -0.922020979 0.497705938
C 0.536694106 1.339772491 1.126312883
C 1.042692218 -0.101144567 -1.292335036
C 3.076645907 -2.256231269 -2.210057209
C 4.463182449 -0.798408551 -0.980385775
H -3.907942854 -2.342013931 -1.443635108
H -3.819550915 1.019319991 -1.345206077
H -4.622714508 -0.737987260 1.405787371
H -0.411970046 3.149577506 0.888632901
H 1.793507695 1.222625968 2.738637304
H 0.382635355 0.875417763 -2.970976372
H 5.749507211 0.363699184 0.060532142

