10

C 4.025413124 -1.545269530 -1.315474298
C 2.151101836 -0.318509691 -1.010079495
C -0.162610820 1.113815992 -0.662032572
H -1.275679368 1.159559950 -2.397815616
C -1.663411144 0.738403661 1.743191413
H -2.667663404 -0.811697445 2.586669969
C -1.141831238 3.137496222 2.262107202
H -1.523735024 4.540817103 3.696766413
O 0.292754689 3.723893772 0.173332615
H 5.701894786 -2.626356996 -1.574730266

