12

C 5.377565910 -0.142233487 -0.343189458
C 3.224259218 0.447518138 -0.700452462
C 0.608035953 1.049278556 -1.142275966
C -1.441405269 -0.964347367 -0.324117926
C -2.332171028 1.056267671 1.202481885
O -0.503151278 2.712430884 0.854946756
H 7.298939127 -0.649458958 -0.022889345
H 0.299120780 1.998436513 -2.941288321
H -3.230514362 -1.912390706 -1.115695532
H -0.526746701 -2.562309926 0.577935149
H -4.823366988 -2.574186911 1.547807224
H -4.100660658 1.530222264 2.102962613

