16

O 4.313233569 -2.388033978 -1.755894020
C 3.373537074 0.425050012 0.187974969
C 0.946941156 0.607606041 -0.899528344
C -1.326898051 -0.358295664 0.469800201
C -3.888181856 -0.150079951 -0.714784674
C -3.256213976 1.423180467 1.561128131
H 5.624342864 -2.095942072 -2.989595390
H 4.863318879 1.716358644 -0.364113356
H 3.652699228 -0.495362129 1.995148503
H 2.221762305 -1.333913376 -2.194552668
H 0.633028262 2.176695984 -2.188600031
H -0.995010706 -2.071691236 1.547972632
H -4.010620689 0.798499522 -2.524637064
H -5.203309219 -1.699316753 -0.486780392
H -2.947769911 3.426427693 1.278557648
H -4.137650535 0.941936689 3.343525313

