11

C 3.826758425 -0.880036726 0.023925218
C 1.776750681 1.007997905 -0.360221370
O 0.813948203 2.186609185 1.767311046
H 0.845475203 1.037873247 3.167602677
C 0.858568492 1.738711250 -2.577767092
O -1.008690509 3.476930019 -2.858929766
H -1.520427890 4.004227764 -1.193264897
H 1.571649200 1.007562777 -4.345792038
H 5.453560831 -0.026034322 0.969703607
H 4.455884704 -1.644628079 -1.781246037
H 3.182014050 -2.467639012 1.186174796

