16

C 3.899391125 -0.825646591 -0.244803531
C 1.355391323 0.154140954 0.556036076
O 1.439582855 2.299096456 2.192220141
C -0.510547836 0.662359759 -1.386499560
C -3.765764377 -1.329030588 0.084805107
O -1.527866381 2.920283051 -1.634892966
H 5.104042170 0.651735076 -1.061689484
H 3.675284215 -2.323333440 -1.648918438
H 4.906127071 -1.648215422 1.355975097
H -1.076993374 -1.076168603 0.685803834
H 1.082343283 1.756723950 3.880686919
H -0.519602705 -0.483323459 -3.081497382
H -3.725232624 -3.303787113 0.710070374
H -4.687648086 -0.136838508 1.495024245
H -4.806054394 -1.221909271 -1.689035698
H -0.954662294 3.862687485 -0.157399862

