14

O -1.466100739 -1.651183501 2.518175126
C -1.282911841 -0.964057653 -1.052896758
C -2.202748486 1.526124526 -0.732238619
N 0.278028469 2.683217098 -1.295431182
C 1.332622296 0.108404271 -1.380924811
C 3.241585285 -0.588824582 0.621254115
O 4.276473520 0.946324199 1.919172423
H -2.637250908 -2.882784271 3.179608240
H -2.076779909 -2.710208642 -1.753187441
H -2.271571555 0.451410577 1.682236483
H -3.965559659 2.315294980 -1.414332391
H 1.013577284 3.679701185 0.168209190
H 2.128329937 -0.368865337 -3.236223452
H 3.645831113 -2.633997348 0.780504057

