10

N 2.649657206 -1.000164215 1.568293726
C 0.409578447 -0.079658551 0.540923691
C -0.291296426 2.116744574 -0.493983253
O -2.836807971 1.995411382 -1.000361503
C -3.811046089 -0.263690324 -0.348764093
N -1.800457484 -1.500255857 0.601984767
H 3.990144070 0.342991112 1.721245173
H 3.345387223 -2.511184292 0.632230911
H 0.701343864 3.828773458 -0.952601699
H -1.938380128 -3.239778121 1.350111031

