10

N 2.924156687 -0.747962312 1.434853324
C 0.579462709 -0.120980985 0.475653760
C -0.462464454 2.074395396 -0.262957620
O -2.959128110 1.671174309 -0.804770030
C -3.431679639 -0.823647827 -0.619563434
N -1.265956406 -1.978992629 0.172357800
H 4.302486111 0.515560013 1.092365597
H 3.451261227 -2.527792604 1.012532926
H 0.261360839 3.953806129 -0.541450887
H -3.277530370 -2.114233431 1.442869202

