12

C -0.609876414 -0.592694004 -2.718143791
H -2.455859064 -1.180326849 -2.059378026
H -0.607992849 0.472851126 -4.464780798
C 1.321820433 -0.025762523 -0.807077253
C 2.858079087 2.059638846 0.112464953
H 2.279147222 3.993078455 -0.235909876
H 4.879793398 1.773108442 0.296983122
N 1.162745253 0.627883558 1.821249706
H 2.196164585 -0.596187560 2.872716207
C 1.594707241 -2.396137350 -2.236926507
H 3.057179347 -2.533342767 -3.662335773
H 1.162093846 -4.155118918 -1.282483327

