16

O -4.173012432 -1.637460216 2.708616075
C -3.899861365 -1.414837458 0.152945078
C -1.348869519 1.049451051 -0.842722175
C 1.391698329 0.701312211 -0.407407624
C 3.741348265 1.568778536 -1.555121012
N 3.050426335 2.276026150 1.061577140
C 0.243892211 -1.743288413 0.130372281
H -5.030778471 -0.153539964 3.302502269
H -3.478375716 -3.300572046 -0.578380028
H -2.165518481 2.472280822 0.381983362
H -1.924983917 1.201693472 -2.797067371
H 3.717447822 3.120549290 -2.891817804
H 5.252179615 0.208253885 -1.824688517
H 4.054892323 1.218738159 2.306220326
H 0.471843751 -3.212594505 -1.275581310
H 0.113174545 -2.366520523 2.074063919

