11

N -3.730797565 -0.634862940 -1.767155294
C -1.532644364 -0.279586832 -0.754777042
C 0.542106924 -1.882625384 -0.467467183
N 2.507442616 -0.500046912 0.865906865
N 1.616381285 2.064636453 1.366453364
C -0.605859310 2.097759422 0.439100995
H -4.785302839 0.961529974 -1.658276381
H 2.976922489 -1.224845168 2.594280974
H 0.856439451 -3.834367709 -0.930442260
H 4.153534420 -0.285432397 -0.121097618
H -1.686200977 3.835049031 0.576087431

