11

N -2.729233233 -1.087616186 0.020550299
C -1.058217037 0.194332594 -1.382325986
C 1.151862056 -1.286000599 -1.740066127
N 2.007125681 -0.716852261 0.749210495
N 1.779309370 1.995867468 1.129188970
C -0.110668938 2.578549023 -0.249720901
H -4.147166194 0.006196884 0.719502847
H -0.378888198 -1.373287275 1.672414140
H 0.822419827 -3.291531181 -2.012537668
H 3.684652532 -1.346206952 1.428358449
H -0.891383038 4.466630122 -0.263524595

