8

C -4.496388527 0.167147315 -0.500219916
N -2.145522854 0.761861493 -1.759799044
C -0.154760274 1.379684754 -0.835949718
N 1.989338370 1.778514060 -0.068466081
H 2.514216434 3.592884578 0.204111152
H -5.915097089 1.573415413 -1.006200284
H -5.163669700 -1.665767179 -1.160929755
H -4.306441099 0.112215377 1.554380240

