11

C -3.742513980 -0.014391909 0.113554342
N -1.048843731 -0.333802130 -0.057247798
C 0.649835656 1.301481764 0.112796089
N 3.014950790 1.687276666 0.058617887
C 4.420388845 -1.645973791 -0.527110719
N 2.837976672 -3.171783280 -0.683230707
H -4.616980247 -1.863016660 -0.125055914
H -4.328545812 0.721728359 1.954499492
H -4.477322702 1.224869659 -1.369022919
H 0.478037253 3.436944378 0.450673451
H 6.335137664 -0.987697938 -0.522064526

