11

C 2.168258263 -3.432973118 -1.403919414
C 0.082898449 -2.449949305 -0.340104536
C -1.860124037 -1.421111651 0.421340272
C -4.162395289 -0.176645324 1.217562863
C -5.258873290 1.725495772 -0.658831263
H -5.695891656 0.811551974 -2.452404475
H -6.989250508 2.560425529 0.089767244
H -3.912480861 3.239997820 -1.028829717
H -3.811868743 0.706529140 3.057287118
H -5.528291487 -1.682075780 1.622175865
H 3.199672085 -4.680309939 -0.106731297

