13

O 2.228720182 3.833439759 1.409881538
C 1.349659859 1.929088610 0.547844907
C 2.861108772 -0.414675359 -0.194963063
O 1.243546881 -1.979095525 -1.635423110
C -1.246083007 -1.086641069 -1.460867010
C -2.397545423 -0.992189703 1.085969082
C -1.328157176 1.403380786 -0.106026164
H 3.539152483 -1.381404386 1.506210497
H 4.496445767 0.128353581 -1.328235864
H -2.355823955 -1.489693195 -3.127779685
H -1.393418792 -1.843045316 2.652630009
H -4.435158774 -1.066488084 1.225760722
H -2.562446817 2.958969902 -0.575001897

