13

O 2.289688983 4.264767064 0.208393290
C 1.478246028 2.160499765 0.008411946
C 2.772191299 -0.348156376 -0.456117469
O 1.876444487 -1.246069967 -2.583553735
C -1.913904414 -0.981774705 -1.116979469
C -1.495869500 -1.066312812 1.462599662
C -1.292737680 1.472850992 0.196413107
H 1.879521868 -1.443361154 1.330447921
H 4.807497673 -0.497287269 -0.092350972
H -2.174795298 -1.979142163 -2.866844733
H -1.734125773 -2.103445362 3.200035858
H -3.828562867 -1.322977928 0.211346875
H -2.677578760 2.954402547 0.454424104

