11

C -3.541480059 0.990611669 0.330788924
C -1.008310447 -0.231781467 0.641807514
H -0.721024115 -1.322478114 2.359473338
O 0.024006344 -1.513924019 -1.595405211
C 1.185086842 0.573933653 -0.722570723
C 3.123660970 2.023288282 -1.275309171
H 3.536846753 3.646017969 -0.109049632
H 4.319294903 1.609989154 -2.879878949
H -3.857672228 2.340080363 1.859177927
H -5.043068361 -0.421036253 0.400639078
H -3.643566390 1.995977280 -1.463048756

