11

N 2.725053121 -3.233137245 3.267268269
C 1.066334204 -2.483172636 2.091880994
C 0.578233310 2.862256667 -0.450307355
C -0.102984650 0.298467142 -1.491366925
C -1.010067798 -1.553564861 0.525745959
O 0.195421001 3.505366977 1.686979790
H 1.446994096 4.178311621 -1.828715844
H -1.589813757 0.602000527 -2.899413350
H 1.519785572 -0.445136233 -2.531906160
H -2.387823916 -0.640061804 1.757974495
H -1.919922058 -3.182409267 -0.350948031

