16

C -3.958743454 0.823425520 -0.238562409
C -1.859783868 -1.037498514 -0.863006306
C 0.457567002 -0.804468184 0.699415569
C 2.999777744 -1.631668999 -0.043273009
C 3.880274920 0.970704727 0.584963097
O 1.802011009 2.464217285 -0.714165391
H -3.399461490 2.738988509 -0.753089838
H -4.417283288 0.798947198 1.774000846
H -5.675304922 0.366385959 -1.282649887
H -2.498901791 -2.978232277 -0.450645729
H -1.386720847 -0.986842516 -2.865819122
H 0.201528558 -0.498727429 2.709696790
H 3.769336772 -3.023405765 1.275760759
H 3.095951991 -2.337610170 -1.995206423
H 5.728503377 1.501295225 -0.144445015
H 1.291718192 3.678448221 0.523542217

