11

O -0.099360930 3.271361435 -2.824631124
C -0.104611553 1.543787966 -1.351051057
O -2.473783268 -0.076890443 -1.030854520
C -2.337160642 -0.615712758 1.618673636
C 0.107781304 0.765428748 1.547086502
C 2.368907228 -0.312661575 -1.016798511
O 2.322583389 -0.389479811 1.743362849
H -2.211098978 -2.628695608 2.050380851
H -3.861107315 0.305735993 2.655890845
H 4.079310797 0.584427964 -1.707068202
H 1.941022759 -2.179467249 -1.746556656

