15

C 0.172527762 2.939406361 0.417615830
C 0.282402505 0.177492035 -0.318713857
C 2.780154265 -0.734233716 -1.373376262
C -1.956743769 -1.040561930 -1.078847574
O -2.272189382 -2.964686210 1.967465054
H 1.607386888 3.387183032 1.831909481
H -1.663030327 3.444876862 1.215780417
H 0.512836994 4.177341379 -1.206637052
H -0.491466648 -1.326377300 1.663444026
H 3.280650100 0.258746800 -3.120545416
H 4.313146282 -0.407970800 -0.030491770
H 2.737383980 -2.755490391 -1.783549973
H -1.911023281 -2.696067084 -2.279602740
H -3.759749946 -0.070251948 -1.006466225
H -3.645982159 -2.507110553 3.074549672

