15

C 1.124701570 2.837386435 -0.353994042
C 1.509667676 0.386321530 1.189205085
C -0.360241609 -3.713903603 -0.960706866
O -2.534540589 -4.360405706 -0.852123789
C -1.281965655 0.641134733 2.013841371
C -1.258242223 1.214642083 -0.859551773
C 0.552397333 -1.048079884 -1.206108383
H 0.838186681 4.558930846 0.741935918
H 2.401089434 3.145703851 -1.944161178
H 3.129874522 -0.119352286 2.352551649
H 1.169163273 -5.154219066 -0.911136610
H -1.704260598 2.238683971 3.245601123
H -2.264430053 -1.059251983 2.621505767
H -2.866583705 1.682741021 -2.049847343
H 1.854630377 -0.938521444 -2.813139302

