15

C 1.214683941 2.694960196 0.165810523
C 2.551125241 0.270387532 0.469778129
C -0.195194403 -3.545188797 -0.293588172
O -1.881782699 -3.673783016 1.223254491
C -2.549228561 0.525919568 1.451781434
C -1.084722883 1.153701534 -0.746006615
C 0.867066968 -1.105849851 -1.320940142
H 0.897250373 3.974965827 1.772666775
H 1.888242935 3.833140389 -1.437191180
H 4.562639944 -0.030955585 0.717516084
H 0.714604035 -5.291405397 -0.974758227
H -1.800402928 0.963267275 3.301095331
H -4.515083947 -0.022546096 1.332821549
H -2.188401590 1.767910845 -2.381853950
H 1.577159584 -1.456929350 -3.254183068

