14

C 2.711759804 0.394948848 1.559297496
C -0.433174568 0.059163035 -0.099103039
C -0.982614027 -2.441182336 -1.306338133
C -2.425497042 -1.669301988 0.934865580
C -0.976811226 2.505280977 -1.246126300
O -0.103140231 4.526652245 -0.664154734
H 3.736622173 -1.141258387 0.684746778
H 3.181640678 2.276725235 0.904872659
H 2.895949615 0.298812320 3.624626175
H -1.702051924 -2.271538069 -3.233393379
H 0.468076808 -3.887536873 -1.122001019
H 0.425176416 -0.068332327 2.074619555
H -4.323724516 -0.913909651 0.733370319
H -2.431240808 2.312815943 -2.739292887

