16

C 3.251247965 0.849177914 0.370090956
C 1.362339128 -0.453917941 -1.395685235
C -0.880274019 -1.213670292 0.162243211
C -1.002009590 -3.752365520 0.775562178
C -3.119563836 3.660204673 0.377648217
O -1.775449019 4.954156653 -0.915248635
H 3.853715235 -0.415524489 1.886518995
H 2.416259910 2.531373163 1.217140264
H 4.925811233 1.427589613 -0.682089766
H 2.293482949 -2.058888190 -2.333893192
H 0.792730132 0.902132915 -2.843635816
H 0.463908375 -5.136231292 0.275575964
H -2.510065442 -4.456565195 1.985224247
H -2.435065538 -2.797447262 -0.929559040
H -2.775169357 3.378657363 2.415628798
H -4.827438932 2.729224842 -0.379828261

