15

C 3.429193421 -0.849034975 0.280032505
C 0.776574012 -0.222550211 1.286607881
C -0.503014726 1.725420315 -0.367778102
O -1.817750727 0.850393480 -2.573799612
C -3.236215552 2.004149004 -0.584389735
C -0.483673021 -2.788706542 1.718013307
O -1.684460218 -3.602683582 -0.263412175
H 4.610471255 0.840817312 0.266984419
H 3.331398015 -1.588991878 -1.644039392
H 4.337263099 -2.270516578 1.463815814
H 0.996818588 0.630153837 3.156847603
H 0.630206863 3.403192187 -0.740210617
H -4.037896315 3.826522889 -1.069902933
H -4.470562963 0.736396753 0.454240083
H -1.749702937 -2.367461720 -1.657580583

