14

O -1.658032020 3.589893803 0.328875066
C -1.656243168 1.263140279 1.053781774
C -1.986544542 -1.483550376 -0.707886909
C 0.614474647 -2.432118662 -0.135377088
C 2.275281239 -0.474859300 -1.371212412
C 0.875990406 0.180142659 0.947944469
H 0.844815160 3.903523182 1.408944744
H -2.731264726 0.764200880 2.759214626
H -2.292923571 -0.920564151 -2.659058839
H -3.549095787 -2.512945083 0.127394016
H 1.145253759 -4.279214662 0.544264727
H 1.771992143 0.299145327 -3.204570539
H 4.282913556 -0.682731593 -1.020895078
H 2.054346252 2.849721641 2.056958099

