9

C -2.161518271 2.458198734 -1.808270935
C -2.987185970 0.561883853 -0.400571350
C -3.441641179 -2.070370298 -1.322779639
H -5.411348034 -2.620798215 -1.031776442
H -2.281265000 -3.425266551 -0.281366576
H -3.007690745 -2.252410998 -3.329823608
H -3.377735252 0.904328815 1.588335330
H -1.871798047 4.326823289 -1.024370492
H -1.745891661 2.209063742 -3.801314944

