14

O -2.916206118 1.530934786 0.809773798
C -1.110200360 2.141792422 2.344734494
C -2.512082026 -0.240603048 -1.341544355
N 0.006756054 -1.135964187 -1.491062131
C 1.741655878 1.078632447 -1.200805565
C 1.375365426 0.852496859 1.673201419
C 0.807185516 -1.938072424 1.099383265
H -3.035821851 0.830323965 -3.019692472
H -3.844640619 -1.776706594 -1.023162390
H 1.120098953 2.814736688 -2.127084135
H 3.633738189 0.579571141 -1.845146276
H 2.866946230 1.383401297 2.980597383
H 2.487615458 -3.124042392 0.980782296
H -0.642953292 -2.890277583 2.217035836

