14

O -2.853196507 1.628671005 2.470881877
C -0.818185045 2.660205392 2.495627425
C -2.311709603 -0.874687194 -2.237573833
N -0.095478053 -0.845093120 -1.304716919
C 1.724940306 1.267611031 -1.155110098
C 1.599780740 0.763161341 1.678859958
C 0.664648199 -1.904131866 1.170442977
H -2.812441805 0.467305025 -3.698151734
H -3.646086132 -2.283547770 -1.595929743
H 0.927841543 3.093510749 -1.750453763
H 3.454831581 0.832390607 -2.192519738
H 3.177397071 1.163368957 2.918244414
H 1.992102831 -3.468210955 0.941836893
H -0.990495167 -2.447045589 2.296441844

