10

O -3.266918897 2.647105395 1.587675154
C -2.242644006 1.262051948 0.152637525
N -0.707205379 -0.878615047 1.091224656
C 1.972893878 -0.210304654 0.556281533
C 2.671002777 -0.823253347 -1.915841365
N 3.185662128 -1.477498849 -3.944209495
H -2.089054663 1.441291129 -1.906614645
H -1.119356140 -2.528504899 0.188948065
H -1.023069208 -1.105989634 2.978169576
H 2.511018582 1.566527002 1.399921188

