10

O -2.233969048 2.762773793 -1.201598778
C -2.648518570 0.722230648 -0.375899880
N -0.842152668 -0.692023225 1.042079191
C 2.104868042 -0.163270504 0.836232534
C 2.867118139 0.439552470 -1.646061474
N 3.520165082 0.997127501 -3.651303836
H -4.462113053 -0.286901130 -0.541927494
H -1.347252745 -2.503613615 1.399172214
H -0.013370984 0.485022550 2.544947576
H 2.987730494 -1.797264395 1.689430179

