13

N -1.271038163 3.179908101 -0.137925157
C -2.093266503 0.673477169 0.701477827
O -1.451344019 -1.293864335 -0.986310463
C 0.834117458 -2.636545795 -0.466328623
C 2.948997685 -0.849684247 0.279469045
C 2.500524007 1.464479581 -0.465707281
N 1.086094768 3.083676104 -1.354748665
H -2.470236214 3.932546994 -1.414685354
H -4.148503289 0.741626060 0.837991378
H 1.206590225 -3.751628602 -2.160820471
H 0.542483527 -3.956597878 1.108840929
H -1.322668901 0.294682985 2.580256560
H 4.347435250 -1.352217301 1.678961852

