13

N -1.897001759 2.660731171 -1.167755975
C -2.095981832 0.577234400 0.308098340
O -1.658038067 -1.666414694 -1.048533249
C 0.758990073 -2.709557291 -0.433618371
C 2.332906944 -0.630740918 0.744488183
C 2.604879087 1.500421321 -0.669803485
N 1.687614341 3.177810505 -1.852422647
H -2.451611319 4.224786374 -0.187159156
H -3.749955798 0.535541146 1.549226371
H 1.560738110 -3.464547626 -2.176469198
H 0.551655710 -4.259530822 0.920653838
H -0.358768360 0.507991812 1.765974159
H 3.423764426 -0.923866542 2.447790935

