15

C 3.753463753 -0.455250689 -0.852517665
C 0.987793558 -0.121894459 -0.471724849
C -1.233368967 -1.884552621 -0.001471435
C -1.205202561 0.127247600 -2.049604684
C -2.732359860 -0.925651861 2.210365877
C -2.435313735 1.569569310 2.192763929
C -0.756599324 2.118850183 -0.029488250
H 4.533471795 1.134699053 -1.911794497
H 4.752360888 -0.578598650 0.947465423
H 4.134584285 -2.178758280 -1.921550927
H -1.087296086 -3.863571461 -0.501987811
H -1.547531948 0.153566005 -4.061283131
H -3.808944373 -2.075612493 3.507478500
H -3.204965284 2.956790405 3.476285112
H -0.153709095 4.001490911 -0.558624529

