14

C 1.574561400 -0.798177513 -2.585385976
C -0.206593288 0.135899314 3.389288112
C -0.948228816 -1.690224979 1.418691196
C -0.877658486 -0.351705490 -1.157208847
O -1.187381726 2.237918972 -0.500166172
C -0.270452765 2.527591726 2.007618881
H 1.746244114 -2.783028236 -3.125105892
H 3.213651070 -0.309391498 -1.427827965
H 1.624079046 0.348692019 -4.295886337
H -0.054322124 -3.542387392 1.541338465
H -2.928876146 -1.975636759 2.032001375
H -2.483145689 -0.861914271 -2.349560004
H -1.272200949 4.057599393 2.963246730
H 1.760248667 3.061352580 2.043593559

