16

C 2.959198521 0.547843377 -0.732546890
C 0.342294483 -0.464652417 -0.159506737
C 0.141118341 -2.050365941 2.048582569
C -1.724648551 1.487333135 0.336415999
N -2.638272475 1.265341017 -2.187509923
C -1.194954955 -0.849523431 -2.635827340
O -1.208195339 -2.393326817 -4.285907619
H 4.135921039 -0.983654869 -1.457619251
H 3.816984440 1.293866678 0.986502195
H 2.891696880 2.049861516 -2.142030640
H -1.563028817 -3.144888566 2.337982767
H 0.247617806 0.742636912 3.672294932
H 1.823340197 -2.742409726 2.986309931
H -3.147716636 1.262779568 1.806087054
H 0.057973509 2.260650091 3.014621335
H -4.264112330 1.812528998 -3.009425911

