18

C 4.475483999 -0.625662506 -0.224073330
N 2.354617138 -0.075704224 -1.901998989
C 0.461508272 1.601049767 -0.732024834
O 1.193707584 3.281269685 0.916382735
C -1.731820043 0.155182835 0.246324289
C -1.940831387 -2.601870643 0.082318076
C -3.729029934 1.610209836 1.485631115
H 5.375607020 1.071172715 0.528839081
H 5.856043261 -1.756537774 -1.257135183
H 3.827729971 -1.741392583 1.390164778
H 3.020727947 0.782272576 -3.471712580
H -0.603616508 2.368753159 -2.482110365
H -3.324584702 -3.399894785 1.381937534
H -0.086770743 -3.486897890 0.235705445
H -2.549791095 -3.009816234 -1.858285938
H -5.601605887 0.798088091 1.181825723
H -3.322800158 1.467994736 3.517605864
H -3.596011243 3.609693465 1.022544223

