14

C -2.718270232 0.025988685 0.692664749
C -0.231259373 1.090214635 -0.245873872
C 1.080831881 -0.443690592 -2.322183920
O 2.969930843 -1.323972472 -0.578027292
C 2.129816717 0.394433274 1.329395117
O 1.864906292 -0.704196897 3.673483702
H -2.616033195 -2.020775948 0.964770136
H -3.275297999 0.884707108 2.482787227
H -4.216998321 0.378488351 -0.679768105
H 0.818285389 -2.180057051 3.509401107
H -0.402175917 3.108012847 -0.625307332
H 0.002049313 -2.008718267 -3.132972444
H 1.916616342 0.674081598 -3.845444962
H 3.471617715 1.943711972 1.595976589

