14

C -3.358326537 1.256514465 0.160872423
C -0.921819477 1.010477169 -1.401168880
C 1.810760630 1.272364826 -0.507397795
C 2.478533302 -1.488321518 0.267182991
C -0.063706882 -2.395406914 1.293038997
C -1.870165154 -1.072959886 0.174322832
H -3.396431787 2.329248226 1.908026100
H -5.076343358 1.391188726 -0.948479091
H -1.258217410 0.917742280 -3.424373050
H 1.934527109 2.500290645 1.151808935
H 3.059187181 2.045940958 -1.955867673
H 3.966121399 -1.593213885 1.695131180
H -0.263538163 -3.664820858 2.886957939
H 3.121514203 -2.597946381 -1.359490592

