14

N -4.912524191 -0.663508467 -0.063646222
C -2.305925057 -0.062821299 -0.019523233
C -0.158739489 -1.516933805 -0.033478993
C 1.809541152 0.308083052 0.034535085
N 4.548648034 -0.115413700 0.051030882
C 1.012922323 2.780062462 0.090003007
N -1.564694252 2.422720430 0.052505757
H -5.409309511 -1.641539038 -1.623765956
H -5.461560136 -1.646097417 1.476329316
H -0.084364064 -3.556778412 -0.082726408
H 5.218785792 -0.985548885 -1.530516797
H 5.186724680 -1.069113141 1.597208898
H 5.209813959 1.711246386 0.106533348
H -2.845187432 3.824228705 0.071779036

