11

O 2.889705015 1.806021991 1.433587529
C 0.927003828 0.369046108 0.804271842
C 1.177683330 -1.624945996 -1.114327125
C -1.171458459 -0.120204969 -2.159739510
N -3.129688006 -0.810021806 -0.373253129
C -1.577811937 1.109429182 0.771155676
H 2.948731801 -1.485547117 -2.143795456
H 0.722220047 -3.561919847 -0.595321328
H 2.327502838 3.427436788 2.040000094
H -2.833832673 -2.496187331 0.523055726
H -2.335757331 2.913983403 1.362554443

