16

C -1.766061691 -1.332228761 2.770264969
C -1.034214321 0.733454298 0.929872848
C 1.787826763 1.422964414 0.701655839
C 1.772975575 1.072286274 -2.188060079
C -0.012238414 -2.036218884 -3.085959932
C -1.142157934 0.101199709 -1.928429020
H -1.369296362 -0.758112768 4.713266517
H -3.778294678 -1.770918552 2.633755387
H -0.711630796 -3.068220620 2.404546726
H -2.159482847 2.423759647 1.297581464
H 2.267713131 3.329734527 1.310360453
H 3.051471410 0.099725213 1.649927230
H 1.799923845 2.746141595 -3.373575341
H 0.917766676 -3.194799616 -1.617336277
H 3.169162060 -0.241924534 -2.975071408
H -2.454494701 1.195691041 -3.073298484

