14

O -2.825182773 -0.350977246 2.798745996
C -2.033483298 0.306264171 0.291581075
C -0.144802948 2.466748857 0.534802339
O 2.272169994 1.550650242 1.373772557
C 3.228670292 -0.245512954 -0.112918260
N 1.704859037 -1.773691196 -1.300377786
C -0.883782201 -1.814239295 -1.133133868
H -2.629268875 -2.150013959 2.911746818
H -3.696430439 1.025735385 -0.717897695
H 0.087790912 3.433257655 -1.281742876
H -0.732764454 3.810941833 1.971297929
H 5.250191321 -0.488462418 -0.153467758
H -1.827530891 -2.711356442 -2.702147372
H 2.530272662 -3.077359392 -2.417550517

