14

O -2.261211850 -0.673210132 2.820857511
C -1.943964571 0.205543640 0.294914155
C -0.215465798 2.509499677 0.446215417
O 2.301062281 1.792224061 1.148274052
C 3.277062512 -0.125877227 -0.151066898
N 1.967029359 -1.580466473 -1.582722314
C -0.770436239 -1.708962331 -1.405154974
H -2.429106703 -2.475851346 2.710889699
H -3.776938309 0.815446491 -0.460236543
H -0.160757905 3.472061839 -1.382481945
H -0.825592280 3.824754672 1.903023296
H 5.284789901 -0.396427691 0.120002919
H -1.600893732 -2.099580154 -3.234194094
H 1.279935164 -3.554657497 -1.196202514

