16

C -3.793827830 1.719923253 0.707554033
C -3.114270883 -1.063949615 0.974937014
C -0.281057285 -1.464759676 1.327484641
C 1.202152997 -0.834242917 -0.996417323
C 5.167423565 0.578355972 -2.272120880
O 3.411044831 -0.026048533 -0.304627121
H -2.853935712 2.544844472 -0.936155696
H -3.208880721 2.793507335 2.373099057
H -5.825663136 1.982539985 0.468938731
H -3.722357595 -2.093051849 -0.709645960
H -4.123844272 -1.883924760 2.580279086
H 0.101551652 -3.491463827 1.591390979
H 0.435307408 -0.494759722 3.016252055
H 4.253856144 0.310154003 -4.096315082
H 6.797488659 -0.662994821 -2.070613393
H 5.749257124 2.535810674 -2.011487490

