14

C 1.950319512 2.054312180 0.487489833
C 2.027521495 -2.028688212 0.324321166
C -0.517203433 -1.396710222 -0.871288295
O -2.549775864 -1.507044774 0.902049276
C -2.843191069 1.209002971 0.871837903
C -0.533301632 1.491384708 -0.845526434
H 2.584381095 -0.231262510 1.613497714
H 3.439987423 2.125440376 -0.961848261
H 1.910801862 -3.457207609 1.807521507
H 3.521165408 -2.469585770 -1.013297604
H -0.931642028 -2.474846617 -2.585201652
H -2.654830747 2.033496753 2.754888967
H -4.653544463 1.745735967 0.031415809
H -0.786906071 2.539131566 -2.599580465

