14

C 3.806376103 0.207050035 0.759580310
C 1.144058469 1.265570335 0.818004859
N -0.634547186 -0.410980226 -0.445845258
C -2.532993206 0.275271907 -1.757528066
C -5.362711832 -1.288866312 1.846043404
N -4.273894838 -3.131649598 2.371190792
H 4.502889147 0.026075575 -1.171625019
H 3.882854982 -1.643901914 1.665066677
H 5.070009941 1.462523015 1.792507407
H 0.461372041 1.463004290 2.759244975
H 1.035024371 3.108858122 -0.096805945
H -0.806253333 -2.191726715 0.293028208
H -3.857044177 -1.127874742 -2.413072433
H -2.739076476 2.238915217 -2.303144362

