11

C -2.258135168 -0.415067855 0.042069612
C 0.479298607 0.373961569 -0.155839572
C 3.153518152 -1.868280398 0.457513825
O 1.931063506 -1.149054395 -1.791210261
C 0.866648092 3.056948630 -0.728055351
N 1.063735925 5.168610408 -1.162185535
H -3.194414149 -0.051441633 -1.756042061
H -2.364281235 -2.428361867 0.454708243
H -3.224683952 0.636494303 1.525509514
H 1.523834253 0.190621096 1.791720071
H 1.916561388 -3.391525869 1.257534369

