11

O 2.230714694 -0.609672286 -1.988318012
C 1.797046963 0.954767249 -0.096704467
C 0.229174041 -0.367588713 2.002315931
N -1.850834522 -1.205970848 0.349740911
C -1.386066945 0.118909561 -1.788957745
O -0.463632702 2.397445438 -1.319189197
H 3.274976481 2.267996477 0.510813929
H 1.223723181 -1.972307043 2.817283453
H -0.438791212 0.910985224 3.470851318
H -2.126221948 -3.077164958 0.134614716
H -2.397829713 -0.287140861 -3.527755318

