14

C 3.148973568 -0.739414740 0.542463421
O 2.579329253 1.815644004 1.333487753
C 0.955346979 0.648619277 -0.301858162
C -1.769442222 -0.339629176 2.341796632
C -2.633301739 -0.660280607 -0.129111777
C -0.032134887 1.312354530 -2.656894932
H 3.003776594 -2.157326065 2.010062391
H 4.743840472 -0.896335613 -0.737372683
H -2.271889048 1.334785258 3.394049579
H -0.894507039 -1.875025624 3.355878585
H -4.057750666 0.583756922 -0.892771571
H -2.522401877 -2.484834140 -1.043172077
H -0.890845940 3.148209968 -2.905158458
H 0.694746585 0.325835347 -4.292788679

