13

N -3.704036492 1.539550463 -0.424178527
C -1.320946567 0.314950071 -0.414956324
C -0.729280101 -2.186813654 -0.103907781
N 1.795070745 -2.549605751 -0.158912002
C 3.148526364 -0.282301518 -0.629583178
O 2.912295632 1.301100191 2.059193967
C 1.052232690 1.534431459 -0.720744662
H -5.030568768 0.570275427 -1.389484647
H -4.356708873 1.913580081 1.330068785
H -2.027468337 -3.754324315 0.129621379
H 2.610733496 -4.252494672 -0.308577442
H 4.379110177 2.358853129 1.881426410
H 1.258036828 3.496888456 -1.249508664

