13

C -2.525650959 -2.628987967 1.337203238
C -1.613028306 -0.213562390 0.342681461
O 0.585633515 4.088311090 -1.806866075
C 0.995160523 -0.274535462 -0.546088993
C 2.240983787 2.328077088 -0.723772740
H -2.232309453 -2.301517799 3.379529283
H -1.461185505 -4.337879963 0.830673867
H -4.556122203 -2.904299086 1.125159678
H -1.066542924 3.679741247 -1.131219179
H 2.228763117 -1.732620739 0.277310128
H 0.567857201 -0.915361414 -2.501400859
H 2.829215127 2.916503996 1.179475811
H 3.938234049 2.247249854 -1.894998574

