13

C -2.626178001 -1.855861155 0.921166407
C -0.600683143 0.084004184 0.623131294
O -1.031538091 1.750681890 -1.715790176
C 2.010183069 -0.715592210 -0.009116058
C 2.375352026 1.987238941 -0.562141044
H -2.052435286 -3.212163893 2.369763690
H -2.939575492 -2.913186544 -0.848934649
H -4.429925499 -1.053308190 1.523528779
H -1.757899303 3.278984042 -1.072323672
H 3.051129181 -1.355780909 1.650954561
H 2.328019281 -1.969186217 -1.637422932
H 2.622279874 3.249938385 1.022410109
H 2.982281261 2.675348240 -2.397539262

