15

C -3.157333282 2.113210900 -1.255753283
C -2.469319451 -0.602183887 -0.931786762
N -0.285498292 -1.215926833 -0.035063453
C 2.046589758 -0.640471912 0.721395578
C 3.780877840 1.137024040 -0.603643814
H 5.685136090 0.991165340 0.166060609
H 3.164540622 3.088984042 -0.351910827
H 3.879779340 0.754408300 -2.647777306
C 1.431838285 -3.328113180 0.162038818
H 1.133301430 -4.658213032 1.697614601
H 1.857745458 -4.190023331 -1.670677028
H -3.795954831 -2.119096168 -1.269694908
H -5.203271216 2.345244456 -1.296289137
H -2.411260942 3.234866515 0.313195573
H -2.399640317 2.917195749 -3.003919646

