17

C -3.541796966 2.100512394 -0.911334823
C -2.693682325 -0.546256290 -0.417291761
N -0.278652192 -1.126788376 -0.742606242
C 1.231186598 -3.235849040 0.115156282
C 1.871515269 -0.532068812 0.478408924
C 4.025374820 1.142444284 -0.176598440
H -5.359622847 2.442181472 -0.005819997
H -2.172725443 3.450516391 -0.162121721
H -3.763793090 2.471846771 -2.935259830
H -1.608628211 -0.153171789 3.095483812
H -4.022532936 -2.088192664 -0.663814338
H 0.514496986 -4.257757333 1.759451051
H 2.008717114 -4.406657206 -1.386010631
H 0.013486257 0.016231198 3.013792255
H 5.431636001 1.072321329 1.326905799
H 3.386397058 3.095330442 -0.349502258
H 4.950877921 0.591874316 -1.944327191

