12

C -3.118758340 -1.138828690 -0.828822030
C -0.486500429 -0.399174106 -0.341002232
O 1.516175118 -1.916310281 -0.857198006
C 3.235542319 0.095768334 -0.041356864
C 0.873724492 1.586780482 0.714620721
O 0.413495679 3.957275270 1.508909952
H -4.385756911 0.320372678 -0.121857969
H -3.419045176 -1.352007466 -2.860853810
H -3.563037922 -2.942898103 0.069105281
H 0.180499685 1.638193297 2.816857320
H 4.256453875 0.854082452 -1.657321105
H 4.511495829 -0.569162643 1.428748923

