12

O -2.516299139 0.609005288 3.432293667
C -0.739987535 1.058133851 2.127879861
C -0.809199454 1.720886427 -0.633379694
C -0.043131241 -0.442205589 -2.321463103
C 0.175210417 -2.835078531 -1.636871982
C 3.790109435 0.930380447 3.954908463
N 1.733777043 0.975086227 3.149334619
H -2.733944452 2.318490809 -1.074721735
H 0.451639838 3.324523796 -0.957582525
H 0.318368680 0.087403254 -4.269862880
H -0.172354248 -3.474480613 0.279968670
H 0.712134881 -4.266413847 -2.995313493

