12

O -3.064600358 0.859956553 3.450654190
C -1.422970764 0.725405350 2.013825516
C -0.846170037 1.861614030 -0.566491005
C 1.177562936 -0.089132259 -1.349519264
C 0.133509113 -2.612723586 -0.991038463
C 2.834538353 0.421899858 1.010293544
N 1.874372705 0.355973304 3.047899733
H -2.546519828 1.784289177 -1.729992659
H -0.146882913 3.809626583 -0.422792848
H 1.947664674 0.280517881 -3.225571935
H 0.563601255 -3.675093352 0.691631825
H -0.328094155 -3.725495031 -2.649736574

