10

O 4.324248253 0.915729287 -0.230003612
C 2.130669758 0.365865774 -0.134445434
C -0.347830984 1.746395085 0.490218427
C -1.651145820 -0.816363405 -0.029724636
N 0.854086062 -1.836432125 -0.566985773
H -0.459141333 2.430753580 2.426308944
H -0.807700844 3.261711529 -0.821618828
H -2.574201405 -1.673706996 1.602898561
H -2.930132492 -0.833787606 -1.647430127
H 1.461148768 -3.560165123 -1.089217540

