10

O 3.913819827 0.868258649 -1.283500491
C 1.885412390 0.583198622 -0.268340940
C 0.043902382 2.295447489 0.682191660
C -1.752661586 -1.684864808 -0.291908848
N 0.699388943 -1.877983518 0.102217724
H -0.925417591 1.774864432 2.402735480
H 0.277236806 4.302914530 0.335646559
H -3.054841737 -2.869136971 0.768442105
H -2.441957105 -0.730834817 -1.950334989
H 1.526925902 -3.312668278 1.042604384

