15

C 2.656461977 -1.348443726 -1.127267743
C 1.402346727 0.454128438 0.716989058
N 0.954706268 2.961924602 -0.388558172
C -1.336679179 0.174918228 1.461591078
C -2.796476208 -2.015905708 0.597136637
C -1.658694086 3.297221184 0.008733161
N -3.587022307 4.275681196 -0.518549711
H 2.734455491 -3.253972288 -0.337510283
H 1.622174958 -1.406244514 -2.908765416
H 4.586676920 -0.751953924 -1.538688597
H 2.494918078 0.565869455 2.475414234
H 1.970089411 4.401782034 0.354975188
H -2.202784674 -3.542512605 1.881703009
H -4.823329949 -1.734827315 0.807980599
H -2.355471011 -2.681708454 -1.315933501

