14

C -1.221897989 -1.797048551 -0.309532094
C 0.234074687 0.492490048 -1.517882221
C -1.561312284 2.159896980 0.278345150
C -1.153559370 -0.069683386 2.025532578
O 1.641709832 0.110988151 2.481270211
C 2.432734882 0.354610320 0.155886191
H -3.125548334 -1.996451979 -1.064773215
H -0.252398568 -3.611032468 -0.197467914
H 1.875992634 -0.626020590 -3.311025785
H -3.475231571 2.271145743 -0.462861334
H -0.894114637 4.005950797 0.902870702
H -2.058356516 -0.401564307 3.842163491
H 3.224870979 -1.762574239 -2.789617900
H 4.397889747 0.793683631 -0.164602893

