17

C -3.367134021 -0.321462313 2.495495994
C -3.023056411 2.210536973 1.204342774
C -1.669894228 -0.170040448 0.319120677
C 1.338923626 -2.387402658 0.282658809
C 3.033974436 -1.540431756 -1.910915302
C 2.872254565 1.157839411 -0.901949366
O 1.357259298 0.472645032 1.275708715
H -2.468903711 -0.505238670 4.323728087
H -5.113263958 -1.371704119 2.306843690
H -4.528702768 2.896618937 -0.002055398
H -2.008513988 3.647882392 2.243196524
H -2.272361801 -0.866855867 -1.503132700
H 2.299582720 -3.490138241 1.740354386
H 4.949672748 -2.305052513 -1.934189169
H 2.208135981 -1.810625269 -3.786347217
H 4.638167233 1.979027797 -0.226331799
H 1.878234511 2.537857588 -2.071328692

