15

C -3.597080847 0.017438204 0.598978194
N -0.898138412 0.139088586 0.896827490
C 0.637233432 -1.986652748 -0.011860961
C 2.693103427 -0.070502394 -0.768662750
O 4.594130000 0.303713684 1.042278992
C 0.539592379 1.885672681 -0.710092710
H -4.366582578 -1.491031990 1.777569008
H -4.451768106 1.794408849 1.206065089
H -4.165410820 -0.342489711 -1.376001640
H -0.189083993 -2.927388119 -1.672738077
H 1.134841425 -3.402275103 1.406482280
H 3.642764163 -0.368236927 -2.566907081
H 3.787698447 0.572170293 2.647520889
H 0.955818372 3.730751191 0.118393968
H -0.317116868 2.145333485 -2.587852673

