15

C -3.726448096 -0.151959057 -0.197248007
N -1.023510005 -0.052675341 -0.634836446
C 0.880533610 -1.913174186 0.308965705
C 2.700595718 0.096879248 -0.792132751
O 5.227155144 0.220216664 -0.103791072
C 0.718189507 2.006959990 0.202243498
H -4.165413976 -0.117127474 1.817735118
H -4.619716287 1.466053231 -1.107006137
H -4.484119235 -1.882075814 -1.019653679
H 0.739250863 -3.783595304 -0.543693028
H 0.760084092 -2.013845396 2.384265354
H 0.218699082 -0.052088184 -2.509438563
H 5.390250999 0.278123334 1.708435872
H 0.584413980 2.208932293 2.269352431
H 0.426654976 3.811363468 -0.748913411

