16

C 3.889457421 -1.033523192 1.318874973
C 2.371566451 0.107593050 -0.843152919
C -0.094485890 -1.260178833 -1.282736871
H 0.270488235 -3.259393081 -1.702155027
C -2.043244055 -0.050588668 -3.060033154
H -2.602026791 -1.162957828 -4.696538737
H -1.543202737 1.855191739 -3.659389615
C -3.802613923 -0.162893126 -0.764547002
H -5.334025883 -1.544997315 -0.912851234
H -4.575043313 1.632091617 -0.097084339
O -1.803968369 -1.055880844 0.832274710
H 3.458834871 0.050313826 -2.604072779
H 1.957542499 2.096159617 -0.452268323
H 5.642711644 0.005096346 1.632589069
H 2.797907751 -0.993863283 3.067526523
H 4.380930966 -3.000140023 0.924243939

