17

C -2.126102895 -1.215955103 1.092936653
C -3.665979411 1.675580622 -2.584556575
C -2.103187811 0.102362004 -1.444851241
C 0.510623369 -0.882985076 -2.055025798
C 0.756962699 -1.744412365 0.735938627
C 3.890969410 1.696979483 1.825010526
C 2.381733102 -0.196514245 2.453383202
H -3.262496465 -2.938320751 1.093615235
H -2.649744417 -0.065535759 2.721796745
H -3.210237922 2.492855121 -4.407002289
H -5.449928550 2.211138530 -1.731879078
H 0.465623831 -2.485854422 -3.353739397
H 1.876666530 0.485396791 -2.763453357
H 1.255382103 -3.734488408 0.963663059
H 4.124219326 2.318921988 -0.111829532
H 4.961397346 2.706698419 3.247165249
H 2.236119424 -0.713163761 4.439768553

