10

C 0.430862848 4.759043961 2.834418734
C 0.283105597 2.656393040 1.496463876
C -1.850666317 0.786709748 1.727432873
C -3.066796409 0.283726466 -0.705651419
N -3.996592533 -0.108138708 -2.623482647
H -3.280423560 1.467883620 3.048883695
H -1.148843842 -1.016431375 2.455144691
H 1.752740917 2.178537957 0.147669303
H 2.016271427 6.035502085 2.629396526
H -1.023207744 5.285450379 4.179870399

