16

C 2.947445918 -1.104214596 1.510190884
C 0.800265736 -0.064200837 -0.062647312
C 1.116771845 0.868649425 -2.688498088
C -0.906477698 1.908164145 1.013458590
C -3.356429592 0.970315878 0.524733122
N -3.439773525 -0.706319003 -1.603823544
C -1.709854603 -1.597475803 0.156233315
H 2.323408122 -1.689947850 3.397701324
H 4.433149031 0.307319111 1.734488185
H 3.776200276 -2.738925373 0.559009844
H 2.204503682 2.597732974 -2.833297805
H 1.561926389 -0.523204050 -4.141446371
H -0.482650716 3.279698850 2.484290957
H -5.072905417 1.476286722 1.505697833
H -2.133498962 0.245861325 -2.948219742
H -2.019646685 -3.210159574 1.379333473

