12

N -0.195954300 0.426423012 -3.128153643
C 2.183626536 -0.222133980 -3.029807987
C 2.441063548 -1.309674502 -0.404353051
N -0.004388870 -1.104303847 0.948955264
C -1.697705478 0.018296971 -0.856791677
C -0.858135424 1.493157384 1.353878616
H 2.981368788 -3.298048128 -0.557768993
H 3.947330302 -0.357653384 0.638949000
H -3.589287484 -0.720868288 -1.124334718
H -0.970862821 1.216208270 -4.678277936
H 0.459268889 3.023459527 0.982835937
H -2.086795212 1.750835922 2.971207315

