14

C -1.201981750 -2.643590864 -1.060433629
C -0.137199937 -0.166680118 -0.261360461
C -1.869810339 1.412529498 1.333068064
O -0.930276625 3.736519996 2.178639776
C 2.205598778 0.661268046 -0.963765577
C 3.748098083 -0.892816660 -2.505725762
H -2.125710455 -3.587241591 0.526559410
H 0.280436340 -3.815713410 -1.869885682
H -2.648220485 -2.334107846 -2.505355791
H 2.729281458 2.560943087 -0.360196823
H -3.563598547 1.828444461 0.219658987
H -2.507673975 0.224064883 2.915090669
H 0.460251604 3.443675129 3.304231123
H 5.368431730 0.253583161 -3.151575267

