13

C -3.937230737 0.673307812 -0.114797820
C -1.270685975 -0.161848069 -0.389135370
N -0.672945608 -1.941525502 -1.888788669
O 1.951561781 -2.335683122 -1.771075437
C 3.031690910 -0.692233873 -0.084670162
N 5.343079996 -0.600586011 0.420813757
C 0.949218087 0.909020665 0.983661691
H -5.158132632 -0.443424216 -1.336014997
H -4.559546727 0.460447701 1.841504339
H -4.123634739 2.668206833 -0.609907784
H 1.251104992 2.910045044 0.586431981
H 6.328853796 -1.909253439 -0.584511339
H 0.802448275 0.695059202 3.029881554

