8

O -3.812827571 0.672931189 0.367414707
C -1.523841094 -0.078533900 -0.275541590
N 0.443329900 0.666950339 0.869977487
C 2.725104861 -0.310904545 -0.054415325
O 4.743238840 0.212088272 0.807379421
H -1.565350572 -1.382784472 -1.876703247
H -3.644833017 1.818598156 1.782751072
H 2.540168874 -1.634504930 -1.676392146

