13

C -2.627708906 -0.907077781 -1.233000225
N -2.718620228 -0.273846732 1.465973390
C -0.772327080 0.899095918 -0.223275318
C 1.546124801 -0.393158560 0.844200489
C 3.980605375 -0.016629873 -0.423790000
O 3.402246172 1.370501403 1.783844278
H -2.000167710 -2.820177531 -1.608701268
H -4.213373826 -0.231294749 -2.330083655
H -4.217622290 0.669614380 2.184482223
H -0.974837860 2.905337415 -0.605881874
H -1.103627968 -1.388584551 2.390731808
H 5.444089523 -1.445516311 -0.219357141
H 4.129774308 1.116792292 -2.139442774

