13

C -2.198686009 1.173772693 0.469709173
C -1.433756035 -0.830481417 2.284012189
C -0.594254238 0.958482678 -1.981297887
N 1.237579050 -1.068698308 -1.524596871
C 2.718942294 -0.491947980 0.646729438
C 0.463598706 -2.224344370 0.958132625
H -2.336599318 3.037936965 1.345264980
H -4.165548449 0.641188742 0.069139599
H -1.748626133 0.438849303 -3.605885289
H 0.404043420 2.703770987 -2.441970125
H 2.636152996 1.397998883 1.447833720
H 4.540560535 -1.412691731 0.794601886
H 0.862492263 -4.204997218 1.262398184

