13

C -2.076789169 1.504761229 0.528439102
C -2.125993310 -1.329500166 0.399959967
C -0.682653245 0.833850931 -1.857322877
N 1.734918740 -0.511561655 -1.425984159
C 2.670156085 -0.273265774 1.148936476
C 0.671393236 -2.150862275 0.565355317
H -1.044123100 2.446615072 2.017497349
H -3.894316663 2.387514473 0.171062223
H -2.059964238 -1.007052135 -2.299764077
H -0.911303567 1.941158895 -3.571860883
H 2.312986094 1.403930337 2.258746948
H 4.567142897 -1.014674156 1.337236176
H 1.113293539 -4.148456537 0.529655122

