13

C -3.346692513 0.748246999 0.178413144
C -1.254483293 -0.226196740 -0.783576336
O -1.120148766 -2.225517682 -2.397602209
C 1.382160956 0.722435929 -0.223292496
O 1.398508902 3.008829532 1.055959948
C 2.798722714 -1.279318621 1.271769241
O 3.804531787 -0.769678799 3.241586041
H -3.221793541 2.352747368 1.429800158
H -5.193659729 0.001318726 -0.293358343
H -2.788311003 -2.865557508 -2.713379470
H 2.359658625 0.883474837 -2.055074420
H 2.351811991 2.732504708 2.591857967
H 2.847980750 -3.197505703 0.460876706

