21

C 3.001287220 -3.178717593 -0.157309080
C 3.124096911 -0.690866202 0.462039379
C -0.427139974 1.650357823 -0.814660195
C 0.922594605 4.079890244 -1.212369574
C -2.037372071 0.161600307 -2.065874470
C -2.755893640 0.860230657 0.580531084
C -2.806359986 -1.017836046 2.736293779
H 2.413606054 -4.583679455 1.213056660
H 0.246030020 -3.524268093 -1.717657282
H 3.984675845 -3.896026714 -1.804148044
H 2.660757438 -0.052691101 2.348469670
H 4.221408923 0.587747873 -0.692538251
H 1.999891299 4.056590128 -2.971126680
H 2.207718938 4.527632862 0.336871102
H -0.461591457 5.611710120 -1.334943296
H -2.935325895 0.097191468 -3.896194559
H -0.990639788 -2.606356361 -2.101192109
H -4.217982585 2.312941912 0.781461543
H -2.411565774 -0.085042721 4.536779760
H -1.427447185 -2.522874119 2.477629371
H -4.669475629 -1.896823539 2.884852236

