13

C 2.670683867 1.463642508 0.264937429
C 0.818833637 -0.116195669 -1.404634317
C -1.043655790 -1.923820280 -0.200817472
N -2.212897014 -0.804377836 2.023630096
C 0.576076187 2.629062951 -1.110569461
O -0.599053499 4.494717499 -1.573562302
H 2.430338748 1.287880139 2.293399574
H 4.592661985 1.702370796 -0.399917959
H -3.091903253 -2.127274695 3.078906227
H 1.604601375 -0.752780717 -3.191210137
H -0.027482060 -3.620372817 0.398406707
H -2.408308906 -2.512085389 -1.649932503
H -3.516238250 0.505486658 1.532583685

