15

O 5.218816803 -0.038014600 0.877154440
C 3.150734396 -1.388643983 -0.148225412
C 0.869290609 0.328073803 0.018057958
C -4.398065567 3.125150414 -0.415017324
C -4.038252510 0.416475059 -0.514254780
C -1.500160426 -0.876339136 -1.008403365
O -1.464902105 -2.797535664 -2.225730031
H 6.711760856 -1.049372022 0.721111363
H 2.795252213 -3.135223864 0.907515743
H 3.488365470 -1.910838617 -2.120749244
H 0.566982504 0.923998993 1.975460599
H -2.567372105 3.980588594 0.129965952
H 1.240620999 2.063569117 -1.045844565
H -5.558542147 -0.664345181 -1.394221491
H -4.406939343 0.333599022 1.578583172

