12

O -3.068254068 1.700789190 2.089950318
C -1.224890276 0.954061663 0.544028246
C -1.774031479 -0.671227696 -1.642409749
C 0.315638026 -2.209392574 -0.300679256
C 2.633120609 -0.686032415 -0.894609916
C 1.292349417 0.785663954 1.105760543
H -3.669025347 -1.455887091 -1.582683046
H -1.285154304 0.084904488 -3.498487618
H -2.389462157 2.131527051 3.721642390
H 2.797122910 0.240314109 -2.733882960
H 4.409793264 -1.483884082 -0.249939826
H 2.066554507 1.197697835 2.956032984

