12

O -2.689168336 1.720191594 2.327559359
C -1.256213205 1.652459747 0.292558177
C -1.965429044 -0.266874115 -1.560033507
C -0.064653275 -1.342507926 0.467255174
C 2.528231852 -0.784131537 -0.614177998
C 1.382475161 1.391457899 0.747211996
H -3.910831168 -0.871786181 -1.394845989
H -1.202593889 -0.254230090 -3.462088885
H -1.695724384 -0.530469159 2.571343648
H 2.742888639 -0.755094214 -2.654932792
H 4.138318100 -1.586258086 0.363866576
H 2.085229990 2.020439331 2.559426487

