10

C -1.875400659 -1.220664660 0.331820941
H -3.171730519 0.325399444 -0.116376176
H -2.931715497 -2.744556625 1.244171038
C -0.091620121 -2.027512274 -1.806263555
H -0.303882890 -0.997173044 -3.572812247
H -0.045313044 -4.046625981 -2.193046348
C 1.998831598 -1.058984039 -0.046596357
H 3.337194240 -2.480750574 0.630329582
H 3.048397922 0.587259095 -0.724842646
O 0.198434792 -0.381718743 1.864105955

