13

O -1.340924770 3.654912343 0.404470044
C -1.782499663 -0.405248479 0.572356488
C -0.187337130 -1.428584328 -1.497643481
C 2.374794519 -1.348132242 -0.197344118
O 2.050168672 0.730606840 1.372234244
H -1.787621728 4.400472549 1.999049124
H -3.671617144 0.242071517 0.135339747
H -1.521412815 -1.148378402 2.456146265
H -0.226582811 -0.102923877 -3.079561924
H -0.959021571 -3.227659893 -2.196756429
H 2.699550945 -3.091094980 0.898789498
H 3.961562246 -1.154690371 -1.519201060
H 0.422254030 2.875264805 0.655927528

