14

C 2.023834885 -2.295242246 -0.121384498
C 0.458745076 0.063539301 -0.374731217
C 1.640716970 2.555371777 -0.618470114
O 0.565609939 1.314194367 -2.736650219
C -2.162829552 -0.017205257 0.719610467
O -2.189359700 -1.104229033 3.017124315
N -4.157304254 0.807766720 -0.275849899
H 3.846011918 -2.027063671 -1.041909664
H 2.326693770 -2.750014645 1.863568743
H 1.067023104 -3.890350411 -1.011484695
H 0.630759664 4.221962046 0.024919611
H 3.689557618 2.687802915 -0.622143950
H -3.773267799 1.535978616 -2.010411518
H -3.924252948 -1.080744613 3.578827226

