14

O 3.342227827 2.755409662 -3.280647681
C 2.234185025 1.418102697 -1.877304199
C 3.096442527 -0.315113381 0.414938088
N 0.395602410 -0.198761148 1.155310995
C -2.249778289 -1.275396230 1.587815863
C -2.972039626 1.137413682 0.034047177
C -0.493872685 0.476042514 -1.396292876
H 3.753708964 -2.169378228 -0.200574132
H 4.384332058 0.501236343 1.794971515
H -2.779863758 -1.406199615 3.570677650
H -2.397473595 -3.105642696 0.628525422
H -0.611037179 1.754030164 1.709945726
H -4.784830597 1.220170402 -0.937697939
H -0.632842124 -1.254672190 -2.559876469

