13

N 2.769063066 -1.455021974 4.622863966
C 1.701204212 -2.030641225 2.828223928
C 1.939342944 1.253193347 -1.708320221
C 0.064418326 -0.776306276 -1.423313711
C 0.276171946 -2.809893622 0.599001929
C -2.020915655 3.340092588 0.108798884
N -0.276886867 1.847479388 -0.715272393
H 2.908789019 2.150525451 -3.257161409
H -1.184852554 -1.352174915 -2.967325893
H -1.598029134 -3.426849896 1.211661929
H 1.209387435 -4.453648572 -0.232504419
H -3.721137776 2.523548771 0.881305922
H -1.684915302 5.352855870 0.109436251

