14

O 3.052397433 3.586418691 -0.236322384
N 2.772615222 1.229526587 -1.494123242
C 0.583235868 0.030750852 -0.590113356
C -0.604786248 -2.444851712 -1.336297927
C -2.515229232 -1.937984703 0.864225009
C -1.054783555 0.453091450 1.276001377
O -1.425112183 2.248322198 3.042039957
H 4.697393782 3.462287287 0.518194122
H 0.573327467 -4.119228370 -1.072311294
H -1.471877197 -2.512306563 -3.209933166
H -2.417054672 -3.319740068 2.393811797
H -4.479925743 -1.702276235 0.278792939
H 2.596633664 1.662036936 -3.354773492
H -0.208326961 3.565126277 2.727345188

