14

O 3.628159132 2.747798923 0.579913522
N 3.163898644 1.001290095 -1.424869976
C 0.672631290 0.101172649 -0.897293894
C -0.476202158 -2.536847416 -1.215595375
C -2.602972920 -1.698147977 0.642788206
C -1.109663545 0.678365191 0.948800250
O -1.304789163 2.499283081 2.657421164
H 4.908327374 3.834108344 -0.103344719
H 0.727174398 -4.010384926 -0.429156973
H -1.049699682 -3.052255760 -3.122738727
H -2.696724520 -2.857623663 2.350398003
H -4.504457563 -1.501867850 -0.135039734
H 0.463980166 1.491778942 -2.562933195
H 0.268080403 3.439003272 2.587231861

