25

C     2.65297   2.16653  -0.64259
N     2.38702   0.81554  -0.19548
C     1.31890   0.53415   0.58321
O     0.61245   1.39772   1.10615
N     1.17841  -0.85796   0.83290
C     1.01068  -2.06945  -0.78922
C    -0.36235  -2.43340  -0.76580
N    -1.09684  -1.24472   0.58625
C    -1.34700  -0.02574  -0.24302
O    -0.64940   0.35557  -1.18139
N    -2.53786   0.51103   0.05159
C    -3.08513   1.59279  -0.75626
O    -0.02685  -1.14618   1.45988
H     2.81067   2.84525   0.20365
H     3.56819   2.14197  -1.25123
H     1.83013   2.56180  -1.25881
H     2.85531   0.03238  -0.60769
H     1.36642  -1.44597  -1.63926
H     1.77225  -2.80474  -0.43039
H    -1.01640  -2.16425  -1.63139
H    -0.63146  -3.43455  -0.32561
H    -3.08590   0.17100   0.83429
H    -4.08164   1.87469  -0.39345
H    -2.43606   2.48101  -0.75005
H    -3.18807   1.27286  -1.82351
25

C     2.65318   2.16592  -0.64292
N     2.38459   0.81577  -0.19424
C     1.31724   0.53826   0.58518
O     0.60953   1.40258   1.10552
N     1.18005  -0.85047   0.84889
C     1.01133  -2.08623  -0.80767
C    -0.35558  -2.45062  -0.78356
N    -1.10006  -1.22692   0.60407
C    -1.34727  -0.02197  -0.23800
O    -0.64791   0.35314  -1.17682
N    -2.54021   0.51342   0.05087
C    -3.08614   1.59341  -0.75894
O    -0.02355  -1.15036   1.45389
H     2.81101   2.84513   0.20344
H     3.56818   2.14116  -1.25137
H     1.83025   2.56169  -1.25890
H     2.85490   0.03192  -0.60614
H     1.36649  -1.44814  -1.64176
H     1.77274  -2.80587  -0.43194
H    -1.01660  -2.16576  -1.63223
H    -0.63055  -3.43734  -0.32804
H    -3.08645   0.17284   0.83471
H    -4.08187   1.87531  -0.39438
H    -2.43610   2.48102  -0.75122
H    -3.18846   1.27262  -1.82414
25

C     2.65339   2.16530  -0.64326
N     2.38215   0.81599  -0.19301
C     1.31559   0.54237   0.58716
O     0.60660   1.40744   1.10490
N     1.18169  -0.84298   0.86487
C     1.01199  -2.10300  -0.82613
C    -0.34880  -2.46785  -0.80132
N    -1.10329  -1.20912   0.62189
C    -1.34754  -0.01820  -0.23299
O    -0.64642   0.35070  -1.17226
N    -2.54257   0.51582   0.05015
C    -3.08715   1.59404  -0.76162
O    -0.02026  -1.15455   1.44790
H     2.81135   2.84500   0.20324
H     3.56818   2.14035  -1.25150
H     1.83037   2.56159  -1.25898
H     2.85449   0.03145  -0.60459
H     1.36656  -1.45031  -1.64426
H     1.77323  -2.80700  -0.43349
H    -1.01679  -2.16727  -1.63307
H    -0.62965  -3.44013  -0.33046
H    -3.08699   0.17468   0.83513
H    -4.08209   1.87592  -0.39532
H    -2.43613   2.48104  -0.75239
H    -3.18884   1.27237  -1.82476
25

C     2.65359   2.16468  -0.64359
N     2.37972   0.81621  -0.19177
C     1.31394   0.54647   0.58913
O     0.60368   1.41230   1.10428
N     1.18332  -0.83549   0.88086
C     1.01264  -2.11977  -0.84459
C    -0.34203  -2.48508  -0.81908
N    -1.10652  -1.19132   0.63971
C    -1.34781  -0.01444  -0.22797
O    -0.64493   0.34827  -1.16769
N    -2.54492   0.51822   0.04943
C    -3.08816   1.59466  -0.76430
O    -0.01696  -1.15873   1.44191
H     2.81169   2.84488   0.20304
H     3.56817   2.13955  -1.25164
H     1.83049   2.56148  -1.25907
H     2.85408   0.03099  -0.60303
H     1.36662  -1.45249  -1.64676
H     1.77371  -2.80813  -0.43503
H    -1.01698  -2.16877  -1.63391
H    -0.62875  -3.44292  -0.33289
H    -3.08754   0.17652   0.83554
H    -4.08231   1.87654  -0.39626
H    -2.43616   2.48105  -0.75356
H    -3.18922   1.27212  -1.82539
25

C     2.65380   2.16406  -0.64393
N     2.37728   0.81643  -0.19053
C     1.31229   0.55058   0.59110
O     0.60075   1.41716   1.10366
N     1.18496  -0.82800   0.89684
C     1.01329  -2.13655  -0.86305
C    -0.33525  -2.50230  -0.83684
N    -1.10974  -1.17352   0.65754
C    -1.34808  -0.01067  -0.22295
O    -0.64344   0.34584  -1.16313
N    -2.54728   0.52061   0.04871
C    -3.08917   1.59528  -0.76697
O    -0.01367  -1.16291   1.43591
H     2.81203   2.84475   0.20284
H     3.56817   2.13874  -1.25178
H     1.83061   2.56137  -1.25915
H     2.85367   0.03052  -0.60148
H     1.36669  -1.45466  -1.64926
H     1.77420  -2.80926  -0.43658
H    -1.01718  -2.17028  -1.63475
H    -0.62784  -3.44571  -0.33532
H    -3.08809   0.17836   0.83596
H    -4.08254   1.87716  -0.39719
H    -2.43620   2.48107  -0.75473
H    -3.18960   1.27188  -1.82602
25

C     2.65401   2.16345  -0.64426
N     2.37484   0.81665  -0.18930
C     1.31064   0.55469   0.59307
O     0.59783   1.42203   1.10303
N     1.18660  -0.82051   0.91283
C     1.01395  -2.15332  -0.88151
C    -0.32847  -2.51953  -0.85459
N    -1.11297  -1.15572   0.67536
C    -1.34835  -0.00690  -0.21794
O    -0.64196   0.34341  -1.15856
N    -2.54964   0.52301   0.04799
C    -3.09018   1.59591  -0.76965
O    -0.01037  -1.16710   1.42992
H     2.81236   2.84463   0.20264
H     3.56816   2.13793  -1.25192
H     1.83073   2.56127  -1.25923
H     2.85327   0.03006  -0.59993
H     1.36676  -1.45683  -1.65176
H     1.77468  -2.81039  -0.43813
H    -1.01737  -2.17179  -1.63559
H    -0.62694  -3.44850  -0.33774
H    -3.08863   0.18020   0.83638
H    -4.08276   1.87777  -0.39813
H    -2.43623   2.48108  -0.75590
H    -3.18999   1.27163  -1.82665
25

C     2.65422   2.16283  -0.64460
N     2.37241   0.81687  -0.18806
C     1.30899   0.55879   0.59505
O     0.59491   1.42689   1.10241
N     1.18824  -0.81302   0.92881
C     1.01460  -2.17009  -0.89997
C    -0.32170  -2.53676  -0.87235
N    -1.11620  -1.13793   0.69318
C    -1.34862  -0.00313  -0.21292
O    -0.64047   0.34097  -1.15399
N    -2.55199   0.52541   0.04727
C    -3.09118   1.59653  -0.77233
O    -0.00708  -1.17128   1.42393
H     2.81270   2.84451   0.20244
H     3.56816   2.13713  -1.25205
H     1.83085   2.56116  -1.25932
H     2.85286   0.02959  -0.59838
H     1.36682  -1.45901  -1.65426
H     1.77517  -2.81152  -0.43968
H    -1.01757  -2.17330  -1.63643
H    -0.62604  -3.45129  -0.34017
H    -3.08918   0.18204   0.83679
H    -4.08299   1.87839  -0.39907
H    -2.43627   2.48109  -0.75707
H    -3.19037   1.27138  -1.82728
25

C     2.65443   2.16221  -0.64493
N     2.36997   0.81709  -0.18682
C     1.30733   0.56290   0.59702
O     0.59198   1.43175   1.10179
N     1.18988  -0.80553   0.94480
C     1.01526  -2.18687  -0.91842
C    -0.31492  -2.55398  -0.89011
N    -1.11943  -1.12013   0.71100
C    -1.34889   0.00064  -0.20790
O    -0.63898   0.33854  -1.14943
N    -2.55435   0.52781   0.04655
C    -3.09219   1.59716  -0.77500
O    -0.00378  -1.17546   1.41794
H     2.81304   2.84438   0.20224
H     3.56816   2.13632  -1.25219
H     1.83097   2.56106  -1.25940
H     2.85245   0.02913  -0.59683
H     1.36689  -1.46118  -1.65676
H     1.77566  -2.81265  -0.44123
H    -1.01776  -2.17480  -1.63727
H    -0.62514  -3.45408  -0.34260
H    -3.08972   0.18388   0.83721
H    -4.08321   1.87900  -0.40000
H    -2.43630   2.48111  -0.75824
H    -3.19075   1.27114  -1.82790
25

C     2.65464   2.16160  -0.64527
N     2.36753   0.81731  -0.18558
C     1.30568   0.56701   0.59899
O     0.58906   1.43661   1.10116
N     1.19152  -0.79804   0.96078
C     1.01591  -2.20364  -0.93688
C    -0.30815  -2.57121  -0.90787
N    -1.12265  -1.10233   0.72882
C    -1.34916   0.00441  -0.20289
O    -0.63749   0.33611  -1.14486
N    -2.55670   0.53020   0.04583
C    -3.09320   1.59778  -0.77768
O    -0.00049  -1.17965   1.41195
H     2.81338   2.84426   0.20204
H     3.56815   2.13552  -1.25233
H     1.83109   2.56095  -1.25949
H     2.85204   0.02866  -0.59527
H     1.36696  -1.46335  -1.65926
H     1.77614  -2.81378  -0.44277
H    -1.01796  -2.17631  -1.63811
H    -0.62423  -3.45687  -0.34503
H    -3.09027   0.18572   0.83763
H    -4.08343   1.87962  -0.40094
H    -2.43633   2.48112  -0.75941
H    -3.19113   1.27089  -1.82853
25

C     2.65485   2.16098  -0.64560
N     2.36510   0.81753  -0.18435
C     1.30403   0.57112   0.60096
O     0.58613   1.44147   1.10054
N     1.19316  -0.79056   0.97677
C     1.01656  -2.22041  -0.95534
C    -0.30137  -2.58844  -0.92563
N    -1.12588  -1.08453   0.74664
C    -1.34943   0.00818  -0.19787
O    -0.63600   0.33368  -1.14029
N    -2.55906   0.53260   0.04511
C    -3.09421   1.59840  -0.78036
O     0.00281  -1.18383   1.40596
H     2.81372   2.84413   0.20184
H     3.56815   2.13471  -1.25247
H     1.83121   2.56084  -1.25957
H     2.85163   0.02820  -0.59372
H     1.36703  -1.46553  -1.66176
H     1.77663  -2.81491  -0.44432
H    -1.01815  -2.17782  -1.63895
H    -0.62333  -3.45966  -0.34745
H    -3.09081   0.18756   0.83804
H    -4.08366   1.88023  -0.40188
H    -2.43637   2.48114  -0.76058
H    -3.19151   1.27064  -1.82916
25

C     2.65506   2.16036  -0.64594
N     2.36266   0.81775  -0.18311
C     1.30238   0.57522   0.60294
O     0.58321   1.44633   1.09992
N     1.19479  -0.78307   0.99276
C     1.01722  -2.23719  -0.97380
C    -0.29460  -2.60566  -0.94339
N    -1.12911  -1.06673   0.76447
C    -1.34970   0.01195  -0.19285
O    -0.63451   0.33124  -1.13573
N    -2.56141   0.53500   0.04438
C    -3.09522   1.59903  -0.78304
O     0.00610  -1.18802   1.39997
H     2.81406   2.84401   0.20164
H     3.56814   2.13390  -1.25260
H     1.83133   2.56074  -1.25966
H     2.85122   0.02773  -0.59217
H     1.36709  -1.46770  -1.66426
H     1.77712  -2.81604  -0.44587
H    -1.01834  -2.17933  -1.63980
H    -0.62243  -3.46245  -0.34988
H    -3.09136   0.18940   0.83846
H    -4.08388   1.88085  -0.40281
H    -2.43640   2.48115  -0.76175
H    -3.19190   1.27039  -1.82979
25

C     2.65526   2.15975  -0.64627
N     2.36023   0.81797  -0.18187
C     1.30073   0.57933   0.60491
O     0.58029   1.45120   1.09930
N     1.19643  -0.77558   1.00874
C     1.01787  -2.25396  -0.99226
C    -0.28782  -2.62289  -0.96114
N    -1.13233  -1.04893   0.78229
C    -1.34997   0.01572  -0.18784
O    -0.63303   0.32881  -1.13116
N    -2.56377   0.53739   0.04366
C    -3.09623   1.59965  -0.78571
O     0.00940  -1.19220   1.39398
H     2.81440   2.84388   0.20143
H     3.56814   2.13310  -1.25274
H     1.83145   2.56063  -1.25974
H     2.85082   0.02727  -0.59062
H     1.36716  -1.46988  -1.66676
H     1.77760  -2.81717  -0.44742
H    -1.01854  -2.18083  -1.64064
H    -0.62153  -3.46524  -0.35231
H    -3.09191   0.19124   0.83888
H    -4.08410   1.88146  -0.40375
H    -2.43643   2.48117  -0.76292
H    -3.19228   1.27015  -1.83042
25

C     2.65547   2.15913  -0.64661
N     2.35779   0.81819  -0.18064
C     1.29907   0.58344   0.60688
O     0.57736   1.45606   1.09867
N     1.19807  -0.76809   1.02473
C     1.01853  -2.27073  -1.01071
C    -0.28105  -2.64012  -0.97890
N    -1.13556  -1.03113   0.80011
C    -1.35024   0.01949  -0.18282
O    -0.63154   0.32638  -1.12659
N    -2.56612   0.53979   0.04294
C    -3.09724   1.60028  -0.78839
O     0.01270  -1.19638   1.38798
H     2.81473   2.84376   0.20123
H     3.56813   2.13229  -1.25288
H     1.83157   2.56053  -1.25983
H     2.85041   0.02680  -0.58907
H     1.36723  -1.47205  -1.66926
H     1.77809  -2.81830  -0.44897
H    -1.01873  -2.18234  -1.64148
H    -0.62062  -3.46803  -0.35473
H    -3.09245   0.19308   0.83929
H    -4.08433   1.88208  -0.40469
H    -2.43647   2.48118  -0.76409
H    -3.19266   1.26990  -1.83104
25

C     2.65568   2.15851  -0.64694
N     2.35535   0.81841  -0.17940
C     1.29742   0.58755   0.60885
O     0.57444   1.46092   1.09805
N     1.19971  -0.76060   1.04071
C     1.01918  -2.28751  -1.02917
C    -0.27427  -2.65734  -0.99666
N    -1.13879  -1.01334   0.81793
C    -1.35051   0.02326  -0.17780
O    -0.63005   0.32395  -1.12203
N    -2.56848   0.54219   0.04222
C    -3.09825   1.60090  -0.79107
O     0.01599  -1.20057   1.38199
H     2.81507   2.84363   0.20103
H     3.56813   2.13148  -1.25302
H     1.83169   2.56042  -1.25991
H     2.85000   0.02634  -0.58751
H     1.36729  -1.47422  -1.67176
H     1.77858  -2.81943  -0.45052
H    -1.01893  -2.18385  -1.64232
H    -0.61972  -3.47082  -0.35716
H    -3.09300   0.19492   0.83971
H    -4.08455   1.88269  -0.40562
H    -2.43650   2.48120  -0.76526
H    -3.19304   1.26965  -1.83167
25

C     2.65589   2.15789  -0.64728
N     2.35292   0.81863  -0.17816
C     1.29577   0.59165   0.61083
O     0.57151   1.46578   1.09743
N     1.20135  -0.75311   1.05670
C     1.01984  -2.30428  -1.04763
C    -0.26750  -2.67457  -1.01442
N    -1.14202  -0.99554   0.83575
C    -1.35078   0.02703  -0.17279
O    -0.62856   0.32151  -1.11746
N    -2.57084   0.54458   0.04150
C    -3.09925   1.60152  -0.79375
O     0.01929  -1.20475   1.37600
H     2.81541   2.84351   0.20083
H     3.56812   2.13068  -1.25315
H     1.83181   2.56031  -1.26000
H     2.84959   0.02587  -0.58596
H     1.36736  -1.47640  -1.67426
H     1.77906  -2.82056  -0.45206
H    -1.01912  -2.18535  -1.64316
H    -0.61882  -3.47361  -0.35959
H    -3.09354   0.19676   0.84013
H    -4.08478   1.88331  -0.40656
H    -2.43654   2.48121  -0.76643
H    -3.19342   1.26941  -1.83230
25

C     2.65610   2.15728  -0.64761
N     2.35048   0.81885  -0.17692
C     1.29412   0.59576   0.61280
O     0.56859   1.47064   1.09680
N     1.20299  -0.74562   1.07268
C     1.02049  -2.32105  -1.06609
C    -0.26072  -2.69179  -1.03218
N    -1.14524  -0.97774   0.85358
C    -1.35105   0.03080  -0.16777
O    -0.62707   0.31908  -1.11290
N    -2.57319   0.54698   0.04078
C    -3.10026   1.60215  -0.79642
O     0.02258  -1.20893   1.37001
H     2.81575   2.84339   0.20063
H     3.56812   2.12987  -1.25329
H     1.83193   2.56021  -1.26008
H     2.84918   0.02540  -0.58441
H     1.36743  -1.47857  -1.67676
H     1.77955  -2.82169  -0.45361
H    -1.01932  -2.18686  -1.64400
H    -0.61791  -3.47640  -0.36201
H    -3.09409   0.19860   0.84054
H    -4.08500   1.88393  -0.40750
H    -2.43657   2.48123  -0.76760
H    -3.19381   1.26916  -1.83293
25

C     2.65631   2.15666  -0.64794
N     2.34804   0.81907  -0.17569
C     1.29247   0.59987   0.61477
O     0.56567   1.47550   1.09618
N     1.20463  -0.73813   1.08867
C     1.02114  -2.33782  -1.08455
C    -0.25395  -2.70902  -1.04994
N    -1.14847  -0.95994   0.87140
C    -1.35132   0.03457  -0.16275
O    -0.62558   0.31665  -1.10833
N    -2.57555   0.54938   0.04006
C    -3.10127   1.60277  -0.79910
O     0.02588  -1.21312   1.36402
H     2.81609   2.84326   0.20043
H     3.56811   2.12906  -1.25343
H     1.83205   2.56010  -1.26017
H     2.84877   0.02494  -0.58286
H     1.36750  -1.48074  -1.67926
H     1.78004  -2.82282  -0.45516
H    -1.01951  -2.18837  -1.64484
H    -0.61701  -3.47919  -0.36444
H    -3.09463   0.20044   0.84096
H    -4.08522   1.88454  -0.40843
H    -2.43660   2.48124  -0.76877
H    -3.19419   1.26891  -1.83356
25

C     2.65652   2.15604  -0.64828
N     2.34561   0.81929  -0.17445
C     1.29082   0.60397   0.61675
O     0.56274   1.48037   1.09556
N     1.20627  -0.73064   1.10465
C     1.02180  -2.35460  -1.10301
C    -0.24717  -2.72625  -1.06769
N    -1.15170  -0.94214   0.88922
C    -1.35158   0.03834  -0.15774
O    -0.62409   0.31422  -1.10376
N    -2.57790   0.55177   0.03934
C    -3.10228   1.60340  -0.80178
O     0.02917  -1.21730   1.35803
H     2.81643   2.84314   0.20023
H     3.56811   2.12826  -1.25357
H     1.83217   2.55999  -1.26025
H     2.84836   0.02447  -0.58130
H     1.36756  -1.48292  -1.68176
H     1.78052  -2.82395  -0.45671
H    -1.01970  -2.18988  -1.64568
H    -0.61611  -3.48198  -0.36687
H    -3.09518   0.20228   0.84138
H    -4.08545   1.88516  -0.40937
H    -2.43664   2.48126  -0.76994
H    -3.19457   1.26867  -1.83418
25

C     2.65673   2.15543  -0.64861
N     2.34317   0.81951  -0.17321
C     1.28916   0.60808   0.61872
O     0.55982   1.48523   1.09494
N     1.20790  -0.72316   1.12064
C     1.02245  -2.37137  -1.12146
C    -0.24040  -2.74347  -1.08545
N    -1.15492  -0.92434   0.90704
C    -1.35185   0.04211  -0.15272
O    -0.62261   0.31178  -1.09920
N    -2.58026   0.55417   0.03862
C    -3.10329   1.60402  -0.80445
O     0.03247  -1.22149   1.35204
H     2.81676   2.84301   0.20003
H     3.56811   2.12745  -1.25370
H     1.83229   2.55989  -1.26034
H     2.84796   0.02401  -0.57975
H     1.36763  -1.48509  -1.68426
H     1.78101  -2.82508  -0.45826
H    -1.01990  -2.19138  -1.64652
H    -0.61521  -3.48478  -0.36930
H    -3.09573   0.20411   0.84179
H    -4.08567   1.88577  -0.41031
H    -2.43667   2.48127  -0.77111
H    -3.19495   1.26842  -1.83481
25

C     2.65693   2.15481  -0.64895
N     2.34074   0.81973  -0.17197
C     1.28751   0.61219   0.62069
O     0.55689   1.49009   1.09431
N     1.20954  -0.71567   1.13663
C     1.02311  -2.38814  -1.13992
C    -0.23362  -2.76070  -1.10321
N    -1.15815  -0.90655   0.92486
C    -1.35212   0.04588  -0.14770
O    -0.62112   0.30935  -1.09463
N    -2.58261   0.55657   0.03790
C    -3.10430   1.60464  -0.80713
O     0.03576  -1.22567   1.34604
H     2.81710   2.84289   0.19983
H     3.56810   2.12664  -1.25384
H     1.83241   2.55978  -1.26042
H     2.84755   0.02354  -0.57820
H     1.36770  -1.48726  -1.68676
H     1.78149  -2.82621  -0.45981
H    -1.02009  -2.19289  -1.64736
H    -0.61430  -3.48757  -0.37172
H    -3.09627   0.20595   0.84221
H    -4.08590   1.88639  -0.41124
H    -2.43670   2.48129  -0.77228
H    -3.19534   1.26817  -1.83544
25

C     2.65714   2.15419  -0.64928
N     2.33830   0.81995  -0.17074
C     1.28586   0.61630   0.62266
O     0.55397   1.49495   1.09369
N     1.21118  -0.70818   1.15261
C     1.02376  -2.40492  -1.15838
C    -0.22685  -2.77793  -1.12097
N    -1.16138  -0.88875   0.94268
C    -1.35239   0.04965  -0.14269
O    -0.61963   0.30692  -1.09006
N    -2.58497   0.55896   0.03718
C    -3.10531   1.60527  -0.80981
O     0.03906  -1.22985   1.34005
H     2.81744   2.84276   0.19963
H     3.56810   2.12584  -1.25398
H     1.83253   2.55968  -1.26051
H     2.84714   0.02308  -0.57665
H     1.36777  -1.48944  -1.68926
H     1.78198  -2.82734  -0.46135
H    -1.02029  -2.19440  -1.64820
H    -0.61340  -3.49036  -0.37415
H    -3.09682   0.20779   0.84263
H    -4.08612   1.88700  -0.41218
H    -2.43674   2.48130  -0.77345
H    -3.19572   1.26792  -1.83607
25

C     2.65693   2.15481  -0.64895
N     2.34074   0.81973  -0.17197
C     1.28751   0.61219   0.62069
O     0.55689   1.49009   1.09431
N     1.20954  -0.71567   1.13663
C     1.02311  -2.38814  -1.13992
C    -0.23362  -2.76070  -1.10321
N    -1.15815  -0.90655   0.92486
C    -1.35212   0.04588  -0.14770
O    -0.62112   0.30935  -1.09463
N    -2.58261   0.55657   0.03790
C    -3.10430   1.60464  -0.80713
O     0.03576  -1.22567   1.34604
H     2.81710   2.84289   0.19983
H     3.56810   2.12664  -1.25384
H     1.83241   2.55978  -1.26042
H     2.84755   0.02354  -0.57820
H     1.36770  -1.48726  -1.68676
H     1.78149  -2.82621  -0.45981
H    -1.02009  -2.19289  -1.64736
H    -0.61430  -3.48757  -0.37172
H    -3.09627   0.20595   0.84221
H    -4.08590   1.88639  -0.41124
H    -2.43670   2.48129  -0.77228
H    -3.19534   1.26817  -1.83544
25

C     2.65673   2.15543  -0.64861
N     2.34317   0.81951  -0.17321
C     1.28916   0.60808   0.61872
O     0.55982   1.48523   1.09494
N     1.20790  -0.72316   1.12064
C     1.02245  -2.37137  -1.12146
C    -0.24040  -2.74347  -1.08545
N    -1.15492  -0.92434   0.90704
C    -1.35185   0.04211  -0.15272
O    -0.62261   0.31178  -1.09920
N    -2.58026   0.55417   0.03862
C    -3.10329   1.60402  -0.80445
O     0.03247  -1.22149   1.35204
H     2.81676   2.84301   0.20003
H     3.56811   2.12745  -1.25370
H     1.83229   2.55989  -1.26034
H     2.84796   0.02401  -0.57975
H     1.36763  -1.48509  -1.68426
H     1.78101  -2.82508  -0.45826
H    -1.01990  -2.19138  -1.64652
H    -0.61521  -3.48478  -0.36930
H    -3.09573   0.20411   0.84179
H    -4.08567   1.88577  -0.41031
H    -2.43667   2.48127  -0.77111
H    -3.19495   1.26842  -1.83481
25

C     2.65652   2.15604  -0.64828
N     2.34561   0.81929  -0.17445
C     1.29082   0.60397   0.61675
O     0.56274   1.48037   1.09556
N     1.20627  -0.73064   1.10465
C     1.02180  -2.35460  -1.10301
C    -0.24717  -2.72625  -1.06769
N    -1.15170  -0.94214   0.88922
C    -1.35158   0.03834  -0.15774
O    -0.62409   0.31422  -1.10376
N    -2.57790   0.55177   0.03934
C    -3.10228   1.60340  -0.80178
O     0.02917  -1.21730   1.35803
H     2.81643   2.84314   0.20023
H     3.56811   2.12826  -1.25357
H     1.83217   2.55999  -1.26025
H     2.84836   0.02447  -0.58130
H     1.36756  -1.48292  -1.68176
H     1.78052  -2.82395  -0.45671
H    -1.01970  -2.18988  -1.64568
H    -0.61611  -3.48198  -0.36687
H    -3.09518   0.20228   0.84138
H    -4.08545   1.88516  -0.40937
H    -2.43664   2.48126  -0.76994
H    -3.19457   1.26867  -1.83418
25

C     2.65631   2.15666  -0.64794
N     2.34804   0.81907  -0.17569
C     1.29247   0.59987   0.61477
O     0.56567   1.47550   1.09618
N     1.20463  -0.73813   1.08867
C     1.02114  -2.33782  -1.08455
C    -0.25395  -2.70902  -1.04994
N    -1.14847  -0.95994   0.87140
C    -1.35132   0.03457  -0.16275
O    -0.62558   0.31665  -1.10833
N    -2.57555   0.54938   0.04006
C    -3.10127   1.60277  -0.79910
O     0.02588  -1.21312   1.36402
H     2.81609   2.84326   0.20043
H     3.56811   2.12906  -1.25343
H     1.83205   2.56010  -1.26017
H     2.84877   0.02494  -0.58286
H     1.36750  -1.48074  -1.67926
H     1.78004  -2.82282  -0.45516
H    -1.01951  -2.18837  -1.64484
H    -0.61701  -3.47919  -0.36444
H    -3.09463   0.20044   0.84096
H    -4.08522   1.88454  -0.40843
H    -2.43660   2.48124  -0.76877
H    -3.19419   1.26891  -1.83356
25

C     2.65610   2.15728  -0.64761
N     2.35048   0.81885  -0.17692
C     1.29412   0.59576   0.61280
O     0.56859   1.47064   1.09680
N     1.20299  -0.74562   1.07268
C     1.02049  -2.32105  -1.06609
C    -0.26072  -2.69179  -1.03218
N    -1.14524  -0.97774   0.85358
C    -1.35105   0.03080  -0.16777
O    -0.62707   0.31908  -1.11290
N    -2.57319   0.54698   0.04078
C    -3.10026   1.60215  -0.79642
O     0.02258  -1.20893   1.37001
H     2.81575   2.84339   0.20063
H     3.56812   2.12987  -1.25329
H     1.83193   2.56021  -1.26008
H     2.84918   0.02540  -0.58441
H     1.36743  -1.47857  -1.67676
H     1.77955  -2.82169  -0.45361
H    -1.01932  -2.18686  -1.64400
H    -0.61791  -3.47640  -0.36201
H    -3.09409   0.19860   0.84054
H    -4.08500   1.88393  -0.40750
H    -2.43657   2.48123  -0.76760
H    -3.19381   1.26916  -1.83293
25

C     2.65589   2.15789  -0.64728
N     2.35292   0.81863  -0.17816
C     1.29577   0.59165   0.61083
O     0.57151   1.46578   1.09743
N     1.20135  -0.75311   1.05670
C     1.01984  -2.30428  -1.04763
C    -0.26750  -2.67457  -1.01442
N    -1.14202  -0.99554   0.83575
C    -1.35078   0.02703  -0.17279
O    -0.62856   0.32151  -1.11746
N    -2.57084   0.54458   0.04150
C    -3.09925   1.60152  -0.79375
O     0.01929  -1.20475   1.37600
H     2.81541   2.84351   0.20083
H     3.56812   2.13068  -1.25315
H     1.83181   2.56031  -1.26000
H     2.84959   0.02587  -0.58596
H     1.36736  -1.47640  -1.67426
H     1.77906  -2.82056  -0.45206
H    -1.01912  -2.18535  -1.64316
H    -0.61882  -3.47361  -0.35959
H    -3.09354   0.19676   0.84013
H    -4.08478   1.88331  -0.40656
H    -2.43654   2.48121  -0.76643
H    -3.19342   1.26941  -1.83230
25

C     2.65568   2.15851  -0.64694
N     2.35535   0.81841  -0.17940
C     1.29742   0.58755   0.60885
O     0.57444   1.46092   1.09805
N     1.19971  -0.76060   1.04071
C     1.01918  -2.28751  -1.02917
C    -0.27427  -2.65734  -0.99666
N    -1.13879  -1.01334   0.81793
C    -1.35051   0.02326  -0.17780
O    -0.63005   0.32395  -1.12203
N    -2.56848   0.54219   0.04222
C    -3.09825   1.60090  -0.79107
O     0.01599  -1.20057   1.38199
H     2.81507   2.84363   0.20103
H     3.56813   2.13148  -1.25302
H     1.83169   2.56042  -1.25991
H     2.85000   0.02634  -0.58751
H     1.36729  -1.47422  -1.67176
H     1.77858  -2.81943  -0.45052
H    -1.01893  -2.18385  -1.64232
H    -0.61972  -3.47082  -0.35716
H    -3.09300   0.19492   0.83971
H    -4.08455   1.88269  -0.40562
H    -2.43650   2.48120  -0.76526
H    -3.19304   1.26965  -1.83167
25

C     2.65547   2.15913  -0.64661
N     2.35779   0.81819  -0.18064
C     1.29907   0.58344   0.60688
O     0.57736   1.45606   1.09867
N     1.19807  -0.76809   1.02473
C     1.01853  -2.27073  -1.01071
C    -0.28105  -2.64012  -0.97890
N    -1.13556  -1.03113   0.80011
C    -1.35024   0.01949  -0.18282
O    -0.63154   0.32638  -1.12659
N    -2.56612   0.53979   0.04294
C    -3.09724   1.60028  -0.78839
O     0.01270  -1.19638   1.38798
H     2.81473   2.84376   0.20123
H     3.56813   2.13229  -1.25288
H     1.83157   2.56053  -1.25983
H     2.85041   0.02680  -0.58907
H     1.36723  -1.47205  -1.66926
H     1.77809  -2.81830  -0.44897
H    -1.01873  -2.18234  -1.64148
H    -0.62062  -3.46803  -0.35473
H    -3.09245   0.19308   0.83929
H    -4.08433   1.88208  -0.40469
H    -2.43647   2.48118  -0.76409
H    -3.19266   1.26990  -1.83104
25

C     2.65526   2.15975  -0.64627
N     2.36023   0.81797  -0.18187
C     1.30073   0.57933   0.60491
O     0.58029   1.45120   1.09930
N     1.19643  -0.77558   1.00874
C     1.01787  -2.25396  -0.99226
C    -0.28782  -2.62289  -0.96114
N    -1.13233  -1.04893   0.78229
C    -1.34997   0.01572  -0.18784
O    -0.63303   0.32881  -1.13116
N    -2.56377   0.53739   0.04366
C    -3.09623   1.59965  -0.78571
O     0.00940  -1.19220   1.39398
H     2.81440   2.84388   0.20143
H     3.56814   2.13310  -1.25274
H     1.83145   2.56063  -1.25974
H     2.85082   0.02727  -0.59062
H     1.36716  -1.46988  -1.66676
H     1.77760  -2.81717  -0.44742
H    -1.01854  -2.18083  -1.64064
H    -0.62153  -3.46524  -0.35231
H    -3.09191   0.19124   0.83888
H    -4.08410   1.88146  -0.40375
H    -2.43643   2.48117  -0.76292
H    -3.19228   1.27015  -1.83042
25

C     2.65506   2.16036  -0.64594
N     2.36266   0.81775  -0.18311
C     1.30238   0.57522   0.60294
O     0.58321   1.44633   1.09992
N     1.19479  -0.78307   0.99276
C     1.01722  -2.23719  -0.97380
C    -0.29460  -2.60566  -0.94339
N    -1.12911  -1.06673   0.76447
C    -1.34970   0.01195  -0.19285
O    -0.63451   0.33124  -1.13573
N    -2.56141   0.53500   0.04438
C    -3.09522   1.59903  -0.78304
O     0.00610  -1.18802   1.39997
H     2.81406   2.84401   0.20164
H     3.56814   2.13390  -1.25260
H     1.83133   2.56074  -1.25966
H     2.85122   0.02773  -0.59217
H     1.36709  -1.46770  -1.66426
H     1.77712  -2.81604  -0.44587
H    -1.01834  -2.17933  -1.63980
H    -0.62243  -3.46245  -0.34988
H    -3.09136   0.18940   0.83846
H    -4.08388   1.88085  -0.40281
H    -2.43640   2.48115  -0.76175
H    -3.19190   1.27039  -1.82979
25

C     2.65485   2.16098  -0.64560
N     2.36510   0.81753  -0.18435
C     1.30403   0.57112   0.60096
O     0.58613   1.44147   1.10054
N     1.19316  -0.79056   0.97677
C     1.01656  -2.22041  -0.95534
C    -0.30137  -2.58844  -0.92563
N    -1.12588  -1.08453   0.74664
C    -1.34943   0.00818  -0.19787
O    -0.63600   0.33368  -1.14029
N    -2.55906   0.53260   0.04511
C    -3.09421   1.59840  -0.78036
O     0.00281  -1.18383   1.40596
H     2.81372   2.84413   0.20184
H     3.56815   2.13471  -1.25247
H     1.83121   2.56084  -1.25957
H     2.85163   0.02820  -0.59372
H     1.36703  -1.46553  -1.66176
H     1.77663  -2.81491  -0.44432
H    -1.01815  -2.17782  -1.63895
H    -0.62333  -3.45966  -0.34745
H    -3.09081   0.18756   0.83804
H    -4.08366   1.88023  -0.40188
H    -2.43637   2.48114  -0.76058
H    -3.19151   1.27064  -1.82916
25

C     2.65464   2.16160  -0.64527
N     2.36753   0.81731  -0.18558
C     1.30568   0.56701   0.59899
O     0.58906   1.43661   1.10116
N     1.19152  -0.79804   0.96078
C     1.01591  -2.20364  -0.93688
C    -0.30815  -2.57121  -0.90787
N    -1.12265  -1.10233   0.72882
C    -1.34916   0.00441  -0.20289
O    -0.63749   0.33611  -1.14486
N    -2.55670   0.53020   0.04583
C    -3.09320   1.59778  -0.77768
O    -0.00049  -1.17965   1.41195
H     2.81338   2.84426   0.20204
H     3.56815   2.13552  -1.25233
H     1.83109   2.56095  -1.25949
H     2.85204   0.02866  -0.59527
H     1.36696  -1.46335  -1.65926
H     1.77614  -2.81378  -0.44277
H    -1.01796  -2.17631  -1.63811
H    -0.62423  -3.45687  -0.34503
H    -3.09027   0.18572   0.83763
H    -4.08343   1.87962  -0.40094
H    -2.43633   2.48112  -0.75941
H    -3.19113   1.27089  -1.82853
25

C     2.65443   2.16221  -0.64493
N     2.36997   0.81709  -0.18682
C     1.30733   0.56290   0.59702
O     0.59198   1.43175   1.10179
N     1.18988  -0.80553   0.94480
C     1.01526  -2.18687  -0.91842
C    -0.31492  -2.55398  -0.89011
N    -1.11943  -1.12013   0.71100
C    -1.34889   0.00064  -0.20790
O    -0.63898   0.33854  -1.14943
N    -2.55435   0.52781   0.04655
C    -3.09219   1.59716  -0.77500
O    -0.00378  -1.17546   1.41794
H     2.81304   2.84438   0.20224
H     3.56816   2.13632  -1.25219
H     1.83097   2.56106  -1.25940
H     2.85245   0.02913  -0.59683
H     1.36689  -1.46118  -1.65676
H     1.77566  -2.81265  -0.44123
H    -1.01776  -2.17480  -1.63727
H    -0.62514  -3.45408  -0.34260
H    -3.08972   0.18388   0.83721
H    -4.08321   1.87900  -0.40000
H    -2.43630   2.48111  -0.75824
H    -3.19075   1.27114  -1.82790
25

C     2.65422   2.16283  -0.64460
N     2.37241   0.81687  -0.18806
C     1.30899   0.55879   0.59505
O     0.59491   1.42689   1.10241
N     1.18824  -0.81302   0.92881
C     1.01460  -2.17009  -0.89997
C    -0.32170  -2.53676  -0.87235
N    -1.11620  -1.13793   0.69318
C    -1.34862  -0.00313  -0.21292
O    -0.64047   0.34097  -1.15399
N    -2.55199   0.52541   0.04727
C    -3.09118   1.59653  -0.77233
O    -0.00708  -1.17128   1.42393
H     2.81270   2.84451   0.20244
H     3.56816   2.13713  -1.25205
H     1.83085   2.56116  -1.25932
H     2.85286   0.02959  -0.59838
H     1.36682  -1.45901  -1.65426
H     1.77517  -2.81152  -0.43968
H    -1.01757  -2.17330  -1.63643
H    -0.62604  -3.45129  -0.34017
H    -3.08918   0.18204   0.83679
H    -4.08299   1.87839  -0.39907
H    -2.43627   2.48109  -0.75707
H    -3.19037   1.27138  -1.82728
25

C     2.65401   2.16345  -0.64426
N     2.37484   0.81665  -0.18930
C     1.31064   0.55469   0.59307
O     0.59783   1.42203   1.10303
N     1.18660  -0.82051   0.91283
C     1.01395  -2.15332  -0.88151
C    -0.32847  -2.51953  -0.85459
N    -1.11297  -1.15572   0.67536
C    -1.34835  -0.00690  -0.21794
O    -0.64196   0.34341  -1.15856
N    -2.54964   0.52301   0.04799
C    -3.09018   1.59591  -0.76965
O    -0.01037  -1.16710   1.42992
H     2.81236   2.84463   0.20264
H     3.56816   2.13793  -1.25192
H     1.83073   2.56127  -1.25923
H     2.85327   0.03006  -0.59993
H     1.36676  -1.45683  -1.65176
H     1.77468  -2.81039  -0.43813
H    -1.01737  -2.17179  -1.63559
H    -0.62694  -3.44850  -0.33774
H    -3.08863   0.18020   0.83638
H    -4.08276   1.87777  -0.39813
H    -2.43623   2.48108  -0.75590
H    -3.18999   1.27163  -1.82665
25

C     2.65380   2.16406  -0.64393
N     2.37728   0.81643  -0.19053
C     1.31229   0.55058   0.59110
O     0.60075   1.41716   1.10366
N     1.18496  -0.82800   0.89684
C     1.01329  -2.13655  -0.86305
C    -0.33525  -2.50230  -0.83684
N    -1.10974  -1.17352   0.65754
C    -1.34808  -0.01067  -0.22295
O    -0.64344   0.34584  -1.16313
N    -2.54728   0.52061   0.04871
C    -3.08917   1.59528  -0.76697
O    -0.01367  -1.16291   1.43591
H     2.81203   2.84475   0.20284
H     3.56817   2.13874  -1.25178
H     1.83061   2.56137  -1.25915
H     2.85367   0.03052  -0.60148
H     1.36669  -1.45466  -1.64926
H     1.77420  -2.80926  -0.43658
H    -1.01718  -2.17028  -1.63475
H    -0.62784  -3.44571  -0.33532
H    -3.08809   0.17836   0.83596
H    -4.08254   1.87716  -0.39719
H    -2.43620   2.48107  -0.75473
H    -3.18960   1.27188  -1.82602
25

C     2.65359   2.16468  -0.64359
N     2.37972   0.81621  -0.19177
C     1.31394   0.54647   0.58913
O     0.60368   1.41230   1.10428
N     1.18332  -0.83549   0.88086
C     1.01264  -2.11977  -0.84459
C    -0.34203  -2.48508  -0.81908
N    -1.10652  -1.19132   0.63971
C    -1.34781  -0.01444  -0.22797
O    -0.64493   0.34827  -1.16769
N    -2.54492   0.51822   0.04943
C    -3.08816   1.59466  -0.76430
O    -0.01696  -1.15873   1.44191
H     2.81169   2.84488   0.20304
H     3.56817   2.13955  -1.25164
H     1.83049   2.56148  -1.25907
H     2.85408   0.03099  -0.60303
H     1.36662  -1.45249  -1.64676
H     1.77371  -2.80813  -0.43503
H    -1.01698  -2.16877  -1.63391
H    -0.62875  -3.44292  -0.33289
H    -3.08754   0.17652   0.83554
H    -4.08231   1.87654  -0.39626
H    -2.43616   2.48105  -0.75356
H    -3.18922   1.27212  -1.82539
25

C     2.65339   2.16530  -0.64326
N     2.38215   0.81599  -0.19301
C     1.31559   0.54237   0.58716
O     0.60660   1.40744   1.10490
N     1.18169  -0.84298   0.86487
C     1.01199  -2.10300  -0.82613
C    -0.34880  -2.46785  -0.80132
N    -1.10329  -1.20912   0.62189
C    -1.34754  -0.01820  -0.23299
O    -0.64642   0.35070  -1.17226
N    -2.54257   0.51582   0.05015
C    -3.08715   1.59404  -0.76162
O    -0.02026  -1.15455   1.44790
H     2.81135   2.84500   0.20324
H     3.56818   2.14035  -1.25150
H     1.83037   2.56159  -1.25898
H     2.85449   0.03145  -0.60459
H     1.36656  -1.45031  -1.64426
H     1.77323  -2.80700  -0.43349
H    -1.01679  -2.16727  -1.63307
H    -0.62965  -3.44013  -0.33046
H    -3.08699   0.17468   0.83513
H    -4.08209   1.87592  -0.39532
H    -2.43613   2.48104  -0.75239
H    -3.18884   1.27237  -1.82476
25

C     2.65318   2.16592  -0.64292
N     2.38459   0.81577  -0.19424
C     1.31724   0.53826   0.58518
O     0.60953   1.40258   1.10552
N     1.18005  -0.85047   0.84889
C     1.01133  -2.08623  -0.80767
C    -0.35558  -2.45062  -0.78356
N    -1.10006  -1.22692   0.60407
C    -1.34727  -0.02197  -0.23800
O    -0.64791   0.35314  -1.17682
N    -2.54021   0.51342   0.05087
C    -3.08614   1.59341  -0.75894
O    -0.02355  -1.15036   1.45389
H     2.81101   2.84513   0.20344
H     3.56818   2.14116  -1.25137
H     1.83025   2.56169  -1.25890
H     2.85490   0.03192  -0.60614
H     1.36649  -1.44814  -1.64176
H     1.77274  -2.80587  -0.43194
H    -1.01660  -2.16576  -1.63223
H    -0.63055  -3.43734  -0.32804
H    -3.08645   0.17284   0.83471
H    -4.08187   1.87531  -0.39438
H    -2.43610   2.48102  -0.75122
H    -3.18846   1.27262  -1.82414
