15

C -0.976408922 2.151471863 1.926276886
C -0.334703529 -0.175410086 0.418674095
C 2.419282962 -0.445331706 -0.309787736
C 3.839429057 3.141637028 -3.316135151
N 3.222165174 1.521624294 -1.964496181
C -1.749794626 -2.556072318 0.782331441
N -2.231843087 -0.957643866 -1.416685743
H 0.051579678 2.179606163 3.716581666
H -0.493462482 3.855715889 0.869135330
H -2.995752779 2.196528943 2.320621551
H 2.745645296 -2.249671784 -1.256775115
H 3.611756951 -0.390569219 1.373946582
H -3.266844271 -2.623137885 2.156397264
H -0.760030159 -4.332821752 0.516502968
H -1.432078261 -1.685351904 -2.996891622

