14

C -3.499629598 -0.570360389 1.034155513
C -0.455067820 -1.732934187 -1.502989913
O 0.092669958 0.418759303 -2.702020685
C 1.969552691 1.766394075 -1.282430774
C 2.793394197 -0.136525853 0.733864520
O 1.369572924 -2.361126338 0.122345272
H -3.964502376 -2.014085127 2.425911440
H -5.168767123 0.154541802 0.069749357
H -2.436476559 0.967011030 1.892316637
H -2.511305481 -2.275093872 -1.111068368
H 3.477226800 2.299474684 -2.577442607
H 1.117645408 3.462172033 -0.477466253
H 2.303807335 0.467671349 2.643739755
H 4.791281101 -0.618328460 0.650871585

