15

C -4.270256435 -1.090041536 0.117481231
N -2.327976327 0.853109867 0.711724376
C -0.231948896 0.948832526 -1.223929237
C 2.391020785 0.559821387 -0.361166573
C 4.181812225 -1.357429166 0.566904798
C 1.741173677 2.865014873 -0.818471452
N -2.397788933 2.207650530 2.531885033
H -5.216436012 -0.608563357 -1.650206532
H -5.607197114 -1.099139358 1.673575830
H -3.361762342 -2.930621421 -0.087593946
H -0.906832022 0.350783398 -3.076122113
H 5.997743165 -0.511820812 1.041271125
H 4.473218160 -2.828126116 -0.849958843
H 3.415284299 -2.260825798 2.256431126
H 2.145111215 4.854480289 -0.847995210

