15

C -4.523458098 -0.982259967 -0.354445725
N -2.396932830 0.815350304 -0.194395711
C -0.103004096 0.050394234 -1.215554500
C 2.220825077 0.584045257 0.283106693
C 4.363784669 -1.153005586 0.808335736
C 1.518896437 2.889390545 0.462398181
N -2.543721219 2.810942250 1.001903878
H -6.274732852 0.061885375 -0.129764639
H -4.328718079 -2.393388385 1.132370759
H -4.490069000 -1.919021434 -2.188875553
H -0.056987469 -0.830596804 -3.062762694
H 5.087187514 -1.946049336 -0.953752806
H 3.722579335 -2.727832662 1.979732419
H 5.901161285 -0.174539413 1.766030945
H 1.928354810 4.867814707 0.649500721

