10

N -2.902601129 0.151656096 0.101344916
C -0.349073970 -0.246160808 -0.159989883
C 1.352763016 1.840496435 0.218375825
N 3.683192114 0.970340274 -0.028220206
N 4.429009719 -1.036280699 -0.469098678
N 0.734760439 -2.370720477 -0.646154772
H -4.062358763 -1.125901055 -0.687321038
H -3.511205815 1.945158122 -0.028088757
H 0.946008028 3.777256180 0.668394505
H -0.352821203 -3.918371062 -0.894065920

