12

O 2.761149875 4.104346834 0.987680250
C 1.570258550 2.141315152 0.863296851
C 2.603685460 -0.395000476 0.811373055
H 4.640235084 -0.544154896 0.893264412
C 1.090603749 -2.450384698 0.670592842
H 1.929572096 -4.319481873 0.636485119
C -1.589358333 -2.217415028 0.563951270
H -2.801863023 -3.854341755 0.451034767
C -2.584581387 0.131622656 0.608582236
H -4.594773319 0.500370546 0.535343840
N -1.064758210 2.195604017 0.749497317
H -1.822132983 3.943091628 0.782908261

