14

O 2.800484222 4.033556106 1.269624364
C 1.507580757 2.212828285 0.746407880
C 2.422486860 -0.274126979 -0.116581891
C 1.027973709 -2.452951021 0.547855320
C -1.541923468 -2.230668755 0.448438264
C -2.409131674 0.201938515 -0.222868857
N -1.097817835 2.262340205 0.759579044
H 4.445572412 -0.380786277 -0.402901496
H 0.886907675 0.171549753 -2.583844149
H 1.952655271 -4.269612681 0.715575543
H -2.812165810 -3.830358523 0.463376266
H -4.396850907 0.546020981 -0.575256046
H -0.889332534 0.209901273 -2.736843405
H -1.914604634 3.980728396 0.778017933

