11

O 4.390660070 -1.486939165 -0.941174978
C 3.426950051 -0.252716155 0.698972031
C 0.658738137 0.367451632 0.791983841
N -0.654997292 -0.717576423 -1.340857666
C -3.095116865 -0.545237236 -1.852830677
O -4.186637584 0.841115567 -0.019118340
H 4.559600395 0.517940331 2.280097640
H -0.101414628 -0.325932006 2.589098986
H 0.453877539 2.427226350 0.849575474
H 0.428819676 -1.709913336 -2.552138059
H -5.947770756 0.943413283 -0.425171389

