12

N 3.530176832 -1.230145604 0.295778497
C 1.465685434 -0.398449717 -0.998199826
C -1.094364984 -1.683505963 -1.295735920
O -2.675653053 0.194693361 -0.198061099
C -0.951310090 1.766944892 0.924025865
N -1.343892415 3.712296617 2.178961312
H 1.863234640 0.621238242 1.177803819
H 3.000061789 -2.653661894 1.479119346
H 1.896020027 0.984656291 -2.462139115
H -1.610649708 -2.006636223 -3.265307281
H -1.202073647 -3.451634995 -0.234469545
H -3.215758492 4.126005041 2.403651260

