19

C -4.000675079 -0.362277165 1.656959052
C -2.007403206 1.359467122 0.488421392
C -0.276805306 0.001767669 -1.397646468
C 1.422049862 1.915962553 -2.836723425
C 1.673336912 -1.805723924 -0.534512247
C 2.685235457 -1.413500269 1.971491872
O 4.937246552 -2.699805454 2.521168377
H -5.183012634 -1.215146546 0.195698563
H -5.234926283 0.691888563 2.928212644
H -3.160440237 -1.901530696 2.744983911
H -0.888662022 2.266488286 1.971693619
H -2.959560819 2.898086366 -0.514183499
H -1.450562145 -0.916627171 -2.833940614
H 0.202659861 3.173448658 -3.921127058
H 2.533912029 3.054873579 -1.525125711
H 2.710791395 0.975609417 -4.140025033
H 2.867569179 0.537800994 2.652214515
H 1.064983088 -2.232593686 3.053754180
H 5.157171782 -3.894647327 1.166140807

