19

C -4.184533979 -0.381340930 1.732958244
C -2.249751776 1.429474237 0.603363946
C -0.670420329 0.180110855 -1.445939478
C 1.579563429 1.651199545 -2.457775001
C 1.537151966 -1.456031938 -0.899808722
C 2.704049722 -1.194750052 1.668938140
O 5.167151086 -2.217626640 1.751573199
H -5.475053140 -1.082413241 0.282182635
H -5.315646993 0.550315856 3.183434614
H -3.273052702 -2.019054200 2.595820685
H -1.034782808 2.181756217 2.094136666
H -3.232672259 3.053968740 -0.215773785
H -1.872427968 -0.536318353 -2.957765523
H 1.584140989 1.950675877 -4.486931412
H 2.143883441 3.262870480 -1.322589287
H 3.204281449 0.078007157 -2.367252093
H 2.853733870 0.715001690 2.455525471
H 1.415230691 -2.257611789 2.915020920
H 5.180854851 -3.565070625 0.530220112

