11

O -4.427581634 1.533095725 -1.795162547
C -2.142791255 0.785496657 -1.042027281
N 0.054568317 2.189024085 -0.956881116
C 1.932464983 0.564315420 -0.776519796
O 4.350931073 1.250856001 -0.469158752
C 1.098524536 -1.937429313 -0.845748325
N -1.419612626 -1.777928642 -1.049458080
H -3.306651182 1.214317561 0.767395216
H 4.406101589 3.068536809 -0.508645090
H 2.114652118 -3.682111190 -0.588204525
H -2.660605901 -3.208173113 -1.215189518

