19

C -3.577559579 -2.273749295 1.160200264
C -2.455916417 -1.251718264 -1.298581488
C -0.175438470 0.405894463 -0.933447605
C 2.191523758 -0.731815188 -0.166019054
C 4.201964000 0.708169442 0.988097974
C -0.165346519 2.928424256 -1.905343180
O 1.689697046 4.314654832 -2.049701816
H -5.184063039 -3.513766469 0.786501745
H -2.185782902 -3.360771332 2.230049453
H -4.217183458 -0.727356549 2.365704483
H -1.975292281 -2.845467981 -2.533290328
H -3.900676328 -0.177753384 -2.312675536
H 0.286672285 2.005543584 2.589975630
H 3.380129214 -0.844307844 -1.948838836
H 2.019019504 -2.652344434 0.554749078
H 5.723413986 -0.296761230 1.926194210
H 1.656948772 2.067423705 3.204040905
H 4.532171927 2.615024101 0.339961031
H -2.030729476 3.627559559 -2.557077992

