11

O -0.800160251 3.318479639 2.512657334
C -0.450802992 1.548388447 1.167948860
C -2.420168430 -0.307036748 0.077877919
C -0.662252272 -2.422706144 -0.602861940
C 1.780621596 -1.739148419 -1.050213517
C 1.982830701 0.649567088 -0.057934071
O 3.864798536 2.253285998 -0.245078298
H -3.905789776 -0.797973101 1.420643453
H -3.299989312 0.590447044 -1.559604369
H -1.283550550 -4.374598192 -0.433712026
H 5.149441914 1.475779330 -1.287042499

