11

O -1.348035148 4.004614062 1.185243746
C -0.716077171 1.919703152 0.606174592
C -2.353153753 -0.390526662 0.056815410
C -0.425733110 -2.420872561 -0.555578309
C 2.018892042 -1.661630777 -0.451980329
C 1.951974251 0.915306498 0.232459840
O 4.137846160 1.826984628 0.383122016
H -3.523922198 -0.848650113 1.697517658
H -3.649967969 0.001427783 -1.503955789
H -1.057615971 -4.315601339 -1.031236359
H 4.655613222 -0.378866391 -0.220831033

