12

N -3.717284719 0.351988948 -0.360481585
C -1.163872796 0.043800866 -0.122661556
C 0.654353500 1.823034609 -0.253167610
N 3.044813981 0.488230511 0.003979593
C 2.562887672 -2.388593356 0.344377510
C 0.015351133 -2.432379595 0.231400309
H -4.439272160 2.093153630 -0.147821955
H -4.807525905 -1.046789825 0.311659906
H 0.585542562 3.839603573 -0.520796634
H 4.079109201 1.036975117 1.528680739
H 4.188052384 0.643556417 -1.534525114
H -1.082969010 -4.153522288 0.378297791

