12

O -4.294335495 -1.121032799 -0.931757755
C -2.081237735 -1.549170303 0.458197547
C 0.257209111 -0.714581188 -0.991072176
C 0.743505430 2.062539576 -1.145513105
C 1.690556040 4.216982806 -0.768715379
C 2.449055899 0.178836254 0.372850845
N 4.267983170 -0.273861850 1.752834742
H -4.564007936 0.668410322 -1.068959393
H -2.116805253 -0.599409902 2.297431286
H -1.962276244 -3.581030817 0.782060606
H 0.618209521 -1.734002506 -2.738559787
H 5.316437465 1.259268155 2.231194439

