13

C -2.992551261 -0.686045341 0.562631882
C -0.406348092 -0.978009029 -0.632434378
C 0.179965346 1.014341035 -2.608391559
N 1.247958295 1.149825725 -0.104607453
C 3.314685617 0.905185598 1.141613107
O 3.526074501 -1.092884478 2.546594907
H -2.977042279 -1.322360158 2.526337099
H -4.330058991 -1.889614064 -0.445208874
H -3.733672046 1.257829582 0.528274941
H 2.158360180 -2.214265705 1.768889931
H 1.501777370 0.625634784 -4.130323122
H -1.171178496 2.515656972 -2.999945495
H 4.872408027 2.234545679 1.076607681

