14

C -0.682582626 -3.028588716 2.002809263
C -0.622123786 -3.448568272 -0.730356414
H 0.263895661 -5.358384812 -0.773986486
H -2.454657463 -3.637367200 -1.655027299
O 0.886414816 -1.635560247 -2.006277837
C 2.639425888 -0.708659523 -0.198736846
C 3.439066899 1.940964820 -0.896871937
H 4.349582073 1.963827615 -2.745034442
H 4.775855229 2.677649511 0.491194981
H 1.796633132 3.187797651 -0.964676557
H 4.306761238 -1.954958337 -0.159472362
C 1.195769086 -0.990781064 2.299677792
H -0.143747498 0.607861570 2.515162166
H 2.301387956 -1.036043330 4.036115683

