19

C -3.748332693 1.677279183 -0.403128603
C -1.906523314 -1.574000227 1.527214539
C -1.209197178 -2.964757113 -0.823835326
O 0.847897700 -1.701480452 -2.011836485
C 2.370678714 -0.675265776 -0.049181596
C 3.669435682 1.688162456 -0.996394779
C 0.549951366 -0.284780366 2.212821104
H -5.582659512 1.346763438 -1.277465783
H -2.251659946 1.681845253 -1.798860250
H -3.735451507 3.381952157 0.746593810
H -3.782150721 -0.016722848 1.201033693
H -0.610686124 -4.855072095 -0.178906778
H -2.722368349 -3.217576598 -2.195106849
H 3.805475743 -2.086308589 0.467308389
H 4.791975878 1.280637650 -2.676184028
H 4.925581783 2.446680740 0.454233714
H 2.279593934 3.136125849 -1.477254394
H 0.285757846 1.701607536 2.694177679
H 1.272521787 -1.195740740 3.920680572

