13

C 4.044394989 0.655780508 0.564450743
C 1.641072333 1.321881887 0.335720410
C -0.335146802 -0.199087655 -0.905582289
H 0.306008416 -1.988620708 -1.669444378
C -2.990297914 -0.146180596 0.121182354
H -3.344694204 1.041930810 1.748671071
H -4.051250840 -1.893439191 0.100515950
C -2.416228786 1.110132783 -2.339463368
H -2.379113790 3.155314223 -2.390613983
H -3.084143981 0.234012156 -4.061493306
H 1.021205409 3.125172562 1.109290476
H 4.739439791 -1.123428310 -0.180084701
H 5.400418709 1.864601838 1.505183885

