15

C 3.400559780 0.009534916 0.236870612
C 0.918374034 0.864456671 0.571650203
C -1.025479705 -1.172816284 0.903954517
C -3.360037022 0.098211920 -0.138193914
C -1.276736481 1.357921080 -1.643560346
H 2.537267407 -2.204859763 2.817079041
H 3.796319208 -1.448143711 -1.147098604
H 4.997405019 1.089890774 0.911996209
H 0.694288364 2.418425706 1.903394457
H -0.539770467 -2.873385170 -0.157846858
H 1.044632003 -2.569077829 3.228636730
H -4.323250761 1.370969772 1.158334878
H -4.685395457 -1.087453953 -1.157898049
H -1.365721870 3.397575997 -1.843771746
H -0.812671391 0.432088486 -3.411451727

