12

C -1.744145233 -2.086763200 -0.183414626
H -3.239403842 -3.416069688 0.331180872
H -1.792978326 -1.902517870 -2.264373494
C -2.270339548 0.402714243 1.025994183
H -4.187901660 1.127971722 0.872736846
C -0.429992610 1.753969315 2.178886404
H -0.871941404 3.473523920 3.204629442
C 2.062898170 1.261613381 1.329714140
C 2.514637654 -1.307052904 0.409964877
H 4.161389407 -2.071482251 1.398446182
H 3.089937390 -1.133296555 -1.589770199
O 0.533927490 -3.116684309 0.656443896

