13

C 2.496296898 0.048734185 1.601169991
C 1.360102939 1.314796056 -0.662791486
C 1.148649540 -1.510143282 -0.330736068
C -2.846872142 -0.000852399 -2.352408899
N -1.579059213 -1.321163300 -0.018949267
C -1.489701510 1.470649896 -0.374612920
H 4.533046209 -0.148089503 1.585982791
H 1.681463528 0.312311900 3.464456768
H 2.446073590 2.317465104 -2.067913862
H 1.951456202 -3.034042239 -1.424909018
H -4.853537108 0.020818168 -1.797777853
H -2.523605765 -2.145051821 1.418390011
H -2.358010746 2.685939626 1.037637163

