11

C 3.058476889 0.647415540 -0.914929649
N 0.393865619 0.099499466 -0.515375803
H -0.523219829 -0.447386859 -2.093986621
C -1.078172960 1.617633852 1.279355320
H 0.040961515 3.154996806 2.072513021
H -2.904860183 2.246332997 0.577726693
C -0.693818427 -1.104392211 1.905676698
H 0.953761102 -1.264035121 3.156254777
H 3.312930081 2.114883383 -2.344466059
H 4.026895067 -1.072035054 -1.507349908
H 3.865652654 1.280689070 0.868288317

