13

C 3.044747009 0.562341695 -0.860259060
N 0.325786214 0.294361769 -0.683991246
C -1.250701686 1.707151048 1.063460138
C -1.076906031 -1.067161753 1.256286205
C -3.115443761 -2.316556731 -0.841561429
O -4.551888347 -3.942383396 -0.304822443
H 3.499098396 2.100574150 -2.152328079
H 3.844446072 -1.190007236 -1.587408949
H 3.863299908 0.963632068 0.988354693
H -0.256590018 2.913161864 2.386478015
H -2.936974322 2.515025029 0.204419498
H -0.034965999 -1.958299372 2.778058635
H -1.066493338 -0.490459537 -2.260741762

