14

O -2.077625089 3.007402033 2.412574679
C -1.010057310 1.124436706 1.275459725
C -2.224423607 -0.172019898 -0.963961088
N 0.093578973 -1.370075704 -1.945474481
C 1.879071414 0.759876430 -1.407707673
C 1.478214413 0.265781136 1.661321164
C 1.109635842 -2.435656909 0.482101222
H -3.035513145 1.177004389 -2.298139631
H -3.662070588 -1.557257178 -0.439458909
H 1.406258801 2.573294904 -2.277272708
H 3.824360778 0.250478738 -1.837672466
H -0.891560880 3.534368471 3.716825535
H 2.918955367 -3.352942140 0.129515101
H -0.160123146 -3.750658020 1.447781432

