14

O -2.186489074 2.655372739 2.851266832
C -1.328811399 1.213322563 1.172210457
C -2.291032956 -0.140623214 -1.122798673
N 0.133993582 -1.359291378 -1.857540007
C 1.921212439 0.820395722 -1.448315903
C 1.310045417 0.669883137 1.475790102
C 1.051964802 -2.207146974 0.701136807
H -2.987802209 1.136041533 -2.585274407
H -3.754149062 -1.529770450 -0.694631198
H 1.465420324 2.542527725 -2.494398025
H 3.849877466 0.235592118 -1.862704836
H -0.047601634 2.536751947 3.551863027
H 2.885494837 -3.123460243 0.521754441
H -0.246896025 -3.427018667 1.746382442

