10

O 3.721971939 0.389479830 -1.543040806
C 1.700330440 0.073246616 -0.653292645
O -0.326889285 1.854819085 -0.874202952
C -0.039592181 3.967816502 -2.126285121
C -1.531925531 -2.110070704 1.650484718
O 0.984981797 -1.899521520 0.651089678
H -1.910000902 -0.598828282 2.992604098
H 1.937845619 3.952388230 -2.851105129
H -1.560347466 -3.928600339 2.601401103
H -2.922052402 -2.073664979 0.135963130

