10

O 4.893659320 0.021011770 -0.628853101
C 2.711686407 0.186676633 -0.216233991
O 1.460652186 2.386856811 0.262424245
C -1.034916921 2.559353922 -0.321115378
C -1.391771121 -1.503979902 0.590652042
O 1.155441424 -1.826568076 0.008550841
H -2.090103669 0.668317801 1.040763564
H -1.296534688 1.859322604 -2.275744146
H -1.803326826 -2.346190944 2.428886701
H -2.587277781 -2.259779475 -0.897029540

