14

C -2.812995097 0.610097664 0.897513971
C -0.715505774 -0.475212093 -0.789483431
C -0.356629643 -3.202600197 -0.404493571
O 1.781105612 -3.763805581 0.348000455
C 3.564939308 -1.324173765 0.584981824
C 1.891644329 0.448615596 -0.160828487
N 2.367338208 3.068172337 -0.114613193
H -4.674547768 -0.092874332 0.359188805
H -2.789970278 2.660442685 0.718431373
H -2.454128510 0.150556824 2.873645536
H -1.741575395 -4.695937937 -0.716661550
H -1.227901026 -0.174912124 -2.781214477
H 2.281482715 3.866957019 -1.848741064
H 4.094825222 3.402362673 0.629522820

