13

C 3.526803161 -0.063264667 -0.077431566
C 0.730864013 0.256461346 -0.013114662
C -0.671637370 2.512000201 0.072805384
C -3.259888775 2.062058735 0.135225702
C -3.417518882 -0.751487898 0.078658678
N -0.814061322 -1.707947473 -0.014867175
H 4.183783059 -0.966911007 1.657689545
H 4.096361682 -1.249711678 -1.665698771
H 4.453831441 1.763491720 -0.248307481
H 0.239821552 4.345067971 0.084862914
H -4.379469471 -1.466392853 1.763166366
H -4.478743058 -1.397016075 -1.573848973
H -0.258245229 -3.522947439 -0.071269755

