13

C 3.540630249 -0.088233769 -0.009848213
C 0.747035137 0.252560971 -0.097334237
C -0.695265409 2.390099694 0.121404189
C -3.349492502 1.845819623 -0.162290020
C -3.304252326 -0.864023527 -0.304639234
N -0.829938971 -1.761010756 -0.372576041
H 4.098027741 -1.260613659 1.595383687
H 4.235406502 -0.993638292 -1.729626071
H 4.467034825 1.738317318 0.175282907
H 0.085961733 4.259497336 0.384047755
H -3.953461783 0.076853196 1.718548250
H -4.840319551 -2.094555996 -0.860673042
H -0.286189819 -3.578169205 -0.443015639

