9

C 5.807739405 1.440079191 0.525581836
C 3.482479067 -0.216707216 0.506143829
O 1.862536065 0.600452823 2.476869814
H 0.383508522 -0.442794049 2.490554058
H 4.021561315 -2.200891187 0.782782972
H 2.525523232 -0.077571046 -1.329270111
H 6.777117279 1.297526076 2.339463217
H 5.288791471 3.412625096 0.224832263
H 7.116131878 0.872722975 -0.964466231

