10

C -2.680844943 -2.936561416 -0.258602198
H -1.212606111 -4.223765279 -0.826868431
C -4.098211838 -2.022970525 1.494747324
H -4.668422844 -1.993819534 3.446787451
C -4.469072366 -0.897578713 -1.079288730
C -3.565601525 1.738383326 -1.721932712
H -3.086736572 1.895271053 -3.725616900
H -5.024475856 3.145081110 -1.320484019
H -1.888240573 2.227681664 -0.623360291
H -6.145921032 -1.467048248 -2.138540562

