17

C 3.080400717 -2.596786089 1.765229890
C 1.844267043 2.036619128 -0.020056211
C 2.693351850 -1.266028934 -0.373983206
C -0.087159082 -0.620524416 -1.330332118
C -2.448632279 -0.829046605 0.336026167
C -3.015367644 2.012024210 -0.111098643
C -0.476974735 2.273051664 -1.507084439
H 4.812624292 -3.644341574 2.049723755
H 1.753589196 -2.550840460 3.323256413
H 1.436625093 2.046148186 2.013582460
H 4.030858654 -1.477665542 -1.908895355
H -0.117210149 -1.556012094 -3.159826738
H -2.062963025 -1.366973549 2.284501874
H -3.871679709 -2.112260972 -0.417187769
H -4.643619489 2.302345745 -1.339638075
H -3.233672850 3.188074647 1.567740981
H -0.372061544 3.183279958 -3.343387326

