12

C 2.148998987 0.835347670 0.651593479
C 0.991558044 -1.696144829 0.260668538
O -1.566952493 -1.842440094 0.777261192
C -2.714756721 0.470226126 0.154478062
O -1.470881463 1.384436602 -2.041529430
C 1.091473873 1.046388636 -2.030733690
H 4.198288445 0.847074365 0.663517254
H 1.363832011 1.995919398 2.145757010
H 1.969405784 -3.452141593 0.659161795
H -4.688869359 0.119682951 -0.300713724
H -2.553010054 1.827798533 1.705709546
H 1.270812586 -1.569206634 -2.168611358

