16

C -3.431673006 -0.610507281 -2.299195194
C -1.237870408 1.081837064 -2.494361440
O -1.140833293 3.304229441 -1.527839320
C 0.327544736 -0.820217105 1.953704333
C 2.307663605 -0.977154022 0.197798163
O 2.139080098 -1.980780310 -1.970258901
N 4.555756333 0.266036116 0.725784562
H -4.585618314 -0.233758215 -0.642674161
H -2.776360640 -2.556313598 -2.316789451
H -4.540588654 -0.285368355 -4.026553574
H 0.102557289 0.804741571 -4.014122143
H -2.077553412 3.326402089 0.053739049
H 0.691146675 0.020210791 3.789371195
H -1.072036642 -2.309658437 1.910284361
H 5.953050821 -0.141831202 -0.496816292
H 5.073364375 0.410364648 2.546875871

