29

C     4.21616   0.60916   0.04528
O     2.85516   1.00400   0.16221
C     1.94352   0.06379  -0.09867
O     2.17461  -1.07517  -0.43758
C     0.67295   0.66552   0.19795
N    -0.13163   1.52449  -0.01782
N    -1.09432   2.28125  -0.25961
C    -2.35423  -0.41134   0.12648
C    -2.85906   0.11716   1.46343
C    -3.14358   0.03306  -1.10031
C    -1.37576  -1.27920   0.02823
C    -0.65991  -1.85958   1.24762
C    -0.85722  -1.77018  -1.31857
H     4.76082   1.50254   0.30747
H     4.40850  -0.21127   0.73641
H     4.40557   0.29975  -0.98498
H    -1.13323   3.10486   0.14653
H    -2.05441   0.37210   2.17769
H    -3.50703   0.99738   1.36150
H    -3.44581  -0.69012   1.91500
H    -3.80605  -0.82438  -1.33036
H    -3.76982   0.90706  -0.92378
H    -2.53332   0.21043  -1.99363
H    -1.24321  -2.77000   1.43674
H    -0.71245  -1.23646   2.15500
H     0.38393  -2.15028   1.09427
H    -1.57526  -2.51367  -1.61791
H    -0.80856  -0.99798  -2.12092
H     0.14442  -2.22784  -1.26719
29

C     4.21086   0.60956   0.04517
O     2.84806   1.00317   0.16205
C     1.93697   0.06068  -0.09845
O     2.17543  -1.07775  -0.43636
C     0.65846   0.64958   0.19209
N    -0.12209   1.53108  -0.01608
N    -1.09986   2.26268  -0.25585
C    -2.34606  -0.39612   0.12530
C    -2.85747   0.11785   1.46251
C    -3.14236   0.03198  -1.09923
C    -1.35480  -1.26020   0.02767
C    -0.66023  -1.85770   1.24695
C    -0.85472  -1.76655  -1.31768
H     4.75906   1.50285   0.30739
H     4.40738  -0.21102   0.73641
H     4.40435   0.29984  -0.98495
H    -1.13967   3.10063   0.14477
H    -2.05503   0.37177   2.17865
H    -3.50833   0.99625   1.36241
H    -3.44391  -0.69254   1.91165
H    -3.80360  -0.82699  -1.32707
H    -3.77138   0.90537  -0.92409
H    -2.53437   0.20950  -1.99424
H    -1.24686  -2.76755   1.43312
H    -0.71222  -1.23737   2.15570
H     0.38304  -2.15263   1.09527
H    -1.57668  -2.51202  -1.61293
H    -0.80889  -0.99909  -2.12249
H     0.14447  -2.22814  -1.26808
29

C     4.20556   0.60996   0.04506
O     2.84097   1.00234   0.16190
C     1.93041   0.05758  -0.09823
O     2.17624  -1.08033  -0.43514
C     0.64397   0.63365   0.18624
N    -0.11255   1.53767  -0.01433
N    -1.10540   2.24410  -0.25208
C    -2.33790  -0.38089   0.12412
C    -2.85588   0.11853   1.46160
C    -3.14115   0.03090  -1.09814
C    -1.33384  -1.24119   0.02711
C    -0.66055  -1.85581   1.24628
C    -0.85222  -1.76292  -1.31679
H     4.75730   1.50315   0.30731
H     4.40626  -0.21077   0.73642
H     4.40314   0.29992  -0.98492
H    -1.14612   3.09641   0.14301
H    -2.05564   0.37145   2.17960
H    -3.50962   0.99513   1.36331
H    -3.44201  -0.69495   1.90829
H    -3.80114  -0.82960  -1.32377
H    -3.77293   0.90368  -0.92441
H    -2.53541   0.20856  -1.99485
H    -1.25051  -2.76510   1.42950
H    -0.71200  -1.23827   2.15641
H     0.38214  -2.15498   1.09627
H    -1.57809  -2.51037  -1.60794
H    -0.80922  -1.00021  -2.12405
H     0.14453  -2.22844  -1.26897
29

C     4.20025   0.61036   0.04496
O     2.83387   1.00151   0.16174
C     1.92386   0.05448  -0.09800
O     2.17706  -1.08290  -0.43392
C     0.62949   0.61772   0.18039
N    -0.10301   1.54425  -0.01259
N    -1.11093   2.22553  -0.24831
C    -2.32974  -0.36567   0.12294
C    -2.85430   0.11922   1.46069
C    -3.13993   0.02982  -1.09706
C    -1.31288  -1.22219   0.02655
C    -0.66087  -1.85393   1.24562
C    -0.84972  -1.75929  -1.31589
H     4.75555   1.50346   0.30723
H     4.40515  -0.21052   0.73643
H     4.40192   0.30001  -0.98489
H    -1.15257   3.09218   0.14125
H    -2.05626   0.37112   2.18055
H    -3.51091   0.99400   1.36421
H    -3.44011  -0.69737   1.90493
H    -3.79868  -0.83222  -1.32047
H    -3.77449   0.90198  -0.92473
H    -2.53646   0.20763  -1.99546
H    -1.25416  -2.76265   1.42588
H    -0.71178  -1.23918   2.15712
H     0.38124  -2.15733   1.09727
H    -1.57951  -2.50873  -1.60295
H    -0.80954  -1.00132  -2.12562
H     0.14458  -2.22873  -1.26986
29

C     4.19495   0.61076   0.04485
O     2.82678   1.00068   0.16158
C     1.91730   0.05137  -0.09778
O     2.17788  -1.08548  -0.43270
C     0.61500   0.60179   0.17454
N    -0.09347   1.55084  -0.01084
N    -1.11647   2.20695  -0.24455
C    -2.32157  -0.35044   0.12175
C    -2.85271   0.11991   1.45978
C    -3.13871   0.02874  -1.09598
C    -1.29191  -1.20318   0.02600
C    -0.66118  -1.85204   1.24495
C    -0.84721  -1.75567  -1.31500
H     4.75379   1.50376   0.30715
H     4.40403  -0.21027   0.73643
H     4.40071   0.30009  -0.98486
H    -1.15901   3.08796   0.13949
H    -2.05687   0.37079   2.18150
H    -3.51220   0.99287   1.36512
H    -3.43821  -0.69978   1.90157
H    -3.79623  -0.83483  -1.31717
H    -3.77605   0.90029  -0.92504
H    -2.53750   0.20670  -1.99607
H    -1.25782  -2.76020   1.42226
H    -0.71155  -1.24008   2.15782
H     0.38035  -2.15968   1.09827
H    -1.58093  -2.50708  -1.59797
H    -0.80987  -1.00243  -2.12718
H     0.14463  -2.22903  -1.27075
29

C     4.18965   0.61116   0.04474
O     2.81968   0.99986   0.16143
C     1.91075   0.04827  -0.09756
O     2.17869  -1.08806  -0.43149
C     0.60051   0.58586   0.16869
N    -0.08393   1.55742  -0.00910
N    -1.12201   2.18838  -0.24078
C    -2.31341  -0.33522   0.12057
C    -2.85112   0.12060   1.45886
C    -3.13750   0.02765  -1.09490
C    -1.27095  -1.18417   0.02544
C    -0.66150  -1.85015   1.24428
C    -0.84471  -1.75204  -1.31411
H     4.75204   1.50407   0.30707
H     4.40292  -0.21002   0.73644
H     4.39949   0.30018  -0.98482
H    -1.16546   3.08373   0.13773
H    -2.05749   0.37046   2.18245
H    -3.51349   0.99174   1.36602
H    -3.43630  -0.70220   1.89822
H    -3.79377  -0.83744  -1.31387
H    -3.77760   0.89860  -0.92536
H    -2.53855   0.20577  -1.99668
H    -1.26147  -2.75775   1.41864
H    -0.71133  -1.24099   2.15853
H     0.37945  -2.16203   1.09927
H    -1.58234  -2.50543  -1.59298
H    -0.81020  -1.00354  -2.12874
H     0.14468  -2.22932  -1.27164
29

C     4.18435   0.61156   0.04463
O     2.81259   0.99903   0.16127
C     1.90419   0.04517  -0.09734
O     2.17951  -1.09064  -0.43027
C     0.58602   0.56993   0.16284
N    -0.07439   1.56401  -0.00735
N    -1.12755   2.16980  -0.23702
C    -2.30525  -0.31999   0.11939
C    -2.84953   0.12129   1.45795
C    -3.13628   0.02657  -1.09382
C    -1.24999  -1.16517   0.02488
C    -0.66182  -1.84827   1.24361
C    -0.84221  -1.74841  -1.31322
H     4.75028   1.50437   0.30698
H     4.40180  -0.20977   0.73644
H     4.39828   0.30027  -0.98479
H    -1.17191   3.07951   0.13597
H    -2.05810   0.37013   2.18340
H    -3.51478   0.99061   1.36692
H    -3.43440  -0.70461   1.89486
H    -3.79132  -0.84006  -1.31058
H    -3.77916   0.89690  -0.92567
H    -2.53959   0.20484  -1.99729
H    -1.26512  -2.75530   1.41502
H    -0.71110  -1.24189   2.15924
H     0.37855  -2.16438   1.10027
H    -1.58376  -2.50379  -1.58799
H    -0.81053  -1.00465  -2.13031
H     0.14473  -2.22962  -1.27252
29

C     4.17904   0.61195   0.04452
O     2.80549   0.99820   0.16111
C     1.89763   0.04207  -0.09712
O     2.18032  -1.09322  -0.42905
C     0.57153   0.55400   0.15699
N    -0.06485   1.57060  -0.00561
N    -1.13309   2.15123  -0.23325
C    -2.29708  -0.30477   0.11821
C    -2.84795   0.12197   1.45704
C    -3.13507   0.02549  -1.09274
C    -1.22903  -1.14616   0.02432
C    -0.66214  -1.84638   1.24294
C    -0.83971  -1.74478  -1.31232
H     4.74853   1.50467   0.30690
H     4.40068  -0.20952   0.73645
H     4.39707   0.30035  -0.98476
H    -1.17835   3.07528   0.13421
H    -2.05871   0.36980   2.18435
H    -3.51608   0.98948   1.36783
H    -3.43250  -0.70702   1.89150
H    -3.78886  -0.84267  -1.30728
H    -3.78072   0.89521  -0.92599
H    -2.54063   0.20391  -1.99790
H    -1.26877  -2.75285   1.41140
H    -0.71088  -1.24280   2.15994
H     0.37766  -2.16673   1.10127
H    -1.58517  -2.50214  -1.58300
H    -0.81085  -1.00576  -2.13187
H     0.14478  -2.22992  -1.27341
29

C     4.17374   0.61235   0.04442
O     2.79840   0.99737   0.16095
C     1.89108   0.03896  -0.09690
O     2.18114  -1.09579  -0.42783
C     0.55704   0.53807   0.15114
N    -0.05531   1.57718  -0.00386
N    -1.13863   2.13266  -0.22948
C    -2.28892  -0.28954   0.11703
C    -2.84636   0.12266   1.45613
C    -3.13385   0.02441  -1.09166
C    -1.20807  -1.12716   0.02376
C    -0.66246  -1.84450   1.24228
C    -0.83720  -1.74115  -1.31143
H     4.74677   1.50498   0.30682
H     4.39957  -0.20927   0.73645
H     4.39585   0.30044  -0.98473
H    -1.18480   3.07106   0.13245
H    -2.05933   0.36947   2.18531
H    -3.51737   0.98835   1.36873
H    -3.43060  -0.70944   1.88815
H    -3.78640  -0.84528  -1.30398
H    -3.78227   0.89352  -0.92631
H    -2.54168   0.20297  -1.99851
H    -1.27242  -2.75040   1.40778
H    -0.71065  -1.24370   2.16065
H     0.37676  -2.16908   1.10227
H    -1.58659  -2.50049  -1.57802
H    -0.81118  -1.00687  -2.13344
H     0.14483  -2.23021  -1.27430
29

C     4.16844   0.61275   0.04431
O     2.79130   0.99655   0.16080
C     1.88452   0.03586  -0.09668
O     2.18195  -1.09837  -0.42662
C     0.54255   0.52214   0.14529
N    -0.04577   1.58377  -0.00212
N    -1.14416   2.11408  -0.22572
C    -2.28075  -0.27431   0.11585
C    -2.84477   0.12335   1.45522
C    -3.13263   0.02333  -1.09057
C    -1.18710  -1.10815   0.02320
C    -0.66278  -1.84261   1.24161
C    -0.83470  -1.73752  -1.31054
H     4.74501   1.50528   0.30674
H     4.39845  -0.20902   0.73646
H     4.39464   0.30052  -0.98470
H    -1.19124   3.06683   0.13069
H    -2.05994   0.36914   2.18626
H    -3.51866   0.98722   1.36963
H    -3.42870  -0.71185   1.88479
H    -3.78395  -0.84789  -1.30068
H    -3.78383   0.89182  -0.92662
H    -2.54272   0.20204  -1.99912
H    -1.27608  -2.74794   1.40416
H    -0.71043  -1.24461   2.16136
H     0.37586  -2.17143   1.10327
H    -1.58800  -2.49885  -1.57303
H    -0.81151  -1.00798  -2.13500
H     0.14489  -2.23051  -1.27519
29

C     4.16313   0.61315   0.04420
O     2.78421   0.99572   0.16064
C     1.87797   0.03276  -0.09646
O     2.18277  -1.10095  -0.42540
C     0.52806   0.50621   0.13944
N    -0.03623   1.59035  -0.00037
N    -1.14970   2.09551  -0.22195
C    -2.27259  -0.25909   0.11467
C    -2.84319   0.12404   1.45430
C    -3.13142   0.02225  -1.08949
C    -1.16614  -1.08915   0.02264
C    -0.66310  -1.84073   1.24094
C    -0.83220  -1.73389  -1.30965
H     4.74326   1.50559   0.30666
H     4.39733  -0.20877   0.73647
H     4.39342   0.30061  -0.98467
H    -1.19769   3.06260   0.12893
H    -2.06056   0.36882   2.18721
H    -3.51995   0.98609   1.37054
H    -3.42680  -0.71427   1.88143
H    -3.78149  -0.85051  -1.29738
H    -3.78539   0.89013  -0.92694
H    -2.54377   0.20111  -1.99973
H    -1.27973  -2.74549   1.40054
H    -0.71020  -1.24551   2.16206
H     0.37497  -2.17378   1.10427
H    -1.58942  -2.49720  -1.56804
H    -0.81184  -1.00910  -2.13657
H     0.14494  -2.23081  -1.27608
29

C     4.15783   0.61355   0.04409
O     2.77711   0.99489   0.16048
C     1.87141   0.02965  -0.09624
O     2.18358  -1.10353  -0.42418
C     0.51357   0.49028   0.13359
N    -0.02669   1.59694   0.00137
N    -1.15524   2.07693  -0.21818
C    -2.26443  -0.24386   0.11348
C    -2.84160   0.12473   1.45339
C    -3.13020   0.02117  -1.08841
C    -1.14518  -1.07014   0.02209
C    -0.66342  -1.83884   1.24027
C    -0.82970  -1.73026  -1.30875
H     4.74150   1.50589   0.30658
H     4.39622  -0.20852   0.73647
H     4.39221   0.30069  -0.98464
H    -1.20414   3.05838   0.12716
H    -2.06117   0.36849   2.18816
H    -3.52124   0.98496   1.37144
H    -3.42489  -0.71668   1.87807
H    -3.77903  -0.85312  -1.29409
H    -3.78694   0.88844  -0.92725
H    -2.54481   0.20018  -2.00034
H    -1.28338  -2.74304   1.39692
H    -0.70998  -1.24642   2.16277
H     0.37407  -2.17613   1.10527
H    -1.59083  -2.49555  -1.56305
H    -0.81216  -1.01021  -2.13813
H     0.14499  -2.23110  -1.27697
29

C     4.15253   0.61395   0.04399
O     2.77002   0.99406   0.16032
C     1.86485   0.02655  -0.09602
O     2.18440  -1.10611  -0.42296
C     0.49908   0.47435   0.12773
N    -0.01715   1.60353   0.00312
N    -1.16078   2.05836  -0.21442
C    -2.25626  -0.22864   0.11230
C    -2.84001   0.12541   1.45248
C    -3.12898   0.02009  -1.08733
C    -1.12422  -1.05113   0.02153
C    -0.66373  -1.83695   1.23960
C    -0.82719  -1.72664  -1.30786
H     4.73975   1.50619   0.30650
H     4.39510  -0.20827   0.73648
H     4.39099   0.30078  -0.98461
H    -1.21058   3.05415   0.12540
H    -2.06179   0.36816   2.18911
H    -3.52254   0.98384   1.37234
H    -3.42299  -0.71910   1.87472
H    -3.77658  -0.85573  -1.29079
H    -3.78850   0.88674  -0.92757
H    -2.54586   0.19925  -2.00095
H    -1.28703  -2.74059   1.39330
H    -0.70975  -1.24732   2.16347
H     0.37317  -2.17848   1.10627
H    -1.59225  -2.49391  -1.55807
H    -0.81249  -1.01132  -2.13969
H     0.14504  -2.23140  -1.27786
29

C     4.14722   0.61435   0.04388
O     2.76292   0.99323   0.16017
C     1.85830   0.02345  -0.09579
O     2.18521  -1.10868  -0.42175
C     0.48459   0.45842   0.12188
N    -0.00761   1.61011   0.00486
N    -1.16632   2.03978  -0.21065
C    -2.24810  -0.21341   0.11112
C    -2.83843   0.12610   1.45157
C    -3.12777   0.01900  -1.08625
C    -1.10325  -1.03213   0.02097
C    -0.66405  -1.83507   1.23894
C    -0.82469  -1.72301  -1.30697
H     4.73799   1.50650   0.30641
H     4.39399  -0.20802   0.73648
H     4.38978   0.30087  -0.98458
H    -1.21703   3.04993   0.12364
H    -2.06240   0.36783   2.19006
H    -3.52383   0.98271   1.37325
H    -3.42109  -0.72151   1.87136
H    -3.77412  -0.85835  -1.28749
H    -3.79005   0.88505  -0.92789
H    -2.54690   0.19831  -2.00156
H    -1.29068  -2.73814   1.38968
H    -0.70953  -1.24823   2.16418
H     0.37228  -2.18083   1.10727
H    -1.59366  -2.49226  -1.55308
H    -0.81282  -1.01243  -2.14126
H     0.14509  -2.23170  -1.27875
29

C     4.14192   0.61475   0.04377
O     2.75583   0.99241   0.16001
C     1.85174   0.02035  -0.09557
O     2.18603  -1.11126  -0.42053
C     0.47010   0.44249   0.11603
N     0.00192   1.61670   0.00661
N    -1.17186   2.02121  -0.20688
C    -2.23994  -0.19819   0.10994
C    -2.83684   0.12679   1.45065
C    -3.12655   0.01792  -1.08517
C    -1.08229  -1.01312   0.02041
C    -0.66437  -1.83318   1.23827
C    -0.82219  -1.71938  -1.30608
H     4.73623   1.50680   0.30633
H     4.39287  -0.20777   0.73649
H     4.38856   0.30095  -0.98455
H    -1.22347   3.04570   0.12188
H    -2.06302   0.36750   2.19101
H    -3.52512   0.98158   1.37415
H    -3.41919  -0.72393   1.86800
H    -3.77167  -0.86096  -1.28419
H    -3.79161   0.88336  -0.92820
H    -2.54795   0.19738  -2.00217
H    -1.29433  -2.73569   1.38606
H    -0.70930  -1.24913   2.16489
H     0.37138  -2.18318   1.10827
H    -1.59508  -2.49061  -1.54809
H    -0.81315  -1.01354  -2.14282
H     0.14514  -2.23199  -1.27964
29

C     4.13662   0.61515   0.04366
O     2.74874   0.99158   0.15985
C     1.84519   0.01724  -0.09535
O     2.18685  -1.11384  -0.41931
C     0.45561   0.42656   0.11018
N     0.01146   1.62328   0.00835
N    -1.17739   2.00264  -0.20312
C    -2.23177  -0.18296   0.10876
C    -2.83525   0.12748   1.44974
C    -3.12534   0.01684  -1.08408
C    -1.06133  -0.99412   0.01985
C    -0.66469  -1.83130   1.23760
C    -0.81969  -1.71575  -1.30518
H     4.73448   1.50711   0.30625
H     4.39175  -0.20752   0.73649
H     4.38735   0.30104  -0.98452
H    -1.22992   3.04148   0.12012
H    -2.06363   0.36717   2.19197
H    -3.52641   0.98045   1.37505
H    -3.41729  -0.72634   1.86464
H    -3.76921  -0.86357  -1.28089
H    -3.79317   0.88167  -0.92852
H    -2.54899   0.19645  -2.00278
H    -1.29799  -2.73324   1.38244
H    -0.70908  -1.25004   2.16559
H     0.37048  -2.18553   1.10927
H    -1.59649  -2.48897  -1.54310
H    -0.81348  -1.01465  -2.14439
H     0.14519  -2.23229  -1.28053
29

C     4.13131   0.61554   0.04355
O     2.74164   0.99075   0.15970
C     1.83863   0.01414  -0.09513
O     2.18766  -1.11642  -0.41809
C     0.44112   0.41063   0.10433
N     0.02100   1.62987   0.01010
N    -1.18293   1.98406  -0.19935
C    -2.22361  -0.16773   0.10758
C    -2.83367   0.12817   1.44883
C    -3.12412   0.01576  -1.08300
C    -1.04037  -0.97511   0.01929
C    -0.66501  -1.82941   1.23693
C    -0.81718  -1.71212  -1.30429
H     4.73272   1.50741   0.30617
H     4.39064  -0.20727   0.73650
H     4.38614   0.30112  -0.98448
H    -1.23637   3.03725   0.11836
H    -2.06425   0.36684   2.19292
H    -3.52770   0.97932   1.37596
H    -3.41539  -0.72876   1.86129
H    -3.76675  -0.86618  -1.27760
H    -3.79472   0.87997  -0.92883
H    -2.55003   0.19552  -2.00340
H    -1.30164  -2.73079   1.37882
H    -0.70885  -1.25094   2.16630
H     0.36958  -2.18788   1.11027
H    -1.59791  -2.48732  -1.53812
H    -0.81380  -1.01576  -2.14595
H     0.14525  -2.23259  -1.28142
29

C     4.12601   0.61594   0.04345
O     2.73455   0.98992   0.15954
C     1.83208   0.01104  -0.09491
O     2.18848  -1.11900  -0.41687
C     0.42663   0.39470   0.09848
N     0.03054   1.63646   0.01184
N    -1.18847   1.96549  -0.19559
C    -2.21545  -0.15251   0.10640
C    -2.83208   0.12886   1.44792
C    -3.12290   0.01468  -1.08192
C    -1.01941  -0.95611   0.01873
C    -0.66533  -1.82752   1.23626
C    -0.81468  -1.70849  -1.30340
H     4.73097   1.50771   0.30609
H     4.38952  -0.20702   0.73651
H     4.38492   0.30121  -0.98445
H    -1.24281   3.03302   0.11660
H    -2.06486   0.36652   2.19387
H    -3.52899   0.97819   1.37686
H    -3.41348  -0.73117   1.85793
H    -3.76430  -0.86880  -1.27430
H    -3.79628   0.87828  -0.92915
H    -2.55108   0.19459  -2.00401
H    -1.30529  -2.72834   1.37520
H    -0.70863  -1.25185   2.16701
H     0.36869  -2.19023   1.11127
H    -1.59932  -2.48567  -1.53313
H    -0.81413  -1.01687  -2.14752
H     0.14530  -2.23288  -1.28231
29

C     4.12071   0.61634   0.04334
O     2.72745   0.98910   0.15938
C     1.82552   0.00793  -0.09469
O     2.18929  -1.12157  -0.41566
C     0.41214   0.37877   0.09263
N     0.04008   1.64304   0.01359
N    -1.19401   1.94691  -0.19182
C    -2.20728  -0.13728   0.10522
C    -2.83049   0.12954   1.44700
C    -3.12169   0.01360  -1.08084
C    -0.99844  -0.93710   0.01817
C    -0.66565  -1.82564   1.23559
C    -0.81218  -1.70486  -1.30251
H     4.72921   1.50802   0.30601
H     4.38840  -0.20677   0.73651
H     4.38371   0.30130  -0.98442
H    -1.24926   3.02880   0.11484
H    -2.06548   0.36619   2.19482
H    -3.53029   0.97706   1.37776
H    -3.41158  -0.73359   1.85457
H    -3.76184  -0.87141  -1.27100
H    -3.79784   0.87659  -0.92947
H    -2.55212   0.19366  -2.00462
H    -1.30894  -2.72589   1.37158
H    -0.70840  -1.25275   2.16771
H     0.36779  -2.19258   1.11227
H    -1.60074  -2.48403  -1.52814
H    -0.81446  -1.01798  -2.14908
H     0.14535  -2.23318  -1.28319
29

C     4.11540   0.61674   0.04323
O     2.72036   0.98827   0.15922
C     1.81896   0.00483  -0.09447
O     2.19011  -1.12415  -0.41444
C     0.39765   0.36284   0.08678
N     0.04962   1.64963   0.01533
N    -1.19955   1.92834  -0.18805
C    -2.19912  -0.12206   0.10403
C    -2.82891   0.13023   1.44609
C    -3.12047   0.01252  -1.07976
C    -0.97748  -0.91809   0.01762
C    -0.66597  -1.82375   1.23493
C    -0.80968  -1.70123  -1.30161
H     4.72745   1.50832   0.30593
H     4.38729  -0.20652   0.73652
H     4.38249   0.30138  -0.98439
H    -1.25570   3.02457   0.11308
H    -2.06609   0.36586   2.19577
H    -3.53158   0.97593   1.37867
H    -3.40968  -0.73600   1.85122
H    -3.75939  -0.87402  -1.26770
H    -3.79939   0.87489  -0.92978
H    -2.55317   0.19272  -2.00523
H    -1.31259  -2.72344   1.36796
H    -0.70818  -1.25366   2.16842
H     0.36689  -2.19493   1.11327
H    -1.60215  -2.48238  -1.52315
H    -0.81479  -1.01910  -2.15065
H     0.14540  -2.23348  -1.28408
29

C     4.11010   0.61714   0.04312
O     2.71326   0.98744   0.15907
C     1.81241   0.00173  -0.09425
O     2.19092  -1.12673  -0.41322
C     0.38316   0.34691   0.08093
N     0.05916   1.65621   0.01708
N    -1.20508   1.90976  -0.18429
C    -2.19096  -0.10683   0.10285
C    -2.82732   0.13092   1.44518
C    -3.11925   0.01143  -1.07868
C    -0.95652  -0.89909   0.01706
C    -0.66628  -1.82187   1.23426
C    -0.80717  -1.69761  -1.30072
H     4.72570   1.50863   0.30585
H     4.38617  -0.20627   0.73652
H     4.38128   0.30147  -0.98436
H    -1.26215   3.02035   0.11132
H    -2.06671   0.36553   2.19672
H    -3.53287   0.97480   1.37957
H    -3.40778  -0.73842   1.84786
H    -3.75693  -0.87664  -1.26440
H    -3.80095   0.87320  -0.93010
H    -2.55421   0.19179  -2.00584
H    -1.31625  -2.72099   1.36434
H    -0.70795  -1.25457   2.16913
H     0.36600  -2.19728   1.11427
H    -1.60357  -2.48074  -1.51817
H    -0.81511  -1.02021  -2.15221
H     0.14545  -2.23377  -1.28497
29

C     4.11540   0.61674   0.04323
O     2.72036   0.98827   0.15922
C     1.81896   0.00483  -0.09447
O     2.19011  -1.12415  -0.41444
C     0.39765   0.36284   0.08678
N     0.04962   1.64963   0.01533
N    -1.19955   1.92834  -0.18805
C    -2.19912  -0.12206   0.10403
C    -2.82891   0.13023   1.44609
C    -3.12047   0.01252  -1.07976
C    -0.97748  -0.91809   0.01762
C    -0.66597  -1.82375   1.23493
C    -0.80968  -1.70123  -1.30161
H     4.72745   1.50832   0.30593
H     4.38729  -0.20652   0.73652
H     4.38249   0.30138  -0.98439
H    -1.25570   3.02457   0.11308
H    -2.06609   0.36586   2.19577
H    -3.53158   0.97593   1.37867
H    -3.40968  -0.73600   1.85122
H    -3.75939  -0.87402  -1.26770
H    -3.79939   0.87489  -0.92978
H    -2.55317   0.19272  -2.00523
H    -1.31259  -2.72344   1.36796
H    -0.70818  -1.25366   2.16842
H     0.36689  -2.19493   1.11327
H    -1.60215  -2.48238  -1.52315
H    -0.81479  -1.01910  -2.15065
H     0.14540  -2.23348  -1.28408
29

C     4.12071   0.61634   0.04334
O     2.72745   0.98910   0.15938
C     1.82552   0.00793  -0.09469
O     2.18929  -1.12157  -0.41566
C     0.41214   0.37877   0.09263
N     0.04008   1.64304   0.01359
N    -1.19401   1.94691  -0.19182
C    -2.20728  -0.13728   0.10522
C    -2.83049   0.12954   1.44700
C    -3.12169   0.01360  -1.08084
C    -0.99844  -0.93710   0.01817
C    -0.66565  -1.82564   1.23559
C    -0.81218  -1.70486  -1.30251
H     4.72921   1.50802   0.30601
H     4.38840  -0.20677   0.73651
H     4.38371   0.30130  -0.98442
H    -1.24926   3.02880   0.11484
H    -2.06548   0.36619   2.19482
H    -3.53029   0.97706   1.37776
H    -3.41158  -0.73359   1.85457
H    -3.76184  -0.87141  -1.27100
H    -3.79784   0.87659  -0.92947
H    -2.55212   0.19366  -2.00462
H    -1.30894  -2.72589   1.37158
H    -0.70840  -1.25275   2.16771
H     0.36779  -2.19258   1.11227
H    -1.60074  -2.48403  -1.52814
H    -0.81446  -1.01798  -2.14908
H     0.14535  -2.23318  -1.28319
29

C     4.12601   0.61594   0.04345
O     2.73455   0.98992   0.15954
C     1.83208   0.01104  -0.09491
O     2.18848  -1.11900  -0.41687
C     0.42663   0.39470   0.09848
N     0.03054   1.63646   0.01184
N    -1.18847   1.96549  -0.19559
C    -2.21545  -0.15251   0.10640
C    -2.83208   0.12886   1.44792
C    -3.12290   0.01468  -1.08192
C    -1.01941  -0.95611   0.01873
C    -0.66533  -1.82752   1.23626
C    -0.81468  -1.70849  -1.30340
H     4.73097   1.50771   0.30609
H     4.38952  -0.20702   0.73651
H     4.38492   0.30121  -0.98445
H    -1.24281   3.03302   0.11660
H    -2.06486   0.36652   2.19387
H    -3.52899   0.97819   1.37686
H    -3.41348  -0.73117   1.85793
H    -3.76430  -0.86880  -1.27430
H    -3.79628   0.87828  -0.92915
H    -2.55108   0.19459  -2.00401
H    -1.30529  -2.72834   1.37520
H    -0.70863  -1.25185   2.16701
H     0.36869  -2.19023   1.11127
H    -1.59932  -2.48567  -1.53313
H    -0.81413  -1.01687  -2.14752
H     0.14530  -2.23288  -1.28231
29

C     4.13131   0.61554   0.04355
O     2.74164   0.99075   0.15970
C     1.83863   0.01414  -0.09513
O     2.18766  -1.11642  -0.41809
C     0.44112   0.41063   0.10433
N     0.02100   1.62987   0.01010
N    -1.18293   1.98406  -0.19935
C    -2.22361  -0.16773   0.10758
C    -2.83367   0.12817   1.44883
C    -3.12412   0.01576  -1.08300
C    -1.04037  -0.97511   0.01929
C    -0.66501  -1.82941   1.23693
C    -0.81718  -1.71212  -1.30429
H     4.73272   1.50741   0.30617
H     4.39064  -0.20727   0.73650
H     4.38614   0.30112  -0.98448
H    -1.23637   3.03725   0.11836
H    -2.06425   0.36684   2.19292
H    -3.52770   0.97932   1.37596
H    -3.41539  -0.72876   1.86129
H    -3.76675  -0.86618  -1.27760
H    -3.79472   0.87997  -0.92883
H    -2.55003   0.19552  -2.00340
H    -1.30164  -2.73079   1.37882
H    -0.70885  -1.25094   2.16630
H     0.36958  -2.18788   1.11027
H    -1.59791  -2.48732  -1.53812
H    -0.81380  -1.01576  -2.14595
H     0.14525  -2.23259  -1.28142
29

C     4.13662   0.61515   0.04366
O     2.74874   0.99158   0.15985
C     1.84519   0.01724  -0.09535
O     2.18685  -1.11384  -0.41931
C     0.45561   0.42656   0.11018
N     0.01146   1.62328   0.00835
N    -1.17739   2.00264  -0.20312
C    -2.23177  -0.18296   0.10876
C    -2.83525   0.12748   1.44974
C    -3.12534   0.01684  -1.08408
C    -1.06133  -0.99412   0.01985
C    -0.66469  -1.83130   1.23760
C    -0.81969  -1.71575  -1.30518
H     4.73448   1.50711   0.30625
H     4.39175  -0.20752   0.73649
H     4.38735   0.30104  -0.98452
H    -1.22992   3.04148   0.12012
H    -2.06363   0.36717   2.19197
H    -3.52641   0.98045   1.37505
H    -3.41729  -0.72634   1.86464
H    -3.76921  -0.86357  -1.28089
H    -3.79317   0.88167  -0.92852
H    -2.54899   0.19645  -2.00278
H    -1.29799  -2.73324   1.38244
H    -0.70908  -1.25004   2.16559
H     0.37048  -2.18553   1.10927
H    -1.59649  -2.48897  -1.54310
H    -0.81348  -1.01465  -2.14439
H     0.14519  -2.23229  -1.28053
29

C     4.14192   0.61475   0.04377
O     2.75583   0.99241   0.16001
C     1.85174   0.02035  -0.09557
O     2.18603  -1.11126  -0.42053
C     0.47010   0.44249   0.11603
N     0.00192   1.61670   0.00661
N    -1.17186   2.02121  -0.20688
C    -2.23994  -0.19819   0.10994
C    -2.83684   0.12679   1.45065
C    -3.12655   0.01792  -1.08517
C    -1.08229  -1.01312   0.02041
C    -0.66437  -1.83318   1.23827
C    -0.82219  -1.71938  -1.30608
H     4.73623   1.50680   0.30633
H     4.39287  -0.20777   0.73649
H     4.38856   0.30095  -0.98455
H    -1.22347   3.04570   0.12188
H    -2.06302   0.36750   2.19101
H    -3.52512   0.98158   1.37415
H    -3.41919  -0.72393   1.86800
H    -3.77167  -0.86096  -1.28419
H    -3.79161   0.88336  -0.92820
H    -2.54795   0.19738  -2.00217
H    -1.29433  -2.73569   1.38606
H    -0.70930  -1.24913   2.16489
H     0.37138  -2.18318   1.10827
H    -1.59508  -2.49061  -1.54809
H    -0.81315  -1.01354  -2.14282
H     0.14514  -2.23199  -1.27964
29

C     4.14722   0.61435   0.04388
O     2.76292   0.99323   0.16017
C     1.85830   0.02345  -0.09579
O     2.18521  -1.10868  -0.42175
C     0.48459   0.45842   0.12188
N    -0.00761   1.61011   0.00486
N    -1.16632   2.03978  -0.21065
C    -2.24810  -0.21341   0.11112
C    -2.83843   0.12610   1.45157
C    -3.12777   0.01900  -1.08625
C    -1.10325  -1.03213   0.02097
C    -0.66405  -1.83507   1.23894
C    -0.82469  -1.72301  -1.30697
H     4.73799   1.50650   0.30641
H     4.39399  -0.20802   0.73648
H     4.38978   0.30087  -0.98458
H    -1.21703   3.04993   0.12364
H    -2.06240   0.36783   2.19006
H    -3.52383   0.98271   1.37325
H    -3.42109  -0.72151   1.87136
H    -3.77412  -0.85835  -1.28749
H    -3.79005   0.88505  -0.92789
H    -2.54690   0.19831  -2.00156
H    -1.29068  -2.73814   1.38968
H    -0.70953  -1.24823   2.16418
H     0.37228  -2.18083   1.10727
H    -1.59366  -2.49226  -1.55308
H    -0.81282  -1.01243  -2.14126
H     0.14509  -2.23170  -1.27875
29

C     4.15253   0.61395   0.04399
O     2.77002   0.99406   0.16032
C     1.86485   0.02655  -0.09602
O     2.18440  -1.10611  -0.42296
C     0.49908   0.47435   0.12773
N    -0.01715   1.60353   0.00312
N    -1.16078   2.05836  -0.21442
C    -2.25626  -0.22864   0.11230
C    -2.84001   0.12541   1.45248
C    -3.12898   0.02009  -1.08733
C    -1.12422  -1.05113   0.02153
C    -0.66373  -1.83695   1.23960
C    -0.82719  -1.72664  -1.30786
H     4.73975   1.50619   0.30650
H     4.39510  -0.20827   0.73648
H     4.39099   0.30078  -0.98461
H    -1.21058   3.05415   0.12540
H    -2.06179   0.36816   2.18911
H    -3.52254   0.98384   1.37234
H    -3.42299  -0.71910   1.87472
H    -3.77658  -0.85573  -1.29079
H    -3.78850   0.88674  -0.92757
H    -2.54586   0.19925  -2.00095
H    -1.28703  -2.74059   1.39330
H    -0.70975  -1.24732   2.16347
H     0.37317  -2.17848   1.10627
H    -1.59225  -2.49391  -1.55807
H    -0.81249  -1.01132  -2.13969
H     0.14504  -2.23140  -1.27786
29

C     4.15783   0.61355   0.04409
O     2.77711   0.99489   0.16048
C     1.87141   0.02965  -0.09624
O     2.18358  -1.10353  -0.42418
C     0.51357   0.49028   0.13359
N    -0.02669   1.59694   0.00137
N    -1.15524   2.07693  -0.21818
C    -2.26443  -0.24386   0.11348
C    -2.84160   0.12473   1.45339
C    -3.13020   0.02117  -1.08841
C    -1.14518  -1.07014   0.02209
C    -0.66342  -1.83884   1.24027
C    -0.82970  -1.73026  -1.30875
H     4.74150   1.50589   0.30658
H     4.39622  -0.20852   0.73647
H     4.39221   0.30069  -0.98464
H    -1.20414   3.05838   0.12716
H    -2.06117   0.36849   2.18816
H    -3.52124   0.98496   1.37144
H    -3.42489  -0.71668   1.87807
H    -3.77903  -0.85312  -1.29409
H    -3.78694   0.88844  -0.92725
H    -2.54481   0.20018  -2.00034
H    -1.28338  -2.74304   1.39692
H    -0.70998  -1.24642   2.16277
H     0.37407  -2.17613   1.10527
H    -1.59083  -2.49555  -1.56305
H    -0.81216  -1.01021  -2.13813
H     0.14499  -2.23110  -1.27697
29

C     4.16313   0.61315   0.04420
O     2.78421   0.99572   0.16064
C     1.87797   0.03276  -0.09646
O     2.18277  -1.10095  -0.42540
C     0.52806   0.50621   0.13944
N    -0.03623   1.59035  -0.00037
N    -1.14970   2.09551  -0.22195
C    -2.27259  -0.25909   0.11467
C    -2.84319   0.12404   1.45430
C    -3.13142   0.02225  -1.08949
C    -1.16614  -1.08915   0.02264
C    -0.66310  -1.84073   1.24094
C    -0.83220  -1.73389  -1.30965
H     4.74326   1.50559   0.30666
H     4.39733  -0.20877   0.73647
H     4.39342   0.30061  -0.98467
H    -1.19769   3.06260   0.12893
H    -2.06056   0.36882   2.18721
H    -3.51995   0.98609   1.37054
H    -3.42680  -0.71427   1.88143
H    -3.78149  -0.85051  -1.29738
H    -3.78539   0.89013  -0.92694
H    -2.54377   0.20111  -1.99973
H    -1.27973  -2.74549   1.40054
H    -0.71020  -1.24551   2.16206
H     0.37497  -2.17378   1.10427
H    -1.58942  -2.49720  -1.56804
H    -0.81184  -1.00910  -2.13657
H     0.14494  -2.23081  -1.27608
29

C     4.16844   0.61275   0.04431
O     2.79130   0.99655   0.16080
C     1.88452   0.03586  -0.09668
O     2.18195  -1.09837  -0.42662
C     0.54255   0.52214   0.14529
N    -0.04577   1.58377  -0.00212
N    -1.14416   2.11408  -0.22572
C    -2.28075  -0.27431   0.11585
C    -2.84477   0.12335   1.45522
C    -3.13263   0.02333  -1.09057
C    -1.18710  -1.10815   0.02320
C    -0.66278  -1.84261   1.24161
C    -0.83470  -1.73752  -1.31054
H     4.74501   1.50528   0.30674
H     4.39845  -0.20902   0.73646
H     4.39464   0.30052  -0.98470
H    -1.19124   3.06683   0.13069
H    -2.05994   0.36914   2.18626
H    -3.51866   0.98722   1.36963
H    -3.42870  -0.71185   1.88479
H    -3.78395  -0.84789  -1.30068
H    -3.78383   0.89182  -0.92662
H    -2.54272   0.20204  -1.99912
H    -1.27608  -2.74794   1.40416
H    -0.71043  -1.24461   2.16136
H     0.37586  -2.17143   1.10327
H    -1.58800  -2.49885  -1.57303
H    -0.81151  -1.00798  -2.13500
H     0.14489  -2.23051  -1.27519
29

C     4.17374   0.61235   0.04442
O     2.79840   0.99737   0.16095
C     1.89108   0.03896  -0.09690
O     2.18114  -1.09579  -0.42783
C     0.55704   0.53807   0.15114
N    -0.05531   1.57718  -0.00386
N    -1.13863   2.13266  -0.22948
C    -2.28892  -0.28954   0.11703
C    -2.84636   0.12266   1.45613
C    -3.13385   0.02441  -1.09166
C    -1.20807  -1.12716   0.02376
C    -0.66246  -1.84450   1.24228
C    -0.83720  -1.74115  -1.31143
H     4.74677   1.50498   0.30682
H     4.39957  -0.20927   0.73645
H     4.39585   0.30044  -0.98473
H    -1.18480   3.07106   0.13245
H    -2.05933   0.36947   2.18531
H    -3.51737   0.98835   1.36873
H    -3.43060  -0.70944   1.88815
H    -3.78640  -0.84528  -1.30398
H    -3.78227   0.89352  -0.92631
H    -2.54168   0.20297  -1.99851
H    -1.27242  -2.75040   1.40778
H    -0.71065  -1.24370   2.16065
H     0.37676  -2.16908   1.10227
H    -1.58659  -2.50049  -1.57802
H    -0.81118  -1.00687  -2.13344
H     0.14483  -2.23021  -1.27430
29

C     4.17904   0.61195   0.04452
O     2.80549   0.99820   0.16111
C     1.89763   0.04207  -0.09712
O     2.18032  -1.09322  -0.42905
C     0.57153   0.55400   0.15699
N    -0.06485   1.57060  -0.00561
N    -1.13309   2.15123  -0.23325
C    -2.29708  -0.30477   0.11821
C    -2.84795   0.12197   1.45704
C    -3.13507   0.02549  -1.09274
C    -1.22903  -1.14616   0.02432
C    -0.66214  -1.84638   1.24294
C    -0.83971  -1.74478  -1.31232
H     4.74853   1.50467   0.30690
H     4.40068  -0.20952   0.73645
H     4.39707   0.30035  -0.98476
H    -1.17835   3.07528   0.13421
H    -2.05871   0.36980   2.18435
H    -3.51608   0.98948   1.36783
H    -3.43250  -0.70702   1.89150
H    -3.78886  -0.84267  -1.30728
H    -3.78072   0.89521  -0.92599
H    -2.54063   0.20391  -1.99790
H    -1.26877  -2.75285   1.41140
H    -0.71088  -1.24280   2.15994
H     0.37766  -2.16673   1.10127
H    -1.58517  -2.50214  -1.58300
H    -0.81085  -1.00576  -2.13187
H     0.14478  -2.22992  -1.27341
29

C     4.18435   0.61156   0.04463
O     2.81259   0.99903   0.16127
C     1.90419   0.04517  -0.09734
O     2.17951  -1.09064  -0.43027
C     0.58602   0.56993   0.16284
N    -0.07439   1.56401  -0.00735
N    -1.12755   2.16980  -0.23702
C    -2.30525  -0.31999   0.11939
C    -2.84953   0.12129   1.45795
C    -3.13628   0.02657  -1.09382
C    -1.24999  -1.16517   0.02488
C    -0.66182  -1.84827   1.24361
C    -0.84221  -1.74841  -1.31322
H     4.75028   1.50437   0.30698
H     4.40180  -0.20977   0.73644
H     4.39828   0.30027  -0.98479
H    -1.17191   3.07951   0.13597
H    -2.05810   0.37013   2.18340
H    -3.51478   0.99061   1.36692
H    -3.43440  -0.70461   1.89486
H    -3.79132  -0.84006  -1.31058
H    -3.77916   0.89690  -0.92567
H    -2.53959   0.20484  -1.99729
H    -1.26512  -2.75530   1.41502
H    -0.71110  -1.24189   2.15924
H     0.37855  -2.16438   1.10027
H    -1.58376  -2.50379  -1.58799
H    -0.81053  -1.00465  -2.13031
H     0.14473  -2.22962  -1.27252
29

C     4.18965   0.61116   0.04474
O     2.81968   0.99986   0.16143
C     1.91075   0.04827  -0.09756
O     2.17869  -1.08806  -0.43149
C     0.60051   0.58586   0.16869
N    -0.08393   1.55742  -0.00910
N    -1.12201   2.18838  -0.24078
C    -2.31341  -0.33522   0.12057
C    -2.85112   0.12060   1.45886
C    -3.13750   0.02765  -1.09490
C    -1.27095  -1.18417   0.02544
C    -0.66150  -1.85015   1.24428
C    -0.84471  -1.75204  -1.31411
H     4.75204   1.50407   0.30707
H     4.40292  -0.21002   0.73644
H     4.39949   0.30018  -0.98482
H    -1.16546   3.08373   0.13773
H    -2.05749   0.37046   2.18245
H    -3.51349   0.99174   1.36602
H    -3.43630  -0.70220   1.89822
H    -3.79377  -0.83744  -1.31387
H    -3.77760   0.89860  -0.92536
H    -2.53855   0.20577  -1.99668
H    -1.26147  -2.75775   1.41864
H    -0.71133  -1.24099   2.15853
H     0.37945  -2.16203   1.09927
H    -1.58234  -2.50543  -1.59298
H    -0.81020  -1.00354  -2.12874
H     0.14468  -2.22932  -1.27164
29

C     4.19495   0.61076   0.04485
O     2.82678   1.00068   0.16158
C     1.91730   0.05137  -0.09778
O     2.17788  -1.08548  -0.43270
C     0.61500   0.60179   0.17454
N    -0.09347   1.55084  -0.01084
N    -1.11647   2.20695  -0.24455
C    -2.32157  -0.35044   0.12175
C    -2.85271   0.11991   1.45978
C    -3.13871   0.02874  -1.09598
C    -1.29191  -1.20318   0.02600
C    -0.66118  -1.85204   1.24495
C    -0.84721  -1.75567  -1.31500
H     4.75379   1.50376   0.30715
H     4.40403  -0.21027   0.73643
H     4.40071   0.30009  -0.98486
H    -1.15901   3.08796   0.13949
H    -2.05687   0.37079   2.18150
H    -3.51220   0.99287   1.36512
H    -3.43821  -0.69978   1.90157
H    -3.79623  -0.83483  -1.31717
H    -3.77605   0.90029  -0.92504
H    -2.53750   0.20670  -1.99607
H    -1.25782  -2.76020   1.42226
H    -0.71155  -1.24008   2.15782
H     0.38035  -2.15968   1.09827
H    -1.58093  -2.50708  -1.59797
H    -0.80987  -1.00243  -2.12718
H     0.14463  -2.22903  -1.27075
29

C     4.20025   0.61036   0.04496
O     2.83387   1.00151   0.16174
C     1.92386   0.05448  -0.09800
O     2.17706  -1.08290  -0.43392
C     0.62949   0.61772   0.18039
N    -0.10301   1.54425  -0.01259
N    -1.11093   2.22553  -0.24831
C    -2.32974  -0.36567   0.12294
C    -2.85430   0.11922   1.46069
C    -3.13993   0.02982  -1.09706
C    -1.31288  -1.22219   0.02655
C    -0.66087  -1.85393   1.24562
C    -0.84972  -1.75929  -1.31589
H     4.75555   1.50346   0.30723
H     4.40515  -0.21052   0.73643
H     4.40192   0.30001  -0.98489
H    -1.15257   3.09218   0.14125
H    -2.05626   0.37112   2.18055
H    -3.51091   0.99400   1.36421
H    -3.44011  -0.69737   1.90493
H    -3.79868  -0.83222  -1.32047
H    -3.77449   0.90198  -0.92473
H    -2.53646   0.20763  -1.99546
H    -1.25416  -2.76265   1.42588
H    -0.71178  -1.23918   2.15712
H     0.38124  -2.15733   1.09727
H    -1.57951  -2.50873  -1.60295
H    -0.80954  -1.00132  -2.12562
H     0.14458  -2.22873  -1.26986
29

C     4.20556   0.60996   0.04506
O     2.84097   1.00234   0.16190
C     1.93041   0.05758  -0.09823
O     2.17624  -1.08033  -0.43514
C     0.64397   0.63365   0.18624
N    -0.11255   1.53767  -0.01433
N    -1.10540   2.24410  -0.25208
C    -2.33790  -0.38089   0.12412
C    -2.85588   0.11853   1.46160
C    -3.14115   0.03090  -1.09814
C    -1.33384  -1.24119   0.02711
C    -0.66055  -1.85581   1.24628
C    -0.85222  -1.76292  -1.31679
H     4.75730   1.50315   0.30731
H     4.40626  -0.21077   0.73642
H     4.40314   0.29992  -0.98492
H    -1.14612   3.09641   0.14301
H    -2.05564   0.37145   2.17960
H    -3.50962   0.99513   1.36331
H    -3.44201  -0.69495   1.90829
H    -3.80114  -0.82960  -1.32377
H    -3.77293   0.90368  -0.92441
H    -2.53541   0.20856  -1.99485
H    -1.25051  -2.76510   1.42950
H    -0.71200  -1.23827   2.15641
H     0.38214  -2.15498   1.09627
H    -1.57809  -2.51037  -1.60794
H    -0.80922  -1.00021  -2.12405
H     0.14453  -2.22844  -1.26897
29

C     4.21086   0.60956   0.04517
O     2.84806   1.00317   0.16205
C     1.93697   0.06068  -0.09845
O     2.17543  -1.07775  -0.43636
C     0.65846   0.64958   0.19209
N    -0.12209   1.53108  -0.01608
N    -1.09986   2.26268  -0.25585
C    -2.34606  -0.39612   0.12530
C    -2.85747   0.11785   1.46251
C    -3.14236   0.03198  -1.09923
C    -1.35480  -1.26020   0.02767
C    -0.66023  -1.85770   1.24695
C    -0.85472  -1.76655  -1.31768
H     4.75906   1.50285   0.30739
H     4.40738  -0.21102   0.73641
H     4.40435   0.29984  -0.98495
H    -1.13967   3.10063   0.14477
H    -2.05503   0.37177   2.17865
H    -3.50833   0.99625   1.36241
H    -3.44391  -0.69254   1.91165
H    -3.80360  -0.82699  -1.32707
H    -3.77138   0.90537  -0.92409
H    -2.53437   0.20950  -1.99424
H    -1.24686  -2.76755   1.43312
H    -0.71222  -1.23737   2.15570
H     0.38304  -2.15263   1.09527
H    -1.57668  -2.51202  -1.61293
H    -0.80889  -0.99909  -2.12249
H     0.14447  -2.22814  -1.26808
