17

C -3.555201644 0.394916194 -0.973695861
C -1.892094991 0.940762848 1.290735572
C 0.245706518 -2.151840662 1.780925124
C 1.580943799 -2.135138753 -0.472576605
C 3.069486604 -0.084655195 -1.193033953
C 3.301324214 1.935576058 0.413860547
O -0.418573448 2.831233714 1.201067425
H -4.516683789 -1.422899483 -0.815820223
H -2.444068439 0.442959948 -2.707833199
H -4.983341186 1.880965203 -1.107574000
H -2.780510309 0.544153894 3.127495583
H -0.993791133 -3.737375343 2.167660164
H 1.076492295 -1.307101337 3.450132002
H 1.101275259 -3.526093020 -1.903232318
H 3.595525073 0.111450208 -3.162566236
H 3.365946007 1.688216502 2.436715250
H 4.005379798 3.729593450 -0.268844004

