16

C 4.966168754 0.152618949 1.190088381
C 2.443363061 -0.006178762 -0.074606690
C -2.957115212 -1.128118233 -2.082013940
C -4.094004551 -0.697918622 0.479002090
C -2.137602483 1.097852606 -0.541445954
C 0.396248054 1.242729914 0.651873121
H 4.921488693 1.435946606 2.802995026
H 6.412544456 0.817454514 -0.126693022
H 5.579115406 -1.702219259 1.863075997
H 2.321715003 -1.239249266 -1.714728793
H -4.118994989 -0.778481993 -3.727586146
H -1.658860665 -2.694072724 -2.287473638
H -3.511407694 -1.950691089 1.987584439
H -6.033988188 -0.060636927 0.593962521
H -2.878822762 2.912319462 -1.147840756
H 0.532213149 2.498629198 2.277029689

