11

O -4.255419212 1.161619222 -0.676149336
C -1.868115009 0.419530255 -0.860182167
N 0.119099290 1.773468605 -0.504083574
C 2.078947576 -0.005860570 -0.840465502
O 4.461849530 0.852232713 -1.180096492
C 1.215719530 -2.478852231 -1.595098206
N -1.353394071 -2.041646669 -1.430762010
H -4.260080543 2.935134541 -0.268615366
H 4.569073857 2.484714502 -0.391054368
H 2.040423241 -1.566000941 0.897293837
H -2.676880430 -3.392167752 -1.608087881

