15

C 0.215583887 3.077298051 0.009679706
C 0.333150703 0.258312465 0.597547577
C 2.608601299 -0.987080451 -0.656567616
C -2.117375081 -1.014037659 -0.191166906
O -2.064062827 -3.574576873 0.586557666
H 1.941430751 4.027238694 0.620520051
H -1.375933818 3.989512939 0.956860933
H 0.012454297 3.400645574 -2.022419651
H 0.500425537 0.015201883 2.647385150
H 2.532495565 -0.742151914 -2.709082894
H 4.370720700 -0.147058222 0.012933418
H 2.661006806 -3.006664738 -0.256197994
H -2.328681403 -0.875796161 -2.255001454
H -3.722419786 -0.024638684 0.675968679
H -3.567396632 -4.396204886 0.005161069

