11

C 5.380242556 -1.064198133 -0.576345889
C 3.264097063 -0.292483249 -0.351843610
C 0.717893481 0.674256020 -0.076765891
C -1.267538863 -1.247935618 0.082841644
C -3.670503396 -0.599100346 0.149578909
N -5.871426048 -0.031631030 -0.005533968
N 0.210306543 3.025997297 0.024003490
H 7.264832273 -1.740607987 -0.777403357
H -0.785703506 -3.231336752 0.156239325
H -6.835331672 0.368318166 1.602361690
H 1.808962858 4.075483856 -0.139634226

