14

C 0.468228667 -2.354687531 -0.615835987
C -1.978377939 -0.800107112 -0.792959960
C -1.513613084 1.418718899 0.966521648
O 1.203187490 1.420191846 1.598457629
C -0.311985714 3.715615260 -0.065703566
C 2.466091137 -0.387582847 -0.017153857
H 0.891129361 -3.380324045 -2.350880299
H 0.340803376 -3.725785388 0.920373761
H -2.261057251 -0.089597282 -2.705258863
H -3.627134503 -1.901472624 -0.235450521
H -2.603813735 1.410322109 2.715588446
H -0.383503533 5.161441505 1.427739299
H 3.122602232 0.612883139 -1.691591836
H 4.061672755 -1.105043203 1.067834080

