14

C -4.948807594 -0.469652292 0.914074340
C -0.715762928 0.081510710 -1.015953161
C -2.973026044 -0.867271834 -1.082231468
O 3.407436418 -2.422719183 1.368268559
C 3.673095893 -0.403936197 0.324699924
N 5.948712728 0.793140013 0.199987297
C 1.569455606 1.005673636 -0.925963174
H -4.245331042 0.728985210 2.431112364
H -5.519053674 -2.280316206 1.722294387
H -6.632579347 0.406943091 0.104198610
H -3.453435451 -2.056698168 -2.686734275
H 7.456155043 -0.067217048 0.964698270
H 6.183311474 2.426747814 -0.726387724
H 1.958961476 2.834813082 -1.771659759

