14

C -4.138369954 0.297263651 0.419072846
C -1.109614734 -0.885190217 -0.128349991
C -2.686051366 -2.742504817 0.211880156
O 3.812551161 -2.690136764 -0.108879065
C 3.412089679 -0.427231720 -0.103722928
N 5.347698090 1.293079191 -0.081720224
C 0.866337270 0.682065275 -0.185055248
H -4.166956635 0.984567531 2.346414763
H -5.908932765 -0.647809718 -0.033233990
H -3.925329431 1.812394941 -0.968756400
H -3.501084990 -3.832974584 -1.316974816
H 7.091738859 0.601193576 0.205139030
H 5.030057522 3.113586613 0.335434041
H 0.582003143 2.700069826 -0.317220917

