15

O 4.164153869 0.662530231 2.144942482
C 2.410468693 1.984918470 0.622035819
C 0.935642484 0.239418870 -1.124205706
C -1.166500158 -1.286260436 0.180602543
O -0.578094830 -2.138120533 2.614504955
C -3.510403040 1.214647904 0.688423807
C -4.408848268 -0.760872278 -0.253726724
H 3.273658586 -0.699738618 2.951013928
H 3.523750176 3.292489650 -0.518089620
H 1.105445355 3.114176529 1.767268206
H 2.278983382 -1.106750684 -1.936924642
H 0.098532248 1.300451580 -2.678792436
H -1.419960298 -2.997556806 -0.956173073
H -1.132229332 -0.861658440 3.786239163
H -5.566420150 -2.257021288 -0.968864776

