14

C -1.943272743 -2.307878769 -0.566651972
C -0.863139210 -0.064913755 -0.284322845
N -2.012469487 2.090881631 0.760925001
O -4.247164265 1.559490834 2.074914749
C 1.740536026 0.531121152 -1.187239278
C 3.974423684 -0.425354201 0.146095653
O 3.180283779 -1.469618351 -2.184570624
H -3.818194923 -2.678329264 0.148260806
H -0.924459840 -3.788007493 -1.534791490
H -0.850366079 2.982722097 1.993971411
H -5.530185483 2.416454646 1.119658817
H 1.912528373 2.304520801 -2.215711610
H 5.734425911 0.629119987 0.084436780
H 3.692984051 -1.636641133 1.779306630

