14

C -2.585313411 -1.360825193 -1.692432670
C -0.775754268 -0.401686478 -0.001682366
N -1.227178262 1.255330476 1.965716264
O -3.768877342 1.856937146 1.897166373
C 1.973907905 -0.829994831 -0.571614941
C 3.813485631 1.211455249 -0.330774694
O 3.696639480 -0.780221637 1.455813750
H -4.554880747 -0.875420163 -1.515627588
H -2.000789713 -2.756826182 -3.061903851
H -1.455028664 -1.813001921 1.551890374
H -4.050998145 2.650263543 3.505501960
H 2.305298763 -2.315764105 -1.950670321
H 5.474047238 1.212697612 -1.536409927
H 3.170162519 3.030459583 0.362181394

