10

O -2.405849976 0.631425491 -2.262711423
C -3.008261046 -0.363984042 -0.325353183
O -1.605361555 -0.466332440 1.774824276
C 0.836052405 0.593726513 1.628682646
C 2.923581606 -1.808197992 1.205587763
C 2.937252678 -0.691112320 -0.872634083
H -4.810502167 -1.331870053 0.005302175
H 0.779851213 2.286586582 0.441306419
H 1.388053746 1.166438949 3.515213565
H 2.929094976 0.108853799 -2.732689485

