16

C 4.187461958 0.236036884 -1.767935336
C 1.391653580 -0.037841520 2.044899606
C 2.621657134 1.292602773 -0.129058827
C -2.607052877 -1.295174935 -0.253063562
C -1.506683326 0.084992662 1.958910510
C -4.080904838 -0.280503387 -2.000074433
H 4.698353952 -1.745639496 -1.631541669
H 5.013636973 1.303368410 -3.306681947
H 2.007596582 -2.011326542 2.088639811
H 2.030002876 0.822751644 3.814960146
H 2.146127945 3.282240154 -0.348140521
H -2.113930583 -3.287064473 -0.402102614
H -2.246163148 -0.737697660 3.707482294
H -2.124436024 2.058042556 1.923096553
H -4.813774096 -1.385365157 -3.559496349
H -4.606297550 1.701071288 -1.936447638

