14

C -4.184453231 -0.068718473 1.134943961
C -1.933697349 -0.368566533 -0.591235457
O 0.290187383 0.173593133 0.816154062
C 2.461126789 -0.148140355 -0.541118729
O 3.178552279 1.817157183 -2.187124022
C 4.619278872 1.426231184 0.062343973
H -4.049565903 -1.358831683 2.736728756
H -4.285599915 1.857885676 1.859689684
H -5.927088290 -0.473694397 0.109765252
H -1.824161604 -2.304213324 -1.332730011
H -2.056053676 0.922775528 -2.204267088
H 6.529571434 0.732590467 -0.221059123
H 4.377048996 2.867059123 1.502192467
H 2.700598024 -2.035898009 -1.335707350

