15

C -2.861594961 -0.702200836 -0.795466701
C -1.152907906 -0.880402463 1.529398117
O 0.511434874 -3.099676169 1.422888164
C 2.851955203 -2.670014677 0.855166739
C 3.140007573 0.149987657 0.490344566
C 0.494559185 1.293699853 0.568363440
C -1.031577322 1.280476513 -1.933771767
H -3.086127683 -2.468487083 -1.829004689
H -4.725998812 0.052598183 -0.354174757
H -1.997609077 -0.861100215 3.404571177
H 0.051376740 0.597171899 -3.548827389
H 4.364351020 0.797483700 2.030088821
H 4.181226165 0.515205312 -1.254591498
H 0.378838593 3.046331582 1.636748148
H -1.896461052 3.075614003 -2.447210733

