15

C -2.921927906 -0.431056469 -0.583607880
C -1.165509828 -0.969612068 1.661401780
O 0.423906860 -2.985920515 0.778750202
C 2.084379877 -1.866965356 -0.872547023
C 3.058409445 0.487595676 0.530767490
C 0.411441339 1.412017288 0.900955559
C -0.651563867 0.819644140 -1.760844006
H -3.868361123 -2.009420527 -1.507088955
H -4.285206701 1.026553976 -0.043204997
H -1.866545988 -1.328484854 3.559551207
H 0.998548651 -1.183153445 -2.765592943
H 4.150413575 -0.016647372 2.204272266
H 4.174844673 1.701415521 -0.702847954
H -0.109531814 3.179738555 1.827904868
H -0.611112900 2.058157093 -3.398952171

