9

C 6.003302872 2.179606843 0.265961888
C 3.686736654 0.616878171 -0.322017004
O 2.113889160 0.614092866 1.845884743
H 0.646510154 -0.389202418 1.505551455
H 4.243736755 -1.318440677 -0.820505780
H 2.684521708 1.420175538 -1.951180302
H 7.021984419 1.378616208 1.869117282
H 5.465940162 4.112434446 0.741354091
H 7.270395230 2.232660167 -1.360781767

