10

C -2.836936813 -2.192826290 -0.219204035
H -2.167219197 -4.076709910 -0.595988704
C -4.205532087 -1.164088810 2.019431937
H -3.553850263 0.593865048 2.870423137
H -4.959539689 -2.526840144 3.353442672
C -5.378612346 -1.097983904 -0.541585473
H -7.093544549 -1.953203537 -1.224684277
C -3.202000700 -0.009562562 -1.962817821
H -3.115640783 -0.402862795 -3.973661066
H -2.474684025 1.839107429 -1.421757333

