19

C 5.292275333 1.786587518 -0.076923910
C 3.295589916 -0.256028202 -0.304780226
O 1.200240348 0.264290236 1.270251205
C -1.788358059 -1.978945726 0.547466508
C -4.105373748 -1.575245802 1.994358238
C -3.975670449 -1.106830336 -0.825342307
C -2.826650939 1.443147729 -1.252956999
H 5.912157847 1.973186880 1.879787885
H 4.536295310 3.603676974 -0.692447865
H 6.929654725 1.334518901 -1.249855259
H 4.073469578 -2.084935929 0.270349397
H 2.666260925 -0.431650183 -2.278014331
H -0.506946207 -3.558526390 0.454686247
H -4.313984187 0.010152913 3.270747179
H -4.975766484 -3.319380925 2.642751202
H -5.100270258 -2.196205063 -2.153456775
H -2.105779533 1.661584667 -3.165280412
H -3.923760391 3.043248777 -0.564730120
H -0.225578894 1.332325137 0.275535014

