11

C -0.040895582 1.641741636 0.350670260
C 2.725956013 1.220463763 0.816819755
C 2.066429879 1.345780440 -1.518425044
N -3.045440387 -1.725593811 -1.596893938
C -1.935633015 -0.431390157 0.726555494
C -1.547627511 -2.950422803 -0.254391095
H -0.816394832 3.523494193 0.675763624
H 4.169256507 0.978418041 2.227830367
H 2.547818315 1.295512951 -3.492340490
H -3.268426709 -0.149248056 2.265853679
H -0.676263249 -4.799072064 -0.220020529

