11

C -0.249643120 1.971974564 0.608141703
C 2.102754856 0.478106039 0.737600943
C 1.056908193 0.697046457 -1.640555965
N -2.059459473 -1.260062142 -1.806195902
C -2.205510528 -0.212331687 0.705280995
C -0.172464872 -1.988635410 -0.005954792
H -0.440337197 3.997248438 0.788039982
H 3.663145256 -0.170054508 1.860270737
H 1.525997536 0.953251783 -3.604544528
H -3.747210441 -0.601276498 1.985349101
H 0.541026416 -3.864630180 0.374264719

