14

C -3.700320157 -1.976028518 -0.713822123
C -1.610334388 -0.670779358 -0.211898278
N -0.705762252 0.253635129 2.063559782
C 1.987555602 0.839518919 1.924218445
C 2.371852253 1.508966020 -0.855007776
C 0.251000510 0.119906789 -2.201271079
O 0.090497699 -0.275460823 -4.427688384
H 2.454607839 2.392444731 3.194917308
H -5.018046725 -2.558031983 0.738265787
H -4.104315785 -2.453784787 -2.658579340
H -1.356505260 -0.531726734 3.666139168
H 3.161613568 -0.789448490 2.440895173
H 4.206441782 0.978798651 -1.617120262
H 2.093425051 3.528296838 -1.189281694

