14

C -3.817751026 -0.953741789 -0.090551348
C -1.177277511 -0.730399613 -0.022542921
N 0.308153236 -1.412805058 2.147767906
C 1.519513508 0.987991337 1.767642712
C 2.933286483 0.940249976 -0.672122160
C 0.607796298 0.050215447 -2.174647672
O 0.093010449 0.283958543 -4.358877409
H -1.997989989 1.306569247 0.664909869
H -4.802332598 -1.852310435 1.452911547
H -4.838900953 -0.044176279 -1.606636836
H 1.426120219 -2.939997657 1.811867972
H 1.720082519 2.294336727 3.325192003
H 4.495592348 -0.424269631 -0.771827474
H 3.597113350 2.759968872 -1.372690707

