12

C 3.706103834 2.540146235 -0.555348745
C 3.285672841 0.316616847 0.836784561
C 1.247895462 -1.067135826 0.109525408
N -0.163679441 -3.107828901 0.514065448
C -1.059905526 -1.251426415 -1.395491595
C -3.141811922 0.402411056 -0.804374189
C -4.907889940 1.724018989 -0.311746758
H 5.355179364 3.516274835 0.276631867
H 4.388110811 -0.408967479 2.423818909
H -1.046797781 -3.518519244 2.156914123
H -0.979134757 -1.957474412 -3.315034801
H -6.456382417 2.934618249 0.118273574

