15

C -2.971272076 -3.864548393 -0.893420635
C -0.963103833 -2.879017517 0.929720328
C 2.171551281 3.271105982 0.439481945
C 1.998981585 5.956437966 0.137391083
O 3.705828198 4.734570780 1.906365314
C 1.650302549 0.933431750 0.025261689
C 1.075038793 -1.422789274 -0.411495744
H -4.399318342 -4.964632671 0.108005842
H -2.135850234 -5.080257302 -2.337762066
H -3.919501553 -2.304937183 -1.854567676
H -1.821645812 -1.679567490 2.370753207
H -0.090532413 -4.476751022 1.913602984
H 2.922063513 6.866798806 -1.451984901
H 0.454220581 6.983996408 1.012069622
H 2.116932564 -2.438822597 -1.868629638

