9

C 2.832079101 -1.142971669 0.453408244
N 0.407633654 -0.922607550 0.858424155
C -1.558267293 -0.755778408 -0.745885522
C -3.994597115 -0.528366669 0.261697494
N -5.993041413 -0.339427259 1.123107945
H -1.205474455 -0.802651779 -2.750150422
H -0.109452125 -0.864015155 2.703369817
H 3.525037136 -1.215974133 -1.462268790
H 4.076044292 -1.245109703 2.059385717

