14

C -1.644522916 -2.417546568 0.934940753
C -1.584563796 0.361452621 0.344031671
C 0.422438921 1.934640360 1.514835377
C 2.377440438 1.074977717 2.818321801
H 2.675458222 -0.923564167 3.152901817
H 3.765860470 2.357519758 3.601158347
H 0.183709857 3.954836880 1.235446267
C -2.719236203 1.279924638 -2.013271883
H -3.539518920 -0.078083276 -3.318476521
H -2.030660387 3.017037803 -2.866386777
O -4.003595651 1.571354194 0.309164164
H 0.057077666 -3.353619796 0.240112872
H -1.776214075 -2.723688757 2.970394166
H -3.282689663 -3.287394627 0.041909666

