14

N 3.198387506 1.613528101 2.597546458
C 1.057961565 0.224881472 2.830208953
O -0.267248565 0.291135081 4.696166102
C 0.377257138 -1.413621419 0.571629643
C -1.951576955 -0.331428709 -0.676953358
C -1.915221100 1.626022422 -2.666010102
O -2.439716646 -1.669510802 -3.051368420
H 3.654097626 2.807798313 4.001451246
H 4.221436343 1.624713049 1.004844141
H -0.019377592 -3.306137384 1.291624367
H 1.903835065 -1.533114075 -0.810906897
H -3.581871140 -0.369792663 0.579334888
H 0.040962724 1.672441106 -3.388279943
H -4.222872913 -1.602644506 -3.403110797

