9

N -0.157715957 0.976446565 2.289938975
C -1.850956201 0.808643175 0.285122615
N -1.181574144 -0.587891889 -1.531541898
C 1.288595892 -1.523684398 -0.831352335
O 2.111388996 -0.052910328 1.295861152
H 0.240524247 2.766005753 2.846062791
H -3.652901826 1.773051731 0.422882648
H 1.155430237 -3.525930032 -0.301384672
H 2.667585056 -1.290741128 -2.347336250

