13

C -4.343557664 -1.353805843 -0.723574338
C -2.596059433 0.447404017 0.663596679
C 0.163932230 0.159426801 -0.042146543
O 0.846264447 -1.235643139 -1.708808262
C 2.026227902 1.702425353 1.474255040
H 2.223068011 0.860007991 3.350406694
H 1.358318698 3.635856723 1.739744874
H 3.859841028 1.702696604 0.545374884
H -3.108855495 2.419482120 0.289925448
H -2.753175609 0.229867627 2.716516547
H -6.305862896 -1.029518692 -0.181680311
H -4.179243672 -1.109770712 -2.762058418
H -3.867936728 -3.314197388 -0.303209183

