15

C -4.198701917 0.507431961 1.263525481
C -2.158320684 -0.569853905 -0.455624326
C 0.471197086 0.163171690 0.400489676
O 2.260099992 -0.910745550 -1.243105516
C 4.751010017 -0.302045225 -0.585447717
H -4.128296523 2.570842776 1.314474897
H -6.078449343 -0.036313941 0.615775365
H -3.985845377 -0.173958096 3.201328411
H -2.426857891 0.091281350 -2.394167972
H -2.279527983 -2.631303940 -0.511085539
H 0.805315405 -0.496131777 2.347210243
H 0.671659574 2.235735904 0.418477979
H 5.997906570 -1.230292928 -1.935054362
H 5.080370327 1.746265657 -0.663644622
H 5.218440728 -0.964083977 1.325870891

