15

C -4.016986080 0.784201136 1.192971177
C -2.269726351 -0.783222844 -0.480455818
C 0.378119193 0.171449560 -0.418477639
O 2.174534383 -1.442176069 -0.827184185
C 4.598825043 -0.890834885 -0.683907267
H -4.005453025 2.770006852 0.628442898
H -5.960056508 0.108727452 1.060104004
H -3.426978756 0.687130535 3.166330154
H -2.992885233 -0.758436950 -2.426056250
H -2.268914392 -2.757972433 0.120910309
H 2.246556362 0.779758125 2.801435397
H 0.792696513 2.154224797 -0.760996868
H 5.182873985 0.996938623 -1.222309420
H 3.696188837 0.376714484 2.586102655
H 5.809192793 -2.495710591 -1.026229699

