13

C -2.867260473 -1.295699675 0.032138005
C -0.525070646 0.143617938 0.577094485
C 0.173946758 2.787155360 0.170557288
C 1.746858729 0.872562934 -1.291642811
C 2.748551506 -0.867270983 0.466288787
O 4.333910555 -2.376712988 -0.453515354
O 1.200366450 -1.051532584 2.450268536
H -4.129376936 -1.262177445 1.664001646
H -2.422859722 -3.257152641 -0.419306813
H -3.831660506 -0.441557979 -1.573249873
H 1.029619509 3.835465394 1.713712857
H -1.132245262 3.868276161 -0.977374515
H 3.711825981 -0.973899120 -2.317950102

