12

N 3.596628371 -1.504256974 0.887887102
C 0.698966230 0.362001265 -2.008348618
N 1.388429102 -1.503103485 -0.627717394
C -1.189107575 -1.728108961 0.219269798
C -2.527408668 0.499709973 0.928787049
C -2.054462886 2.668889856 -0.384950496
N -0.259858394 2.468988787 -2.374667416
H 4.458780048 0.202206478 0.737773702
H 4.767405357 -2.866460419 0.233045032
H -2.010262551 -3.598287834 0.140796143
H -4.043103304 0.409425794 2.300313571
H -2.832912660 4.522543282 -0.039918480

