14

C -2.250187584 0.598316128 -0.292891392
C -0.044574009 1.599414227 -1.770029870
C 1.670725443 3.190741712 -0.865406655
C 2.323179636 -1.269585455 2.272768848
C 0.285708846 -2.851316494 1.526883326
C -1.888641101 -2.128533404 0.451809876
H -2.441294813 1.716962770 1.443488975
H -3.992935157 0.816213286 -1.375862405
H 0.166692401 0.870832871 -3.680357336
H 1.539513878 3.947699706 1.032988531
H 3.268714382 3.782442986 -1.999922026
H 4.081522702 -1.905316856 1.348860335
H 0.606554370 -4.859450269 1.909097745
H -3.328705533 -3.510203202 0.001510571

