11

N 3.643623271 -0.294848544 0.534968635
C 1.127682613 -0.321828447 0.015746313
C -0.740327629 1.452416911 0.379085712
C -3.109202675 0.073173673 -0.570737163
C -2.474381668 -2.360698712 -1.302561667
O 0.165318060 -2.445291716 -0.879068846
H 4.669210765 -1.645869951 -0.322594032
H 4.485299728 1.398125514 0.683683542
H -0.549290888 3.409347989 0.902183447
H -4.947181201 0.944630928 -0.672598862
H -2.278065542 0.233661876 1.745792602

