14

C -2.667441286 -1.917857551 -0.885825769
C -0.766212474 1.766010177 -1.268157748
C -0.088878242 2.487930457 1.327255380
C 1.907455970 1.353620026 -0.393833343
C 2.929729036 -1.117037124 0.400061937
O 4.935292330 -1.951054143 -0.257997013
H -2.808490822 -1.909596651 1.153780978
H -4.532028648 -2.065696458 -1.750736220
H -1.378768993 -3.331129938 -1.621787356
H -2.276580444 0.192915828 -2.020933003
H -0.588455159 1.333770947 2.947008295
H -0.062552467 4.498822532 1.719565150
H 3.278241323 2.535924020 -1.355282664
H 1.704803913 -2.200933139 1.714673027

