14

O 4.097729466 -0.542883375 0.317020511
C 2.224069661 0.222925265 -1.372990267
C -0.312454952 0.540385818 0.011081033
C -1.169860355 -1.815501424 1.567610685
N -0.253721584 1.220244195 2.494463126
C -2.431743268 1.668141790 -1.581017687
O -4.549927416 0.875288260 -1.676567285
H 3.613477396 0.179079594 1.932653616
H 2.692675744 2.043280073 -2.258532653
H 2.064562565 -1.182827656 -2.878759796
H 0.251252279 -3.278629057 1.349553373
H -3.123736332 -2.201675594 1.068830646
H -1.214401880 -1.312222212 3.641012047
H -1.880462593 3.389574878 -2.640641549

