17

C 3.537926939 -1.029594357 0.161197550
C 1.056374591 0.183081637 0.934906001
C 0.221879491 2.449126140 -0.689655266
C -2.614633475 2.297984049 -0.595776261
C -3.416678766 0.122445655 0.361553797
C -1.245263017 -1.624522905 0.943518220
O -1.111633566 -3.624464263 -0.847178376
H 3.443894564 -1.763915643 -1.763494252
H 5.079762893 0.339564831 0.251122284
H 4.013529903 -2.609398499 1.398987796
H 1.230194322 0.872124990 2.877899045
H 0.899697455 2.301314597 -2.642613516
H 0.947195759 4.238558547 0.041420831
H -3.833791229 3.799791485 -1.268782416
H -5.371926760 -0.445762696 0.568915240
H -1.424932243 -2.579816821 2.763297927
H -1.411596880 -2.926516709 -2.495318605

