11

C 2.350752781 1.184263640 -0.741430398
C 2.697281252 -0.991039200 0.639800832
C 0.208576272 -1.074251873 1.520375903
C -1.751731898 -2.084091203 -0.206765348
C -1.979009183 -0.041914522 -1.645050112
N -0.209710561 1.997921203 -0.994396015
N -0.702675025 1.029136797 2.685719945
H 3.724536109 2.412194107 -1.635577954
H -2.652517590 -3.904402093 -0.314581045
H -3.181985118 0.304886089 -3.259101856
H 0.786433488 2.070075936 3.331886415

