14

C -3.459981670 0.519377052 -1.161554877
C -0.877101206 0.259863496 -0.080552694
C 1.079854892 1.842134922 -0.180007827
C 3.190971408 0.813716334 1.296902013
O 2.443488350 -1.416559679 2.210502977
C -0.037046078 -2.037658100 1.333339674
H -3.841156494 -0.998790819 -2.510613236
H -3.679389739 2.318338365 -2.137055199
H -4.904320625 0.395297862 0.309847527
H 1.148071662 3.651847151 -1.124753821
H 5.319230424 0.815540978 0.248342422
H 5.180071786 0.104218944 -1.403060024
H -1.190787787 -2.470407499 2.990240788
H 0.042852167 -3.725884220 0.128462297

