11

C -2.790797241 0.515673321 0.397896783
O -0.603152259 0.203493873 1.885492363
C 1.329794718 -1.116272560 0.669068514
C 2.535423394 0.091133686 -3.637103281
C 2.718674180 0.535281535 -1.247310100
H -2.384151706 1.555903227 -1.345673822
H -4.135901820 1.585179072 1.527418213
H -3.619906792 -1.317844185 -0.098442864
H 2.675568582 -1.690793200 2.118434915
H 0.610170475 -2.821372764 -0.259813324
H 3.822329492 2.136480477 -0.582509061

