11

C -3.534685076 0.435322242 0.387325258
O -1.102262150 1.123814570 -0.419797235
C 0.698836141 -0.735326204 0.165816381
C 3.197681996 0.062646500 -0.687192934
C 5.264227394 0.675424797 -1.366385504
H -4.173552535 -1.316303793 -0.523276729
H -4.808052194 1.963525750 -0.136225594
H -3.607681209 0.172405289 2.444466680
H 0.757266851 -1.077605759 2.215095181
H 0.210793639 -2.539127578 -0.744021250
H 7.097427143 1.235224187 -1.975986793

