11

C -3.058485525 0.429177628 0.292695730
O -0.728026438 0.359455918 1.604700018
C 1.147246513 -0.983746407 0.440506177
C 1.673593631 0.192593214 -2.604900157
C 3.591533896 0.853608037 -1.411349572
H -2.862843692 1.417785034 -1.507636503
H -4.380616610 1.423641069 1.513102177
H -3.757954668 -1.485690604 -0.066844224
H 2.675384410 -1.191641206 1.817227462
H 0.598568312 -2.880202697 -0.153008328
H 5.259653066 1.541886316 -0.497032553

