13

C 3.251125378 0.852537866 -0.526254767
C 1.090004158 0.427948777 1.397620787
C -0.814292152 -1.153314083 0.148096211
O -4.596392002 -0.322267449 0.984488918
C -2.784738741 -0.150272344 -1.373982014
N -3.079335119 0.543394394 -3.499758194
H 4.680536914 2.053173828 0.342592984
H 4.137920766 -0.925661650 -1.072747651
H 2.527439320 1.772110345 -2.219329566
H 0.261544332 2.241743891 1.915053632
H 1.826695784 -0.511754502 3.078140000
H -0.561264004 -3.196070702 0.151592053
H -5.808558733 -1.651236641 0.672805768

