14

C 2.717833460 1.775878384 0.110392490
C 1.010369455 -0.404186264 0.897391158
O 0.021988003 -0.063640099 3.354530020
C -1.106367296 -0.911151992 -1.005686789
C -3.087629789 1.111430931 -1.198430350
O -3.275277779 2.899561599 0.196627628
H 1.658861194 3.540975426 -0.017117442
H 3.595337367 1.407681972 -1.721933563
H 4.211924010 2.020692101 1.507387173
H 2.154445914 -2.120728268 1.014778016
H -2.118031081 -2.645434046 -0.488319007
H -4.479215490 0.849811690 -2.744243762
H -0.353005564 -1.248958905 -2.904088476
H -1.031662926 1.420013701 3.301501811

