12

O 3.316493518 2.138264360 1.672778555
C 2.504940392 -0.006205728 1.180629243
C 1.357369791 -0.453892940 -1.802502093
C -0.941109046 -0.406053333 -0.493087050
C -3.206970510 0.842913283 0.292883795
O -2.920027447 -1.898062047 -0.144155905
H 3.525909623 -1.804808503 1.457997480
H 1.860239972 -2.244539042 -2.662771451
H 1.877134785 1.221373231 -2.853710154
H 0.585503010 -0.623184130 2.290957537
H -3.452055970 1.369775106 2.254759134
H -4.373212172 1.786228508 -1.101108793

