10

N -3.487181254 -0.373149176 -0.343845344
C -1.048818692 0.466372786 -0.127467923
N 0.653531715 -1.578631379 -0.275259926
C 2.911370762 -1.337900037 0.150310914
N 5.106240243 -1.376955404 0.762061672
N -0.262161214 2.721688879 0.083752435
H -4.892334697 0.806791376 0.129573475
H -3.794874833 -2.228107061 -0.096461316
H 6.495265044 -0.900119620 -0.450149922
H -1.709318696 3.977910323 0.148911817

