10

N -3.284787939 -0.437957862 -0.416033657
C -0.799416795 0.150163477 -0.087318424
N 0.784548468 -1.988162639 -0.263466561
C 3.000780055 -1.085313139 -0.003586190
N 4.419709375 0.727152289 0.325439619
N 0.179331721 2.324277888 0.284850759
H -4.603204219 0.812842354 0.117608825
H -3.739290051 -2.277657135 -0.328912615
H 5.060615130 -1.993871974 0.007784235
H -1.013963978 3.809907964 0.366925911

