14

C -3.499647380 0.693338380 0.631445559
C -0.854343518 0.085156539 -0.215129105
C -0.014549172 -2.315415904 -0.375300062
O 3.323630693 -5.109887698 -1.343928830
C 2.480641575 -2.987638880 -1.332557970
C 0.560210765 2.292217664 -0.999075525
N 2.226674081 3.101532409 0.607833186
H -4.466159278 -1.005234313 1.274267648
H -4.562440427 1.532388439 -0.923632084
H -3.481135604 2.072678996 2.168828166
H -1.248231852 -3.874374742 0.123913216
H 3.611947077 -1.403366121 -2.115455252
H 2.613015076 2.235326306 2.282994307
H 3.277595547 4.640232836 0.207166366

