14

C -3.030028726 0.683547501 1.018843043
C -0.974847989 -1.091718876 0.091963276
C -1.231420811 -3.685810310 -0.369217317
O 4.151552759 -3.440472856 -1.827635979
C 3.800111510 -1.300936710 -1.268872442
C 1.387401186 -0.022886889 -0.331242987
N 1.826654229 2.434615368 0.064541801
H -4.787856332 -0.355823278 1.257706750
H -3.402389715 2.223019918 -0.319541727
H -2.564621836 1.541227387 2.848471039
H -3.214891505 -4.192437229 0.065827136
H 5.373188700 0.102109329 -1.403595307
H 0.452942842 3.587363459 0.684258340
H 3.541881890 3.188308047 -0.250504230

