14

C -2.159179376 1.109586274 2.209155186
N -1.451900713 -0.544542044 -2.029903854
C 0.033558380 -2.411642893 -2.328907754
C 2.315705807 -2.328106208 -0.715984158
C 2.122313351 -0.222368419 0.636550107
C -0.359901591 1.052972820 -0.031265859
O -0.067170485 3.556780888 -0.865107663
H -3.962862018 1.876611576 1.582303853
H -1.387186589 2.314691326 3.690943732
H -2.448068196 -0.789112459 2.954448827
H -0.386201155 -3.898199351 -3.681570955
H 3.811649214 -3.718166768 -0.694419190
H 3.425393635 0.514504053 2.026201389
H 0.725175919 3.516975489 -2.497922138

