11

N 4.566448252 -0.076285938 0.166695198
C 2.534575606 0.618201716 -0.522297530
C 0.368780601 2.272089095 -0.801509988
C -1.797307594 1.189242709 -0.144365741
C -1.605423764 -1.595956218 0.464256198
O 0.752199985 -2.371069566 -0.389206840
H 3.034599538 -1.990913324 0.479615571
H 0.663339639 4.243172124 -1.240310763
H -3.566122522 2.209766513 -0.006451128
H -3.114430678 -2.642391511 -0.494814392
H -1.875126327 -1.867154253 2.509083824

