13

C 3.767876146 0.687742768 -0.364379391
C 1.279749611 0.363729004 -0.184600618
C -0.059761625 -2.122220471 0.337004384
N -2.664443141 -1.370244797 0.905124843
C -2.926877628 1.134728192 0.189440735
C -0.727059050 2.244449242 -0.392280404
H 0.782448169 -3.152706835 1.911423582
H 4.566656103 2.532709407 -0.744073369
H 5.074029030 -0.871679242 -0.136096016
H 0.006359609 -3.331915989 -1.341981713
H -4.045045924 -2.569695958 0.385720295
H -4.782062488 1.993004060 0.238349739
H -0.453382657 4.217275279 -0.825476534

