13

C 3.643986249 0.143907293 -0.246362196
C 0.992729466 0.481352664 -0.522764613
C -0.149545159 -1.917225986 -0.084173201
N -2.645394834 -1.362008785 0.707825474
C -3.048050307 1.153773778 0.347574662
C -0.923814480 2.357731955 -0.527517898
H 2.370999136 -2.499314507 0.485577449
H 5.010770769 1.216138709 -1.348516575
H 4.264989579 -0.203778182 1.674116500
H -0.044945775 -3.282474309 -1.617582149
H -4.026881026 -2.625103862 0.994635746
H -4.832043779 1.992631010 0.886584967
H -0.721530883 4.372794391 -0.751833983

