10

C 3.622836208 1.854232854 -0.652219716
O 2.476249133 -0.303544742 -0.346006453
C 1.162957224 -1.634916588 -1.896092801
C 0.119182967 -4.074373037 -0.993937946
H 0.950360332 -5.695637053 -1.978032781
H -1.927722338 -4.182408283 -1.271002239
H 0.501290692 -4.293994570 1.018957107
H 0.923912859 -0.918276581 -3.802709109
H 4.571326070 2.563819817 0.997284424
H 3.529836851 2.792343282 -2.464303475

