16

C -2.859173862 2.800499416 -1.473769418
C -1.231063879 0.594135601 -1.002788365
C -0.719739006 -1.556005537 -0.017836652
C -1.301443157 -3.786452626 1.540640854
C 1.446416142 -0.306250660 -1.386113583
C 3.531576798 0.870256864 0.078758796
N 3.203913254 1.807870691 2.258722514
H -4.724612301 2.540234655 -0.639379934
H -3.076456159 3.131790666 -3.499043330
H -1.998744066 4.485128764 -0.650072911
H -0.973262415 -5.526399720 0.481096209
H -3.260372753 -3.756017982 2.177567847
H -0.071826279 -3.816930469 3.197397365
H 2.021622413 -1.016982230 -3.235219648
H 5.381962528 0.874216993 -0.861503785
H 4.846712778 2.521194323 2.951121057

