16

C -2.709237058 2.959015974 -0.848724398
C -1.274257160 0.779523837 -0.062401667
C -0.469789448 -1.470883844 0.305874718
C -1.694967360 -3.891667361 1.103293864
C 2.180034847 -1.300716123 -0.531069638
C 3.680092396 0.835221379 -0.103163116
N 2.740054126 3.070070359 0.274579492
H -4.673788268 2.467807330 -1.275592233
H -1.843512362 3.655166323 -2.590027200
H -2.592857254 4.487486046 0.526721756
H -1.353666362 -5.342548322 -0.323216621
H -3.726209745 -3.675710442 1.362836901
H -0.852201022 -4.541459535 2.869992752
H 2.856437709 -2.825600912 -1.727944158
H 5.724202417 0.508441661 -0.069051008
H 4.033633811 4.243803425 1.082104214

