10

C -3.346811245 -0.444642069 -1.126924379
C -1.662238664 0.285734432 1.022637746
O -0.827072521 2.726022323 0.992236229
H -1.487518517 3.583398720 -0.459475380
C -0.960861408 -1.242838857 2.880964427
H 0.268114853 -0.584210286 4.374969674
H -1.612568044 -3.176092669 2.923465142
H -5.044111226 0.735631754 -1.156764459
H -3.931273111 -2.409301466 -0.969366498
H -2.370032825 -0.202416370 -2.932965702

