10

O 4.637206345 -1.290993954 -0.152591492
C 2.601513522 -1.147400582 -1.599068899
N 0.472412445 -1.811804950 -0.718502521
C -1.735790867 -1.158305682 -0.059912671
C -2.412709398 1.517847525 0.386162926
N -0.992901960 3.410509358 0.064821404
H 4.235425211 -1.807031501 1.560803287
H -3.196067981 -2.593383108 0.080061705
H -4.358249283 1.845729880 0.982861052
H 0.777759230 2.885113812 -0.511710093

