10

O 4.320333081 -0.542663769 -0.595104671
C 1.919654775 -0.539965845 -1.234981262
N 0.280859619 -2.106428881 -0.403766008
C -1.990575328 -1.290088700 0.221356320
C -2.280036735 1.351783533 0.173226885
N -0.355761409 2.864353243 -0.132546373
H 4.628985299 -1.682432466 0.804137973
H -3.541755543 -2.611770843 0.374579736
H -4.164813043 2.136769057 -0.070708582
H 1.210051088 2.379530210 0.863106764

