9

C 4.682450546 1.091215529 -1.496163787
C 2.545720852 1.478144077 -0.846910469
C 0.066390501 1.994197007 -0.087585196
C -2.186591762 1.262322047 0.491214577
H -3.513892457 -0.257272285 0.734301841
C -1.761286070 4.051396443 0.633039921
H -2.519279067 5.273544651 -0.838331887
H -1.570355153 4.959719288 2.469342884
H 6.577122442 0.735591749 -2.070065429

