24

C    -3.52662   1.47264  -0.40867
N    -2.75726   0.21673  -0.28836
C    -2.75968  -0.74645   1.50963
C    -1.35179  -0.85034   1.72769
C    -0.55395  -0.04073   0.26589
C     0.87778  -0.06308  -0.11180
C     1.80405  -0.55457   0.82666
C     3.16953  -0.61425   0.53687
C     3.65031  -0.17213  -0.69825
C     2.74778   0.33736  -1.64298
C     1.37894   0.39077  -1.36215
N    -1.47398   0.43693  -0.51684
H    -3.44024   2.02161  -1.40800
H    -3.16275   2.20817   0.34974
H    -4.57354   1.27656  -0.25142
H    -3.35920  -1.65783   1.21182
H    -3.38808  -0.02524   2.09567
H    -0.93218  -1.89732   1.72851
H    -0.95963  -0.27788   2.62307
H     1.42085  -0.87769   1.77415
H     3.85231  -1.01441   1.28709
H     4.73424  -0.23475  -0.91254
H     3.16406   0.67999  -2.62352
H     0.72649   0.79914  -2.14454
24

C    -3.52518   1.47802  -0.41192
N    -2.75840   0.22216  -0.30773
C    -2.76479  -0.75807   1.52902
C    -1.36425  -0.86304   1.75134
C    -0.54786  -0.03049   0.25249
C     0.88181  -0.05899  -0.11710
C     1.80403  -0.55241   0.82434
C     3.16961  -0.61425   0.53642
C     3.65230  -0.17281  -0.69832
C     2.75269   0.33718  -1.64525
C     1.38404   0.39275  -1.36672
N    -1.47850   0.43198  -0.50896
H    -3.44078   2.02622  -1.40734
H    -3.16166   2.20721   0.35059
H    -4.57305   1.27785  -0.25220
H    -3.36010  -1.65891   1.21284
H    -3.38930  -0.02601   2.09636
H    -0.93295  -1.89813   1.73026
H    -0.96089  -0.27806   2.62451
H     1.41996  -0.87661   1.77327
H     3.85198  -1.01458   1.28717
H     4.73490  -0.23527  -0.91203
H     3.16617   0.67961  -2.62400
H     0.72826   0.79990  -2.14602
24

C    -3.52375   1.48340  -0.41517
N    -2.75954   0.22759  -0.32709
C    -2.76990  -0.76970   1.54841
C    -1.37671  -0.87574   1.77499
C    -0.54178  -0.02025   0.23908
C     0.88585  -0.05491  -0.12239
C     1.80401  -0.55025   0.82203
C     3.16968  -0.61425   0.53598
C     3.65429  -0.17350  -0.69838
C     2.75760   0.33700  -1.64752
C     1.38915   0.39473  -1.37129
N    -1.48302   0.42702  -0.50109
H    -3.44132   2.03082  -1.40668
H    -3.16057   2.20624   0.35143
H    -4.57256   1.27914  -0.25299
H    -3.36100  -1.65999   1.21387
H    -3.39052  -0.02679   2.09706
H    -0.93371  -1.89893   1.73201
H    -0.96216  -0.27825   2.62596
H     1.41908  -0.87553   1.77239
H     3.85166  -1.01475   1.28726
H     4.73556  -0.23579  -0.91151
H     3.16829   0.67922  -2.62448
H     0.73003   0.80066  -2.14749
24

C    -3.52231   1.48878  -0.41842
N    -2.76067   0.23302  -0.34646
C    -2.77501  -0.78132   1.56779
C    -1.38917  -0.88845   1.79864
C    -0.53570  -0.01001   0.22568
C     0.88989  -0.05082  -0.12768
C     1.80399  -0.54809   0.81971
C     3.16975  -0.61425   0.53553
C     3.65629  -0.17419  -0.69845
C     2.76251   0.33681  -1.64978
C     1.39425   0.39671  -1.37586
N    -1.48754   0.42207  -0.49321
H    -3.44187   2.03542  -1.40601
H    -3.15948   2.20528   0.35227
H    -4.57207   1.28043  -0.25377
H    -3.36190  -1.66107   1.21489
H    -3.39174  -0.02756   2.09775
H    -0.93448  -1.89974   1.73376
H    -0.96342  -0.27843   2.62740
H     1.41819  -0.87445   1.77152
H     3.85133  -1.01493   1.28734
H     4.73622  -0.23631  -0.91099
H     3.17040   0.67884  -2.62496
H     0.73181   0.80143  -2.14896
24

C    -3.52088   1.49416  -0.42167
N    -2.76181   0.23845  -0.36582
C    -2.78012  -0.79294   1.58718
C    -1.40162  -0.90115   1.82229
C    -0.52962   0.00024   0.21228
C     0.89393  -0.04673  -0.13298
C     1.80397  -0.54593   0.81740
C     3.16983  -0.61425   0.53508
C     3.65828  -0.17487  -0.69851
C     2.76742   0.33663  -1.65205
C     1.39936   0.39869  -1.38043
N    -1.49206   0.41712  -0.48534
H    -3.44241   2.04002  -1.40535
H    -3.15840   2.20431   0.35311
H    -4.57158   1.28171  -0.25456
H    -3.36280  -1.66215   1.21592
H    -3.39297  -0.02834   2.09845
H    -0.93524  -1.90054   1.73551
H    -0.96469  -0.27862   2.62885
H     1.41730  -0.87336   1.77064
H     3.85100  -1.01510   1.28742
H     4.73688  -0.23684  -0.91047
H     3.17251   0.67845  -2.62544
H     0.73358   0.80219  -2.15044
24

C    -3.51944   1.49954  -0.42492
N    -2.76295   0.24388  -0.38518
C    -2.78523  -0.80456   1.60657
C    -1.41408  -0.91385   1.84594
C    -0.52353   0.01048   0.19887
C     0.89796  -0.04265  -0.13827
C     1.80394  -0.54377   0.81508
C     3.16990  -0.61425   0.53463
C     3.66027  -0.17556  -0.69858
C     2.77233   0.33645  -1.65432
C     1.40446   0.40067  -1.38500
N    -1.49658   0.41216  -0.47746
H    -3.44295   2.04463  -1.40469
H    -3.15731   2.20335   0.35395
H    -4.57109   1.28300  -0.25534
H    -3.36370  -1.66323   1.21694
H    -3.39419  -0.02911   2.09914
H    -0.93600  -1.90135   1.73726
H    -0.96595  -0.27880   2.63030
H     1.41642  -0.87228   1.76976
H     3.85067  -1.01527   1.28750
H     4.73754  -0.23736  -0.90996
H     3.17463   0.67807  -2.62592
H     0.73535   0.80295  -2.15191
24

C    -3.51801   1.50493  -0.42817
N    -2.76409   0.24931  -0.40455
C    -2.79034  -0.81618   1.62595
C    -1.42654  -0.92655   1.86959
C    -0.51745   0.02072   0.18547
C     0.90200  -0.03856  -0.14356
C     1.80392  -0.54161   0.81277
C     3.16997  -0.61425   0.53418
C     3.66226  -0.17624  -0.69865
C     2.77724   0.33627  -1.65659
C     1.40957   0.40265  -1.38957
N    -1.50110   0.40721  -0.46959
H    -3.44349   2.04923  -1.40402
H    -3.15622   2.20238   0.35479
H    -4.57060   1.28429  -0.25612
H    -3.36460  -1.66431   1.21796
H    -3.39541  -0.02989   2.09984
H    -0.93677  -1.90215   1.73901
H    -0.96721  -0.27898   2.63174
H     1.41553  -0.87120   1.76888
H     3.85035  -1.01545   1.28759
H     4.73821  -0.23788  -0.90944
H     3.17674   0.67768  -2.62640
H     0.73712   0.80371  -2.15338
24

C    -3.51657   1.51031  -0.43142
N    -2.76523   0.25474  -0.42391
C    -2.79545  -0.82781   1.64534
C    -1.43900  -0.93925   1.89324
C    -0.51137   0.03096   0.17207
C     0.90604  -0.03447  -0.14886
C     1.80390  -0.53945   0.81045
C     3.17004  -0.61426   0.53373
C     3.66426  -0.17693  -0.69871
C     2.78215   0.33608  -1.65885
C     1.41467   0.40463  -1.39414
N    -1.50561   0.40226  -0.46171
H    -3.44403   2.05383  -1.40336
H    -3.15513   2.20142   0.35563
H    -4.57011   1.28558  -0.25691
H    -3.36550  -1.66539   1.21899
H    -3.39663  -0.03066   2.10053
H    -0.93753  -1.90296   1.74076
H    -0.96848  -0.27917   2.63319
H     1.41465  -0.87012   1.76800
H     3.85002  -1.01562   1.28767
H     4.73887  -0.23840  -0.90892
H     3.17885   0.67730  -2.62688
H     0.73889   0.80447  -2.15486
24

C    -3.51513   1.51569  -0.43467
N    -2.76636   0.26017  -0.44327
C    -2.80056  -0.83943   1.66472
C    -1.45146  -0.95195   1.91689
C    -0.50528   0.04121   0.15866
C     0.91008  -0.03038  -0.15415
C     1.80388  -0.53729   0.80814
C     3.17012  -0.61426   0.53328
C     3.66625  -0.17762  -0.69878
C     2.78706   0.33590  -1.66112
C     1.41977   0.40661  -1.39871
N    -1.51013   0.39731  -0.45384
H    -3.44457   2.05843  -1.40270
H    -3.15404   2.20045   0.35648
H    -4.56963   1.28687  -0.25769
H    -3.36640  -1.66647   1.22001
H    -3.39785  -0.03144   2.10123
H    -0.93830  -1.90376   1.74251
H    -0.96974  -0.27935   2.63463
H     1.41376  -0.86904   1.76712
H     3.84969  -1.01580   1.28775
H     4.73953  -0.23892  -0.90841
H     3.18096   0.67691  -2.62736
H     0.74066   0.80523  -2.15633
24

C    -3.51370   1.52107  -0.43792
N    -2.76750   0.26560  -0.46264
C    -2.80567  -0.85105   1.68411
C    -1.46392  -0.96465   1.94054
C    -0.49920   0.05145   0.14526
C     0.91412  -0.02630  -0.15944
C     1.80386  -0.53513   0.80583
C     3.17019  -0.61426   0.53283
C     3.66824  -0.17830  -0.69884
C     2.79197   0.33572  -1.66339
C     1.42488   0.40859  -1.40328
N    -1.51465   0.39235  -0.44596
H    -3.44511   2.06304  -1.40203
H    -3.15295   2.19949   0.35732
H    -4.56914   1.28816  -0.25848
H    -3.36730  -1.66756   1.22104
H    -3.39908  -0.03221   2.10192
H    -0.93906  -1.90457   1.74426
H    -0.97100  -0.27953   2.63608
H     1.41288  -0.86796   1.76625
H     3.84936  -1.01597   1.28783
H     4.74019  -0.23945  -0.90789
H     3.18308   0.67653  -2.62784
H     0.74243   0.80599  -2.15780
24

C    -3.51226   1.52645  -0.44117
N    -2.76864   0.27103  -0.48200
C    -2.81078  -0.86267   1.70350
C    -1.47638  -0.97735   1.96419
C    -0.49312   0.06169   0.13186
C     0.91815  -0.02221  -0.16474
C     1.80384  -0.53297   0.80351
C     3.17026  -0.61426   0.53238
C     3.67023  -0.17899  -0.69891
C     2.79688   0.33554  -1.66566
C     1.42998   0.41057  -1.40785
N    -1.51917   0.38740  -0.43809
H    -3.44566   2.06764  -1.40137
H    -3.15186   2.19852   0.35816
H    -4.56865   1.28945  -0.25926
H    -3.36820  -1.66864   1.22206
H    -3.40030  -0.03299   2.10262
H    -0.93983  -1.90537   1.74601
H    -0.97227  -0.27972   2.63752
H     1.41199  -0.86688   1.76537
H     3.84903  -1.01614   1.28792
H     4.74085  -0.23997  -0.90737
H     3.18519   0.67614  -2.62832
H     0.74420   0.80676  -2.15928
24

C    -3.51083   1.53184  -0.44442
N    -2.76978   0.27646  -0.50137
C    -2.81589  -0.87429   1.72288
C    -1.48883  -0.99005   1.98784
C    -0.48703   0.07193   0.11845
C     0.92219  -0.01812  -0.17003
C     1.80382  -0.53080   0.80120
C     3.17034  -0.61426   0.53194
C     3.67223  -0.17967  -0.69897
C     2.80179   0.33536  -1.66792
C     1.43509   0.41256  -1.41242
N    -1.52369   0.38245  -0.43021
H    -3.44620   2.07224  -1.40071
H    -3.15077   2.19756   0.35900
H    -4.56816   1.29074  -0.26005
H    -3.36910  -1.66972   1.22308
H    -3.40152  -0.03376   2.10331
H    -0.94059  -1.90618   1.74776
H    -0.97353  -0.27990   2.63897
H     1.41111  -0.86579   1.76449
H     3.84871  -1.01632   1.28800
H     4.74151  -0.24049  -0.90686
H     3.18730   0.67576  -2.62880
H     0.74597   0.80752  -2.16075
24

C    -3.50939   1.53722  -0.44767
N    -2.77092   0.28189  -0.52073
C    -2.82100  -0.88592   1.74227
C    -1.50129  -1.00275   2.01149
C    -0.48095   0.08218   0.10505
C     0.92623  -0.01404  -0.17532
C     1.80379  -0.52864   0.79888
C     3.17041  -0.61426   0.53149
C     3.67422  -0.18036  -0.69904
C     2.80670   0.33517  -1.67019
C     1.44019   0.41454  -1.41699
N    -1.52821   0.37749  -0.42234
H    -3.44674   2.07684  -1.40004
H    -3.14968   2.19659   0.35984
H    -4.56767   1.29203  -0.26083
H    -3.37000  -1.67080   1.22411
H    -3.40274  -0.03453   2.10401
H    -0.94136  -1.90698   1.74951
H    -0.97480  -0.28009   2.64041
H     1.41022  -0.86471   1.76361
H     3.84838  -1.01649   1.28808
H     4.74217  -0.24101  -0.90634
H     3.18941   0.67537  -2.62928
H     0.74774   0.80828  -2.16222
24

C    -3.50796   1.54260  -0.45092
N    -2.77205   0.28732  -0.54009
C    -2.82612  -0.89754   1.76166
C    -1.51375  -1.01545   2.03514
C    -0.47487   0.09242   0.09165
C     0.93027  -0.00995  -0.18062
C     1.80377  -0.52648   0.79657
C     3.17048  -0.61426   0.53104
C     3.67621  -0.18105  -0.69911
C     2.81161   0.33499  -1.67246
C     1.44530   0.41652  -1.42156
N    -1.53273   0.37254  -0.41447
H    -3.44728   2.08144  -1.39938
H    -3.14860   2.19563   0.36068
H    -4.56718   1.29332  -0.26161
H    -3.37090  -1.67188   1.22513
H    -3.40396  -0.03531   2.10470
H    -0.94212  -1.90779   1.75126
H    -0.97606  -0.28027   2.64186
H     1.40934  -0.86363   1.76273
H     3.84805  -1.01666   1.28816
H     4.74284  -0.24154  -0.90582
H     3.19153   0.67499  -2.62976
H     0.74951   0.80904  -2.16370
24

C    -3.50652   1.54798  -0.45417
N    -2.77319   0.29276  -0.55946
C    -2.83123  -0.90916   1.78104
C    -1.52621  -1.02815   2.05878
C    -0.46878   0.10266   0.07824
C     0.93430  -0.00586  -0.18591
C     1.80375  -0.52432   0.79425
C     3.17056  -0.61426   0.53059
C     3.67821  -0.18173  -0.69917
C     2.81652   0.33481  -1.67473
C     1.45040   0.41850  -1.42613
N    -1.53725   0.36759  -0.40659
H    -3.44782   2.08605  -1.39872
H    -3.14751   2.19466   0.36152
H    -4.56669   1.29460  -0.26240
H    -3.37180  -1.67296   1.22616
H    -3.40518  -0.03608   2.10540
H    -0.94289  -1.90859   1.75300
H    -0.97732  -0.28045   2.64330
H     1.40845  -0.86255   1.76186
H     3.84772  -1.01684   1.28825
H     4.74350  -0.24206  -0.90531
H     3.19364   0.67460  -2.63024
H     0.75128   0.80980  -2.16517
24

C    -3.50508   1.55336  -0.45742
N    -2.77433   0.29819  -0.57882
C    -2.83634  -0.92078   1.80043
C    -1.53867  -1.04086   2.08243
C    -0.46270   0.11290   0.06484
C     0.93834  -0.00178  -0.19120
C     1.80373  -0.52216   0.79194
C     3.17063  -0.61426   0.53014
C     3.68020  -0.18242  -0.69924
C     2.82143   0.33463  -1.67699
C     1.45550   0.42048  -1.43070
N    -1.54177   0.36263  -0.39872
H    -3.44836   2.09065  -1.39805
H    -3.14642   2.19370   0.36237
H    -4.56620   1.29589  -0.26318
H    -3.37270  -1.67404   1.22718
H    -3.40641  -0.03686   2.10609
H    -0.94365  -1.90940   1.75475
H    -0.97859  -0.28064   2.64475
H     1.40756  -0.86147   1.76098
H     3.84739  -1.01701   1.28833
H     4.74416  -0.24258  -0.90479
H     3.19575   0.67422  -2.63073
H     0.75305   0.81056  -2.16664
24

C    -3.50365   1.55874  -0.46066
N    -2.77547   0.30362  -0.59819
C    -2.84145  -0.93240   1.81982
C    -1.55113  -1.05356   2.10608
C    -0.45662   0.12315   0.05144
C     0.94238   0.00231  -0.19649
C     1.80371  -0.52000   0.78962
C     3.17070  -0.61426   0.52969
C     3.68219  -0.18311  -0.69930
C     2.82634   0.33444  -1.67926
C     1.46061   0.42246  -1.43527
N    -1.54628   0.35768  -0.39084
H    -3.44891   2.09525  -1.39739
H    -3.14533   2.19273   0.36321
H    -4.56571   1.29718  -0.26397
H    -3.37360  -1.67512   1.22820
H    -3.40763  -0.03763   2.10679
H    -0.94441  -1.91020   1.75650
H    -0.97985  -0.28082   2.64619
H     1.40668  -0.86039   1.76010
H     3.84707  -1.01718   1.28841
H     4.74482  -0.24310  -0.90427
H     3.19787   0.67384  -2.63121
H     0.75483   0.81132  -2.16812
24

C    -3.50221   1.56413  -0.46391
N    -2.77660   0.30905  -0.61755
C    -2.84656  -0.94402   1.83920
C    -1.56359  -1.06626   2.12973
C    -0.45053   0.13339   0.03803
C     0.94642   0.00640  -0.20179
C     1.80369  -0.51784   0.78731
C     3.17077  -0.61427   0.52924
C     3.68418  -0.18379  -0.69937
C     2.83124   0.33426  -1.68153
C     1.46571   0.42444  -1.43984
N    -1.55080   0.35273  -0.38297
H    -3.44945   2.09985  -1.39673
H    -3.14424   2.19177   0.36405
H    -4.56522   1.29847  -0.26475
H    -3.37450  -1.67620   1.22923
H    -3.40885  -0.03841   2.10748
H    -0.94518  -1.91101   1.75825
H    -0.98112  -0.28100   2.64764
H     1.40579  -0.85931   1.75922
H     3.84674  -1.01736   1.28849
H     4.74548  -0.24363  -0.90376
H     3.19998   0.67345  -2.63169
H     0.75660   0.81209  -2.16959
24

C    -3.50078   1.56951  -0.46716
N    -2.77774   0.31448  -0.63691
C    -2.85167  -0.95565   1.85859
C    -1.57605  -1.07896   2.15338
C    -0.44445   0.14363   0.02463
C     0.95045   0.01048  -0.20708
C     1.80366  -0.51568   0.78499
C     3.17085  -0.61427   0.52879
C     3.68618  -0.18448  -0.69944
C     2.83615   0.33408  -1.68380
C     1.47082   0.42642  -1.44441
N    -1.55532   0.34777  -0.37509
H    -3.44999   2.10446  -1.39606
H    -3.14315   2.19080   0.36489
H    -4.56473   1.29976  -0.26554
H    -3.37541  -1.67728   1.23025
H    -3.41007  -0.03918   2.10818
H    -0.94594  -1.91181   1.76000
H    -0.98238  -0.28119   2.64909
H     1.40491  -0.85822   1.75834
H     3.84641  -1.01753   1.28858
H     4.74614  -0.24415  -0.90324
H     3.20209   0.67307  -2.63217
H     0.75837   0.81285  -2.17106
24

C    -3.49934   1.57489  -0.47041
N    -2.77888   0.31991  -0.65628
C    -2.85678  -0.96727   1.87798
C    -1.58850  -1.09166   2.17703
C    -0.43837   0.15387   0.01123
C     0.95449   0.01457  -0.21237
C     1.80364  -0.51352   0.78268
C     3.17092  -0.61427   0.52834
C     3.68817  -0.18516  -0.69950
C     2.84106   0.33390  -1.68606
C     1.47592   0.42840  -1.44899
N    -1.55984   0.34282  -0.36722
H    -3.45053   2.10906  -1.39540
H    -3.14206   2.18984   0.36573
H    -4.56424   1.30105  -0.26632
H    -3.37631  -1.67837   1.23128
H    -3.41129  -0.03996   2.10887
H    -0.94671  -1.91262   1.76175
H    -0.98364  -0.28137   2.65053
H     1.40402  -0.85714   1.75746
H     3.84608  -1.01770   1.28866
H     4.74680  -0.24467  -0.90272
H     3.20420   0.67268  -2.63265
H     0.76014   0.81361  -2.17254
24

C    -3.49791   1.58027  -0.47366
N    -2.78002   0.32534  -0.67564
C    -2.86189  -0.97889   1.89736
C    -1.60096  -1.10436   2.20068
C    -0.43228   0.16412  -0.00218
C     0.95853   0.01866  -0.21767
C     1.80362  -0.51136   0.78036
C     3.17099  -0.61427   0.52789
C     3.69016  -0.18585  -0.69957
C     2.84597   0.33371  -1.68833
C     1.48103   0.43038  -1.45356
N    -1.56436   0.33787  -0.35934
H    -3.45107   2.11366  -1.39474
H    -3.14097   2.18887   0.36657
H    -4.56375   1.30234  -0.26710
H    -3.37721  -1.67945   1.23230
H    -3.41252  -0.04073   2.10957
H    -0.94747  -1.91342   1.76350
H    -0.98491  -0.28156   2.65198
H     1.40314  -0.85606   1.75659
H     3.84575  -1.01788   1.28874
H     4.74747  -0.24519  -0.90221
H     3.20632   0.67230  -2.63313
H     0.76191   0.81437  -2.17401
24

C    -3.49934   1.57489  -0.47041
N    -2.77888   0.31991  -0.65628
C    -2.85678  -0.96727   1.87798
C    -1.58850  -1.09166   2.17703
C    -0.43837   0.15387   0.01123
C     0.95449   0.01457  -0.21237
C     1.80364  -0.51352   0.78268
C     3.17092  -0.61427   0.52834
C     3.68817  -0.18516  -0.69950
C     2.84106   0.33390  -1.68606
C     1.47592   0.42840  -1.44899
N    -1.55984   0.34282  -0.36722
H    -3.45053   2.10906  -1.39540
H    -3.14206   2.18984   0.36573
H    -4.56424   1.30105  -0.26632
H    -3.37631  -1.67837   1.23128
H    -3.41129  -0.03996   2.10887
H    -0.94671  -1.91262   1.76175
H    -0.98364  -0.28137   2.65053
H     1.40402  -0.85714   1.75746
H     3.84608  -1.01770   1.28866
H     4.74680  -0.24467  -0.90272
H     3.20420   0.67268  -2.63265
H     0.76014   0.81361  -2.17254
24

C    -3.50078   1.56951  -0.46716
N    -2.77774   0.31448  -0.63691
C    -2.85167  -0.95565   1.85859
C    -1.57605  -1.07896   2.15338
C    -0.44445   0.14363   0.02463
C     0.95045   0.01048  -0.20708
C     1.80366  -0.51568   0.78499
C     3.17085  -0.61427   0.52879
C     3.68618  -0.18448  -0.69944
C     2.83615   0.33408  -1.68380
C     1.47082   0.42642  -1.44441
N    -1.55532   0.34777  -0.37509
H    -3.44999   2.10446  -1.39606
H    -3.14315   2.19080   0.36489
H    -4.56473   1.29976  -0.26554
H    -3.37541  -1.67728   1.23025
H    -3.41007  -0.03918   2.10818
H    -0.94594  -1.91181   1.76000
H    -0.98238  -0.28119   2.64909
H     1.40491  -0.85822   1.75834
H     3.84641  -1.01753   1.28858
H     4.74614  -0.24415  -0.90324
H     3.20209   0.67307  -2.63217
H     0.75837   0.81285  -2.17106
24

C    -3.50221   1.56413  -0.46391
N    -2.77660   0.30905  -0.61755
C    -2.84656  -0.94402   1.83920
C    -1.56359  -1.06626   2.12973
C    -0.45053   0.13339   0.03803
C     0.94642   0.00640  -0.20179
C     1.80369  -0.51784   0.78731
C     3.17077  -0.61427   0.52924
C     3.68418  -0.18379  -0.69937
C     2.83124   0.33426  -1.68153
C     1.46571   0.42444  -1.43984
N    -1.55080   0.35273  -0.38297
H    -3.44945   2.09985  -1.39673
H    -3.14424   2.19177   0.36405
H    -4.56522   1.29847  -0.26475
H    -3.37450  -1.67620   1.22923
H    -3.40885  -0.03841   2.10748
H    -0.94518  -1.91101   1.75825
H    -0.98112  -0.28100   2.64764
H     1.40579  -0.85931   1.75922
H     3.84674  -1.01736   1.28849
H     4.74548  -0.24363  -0.90376
H     3.19998   0.67345  -2.63169
H     0.75660   0.81209  -2.16959
24

C    -3.50365   1.55874  -0.46066
N    -2.77547   0.30362  -0.59819
C    -2.84145  -0.93240   1.81982
C    -1.55113  -1.05356   2.10608
C    -0.45662   0.12315   0.05144
C     0.94238   0.00231  -0.19649
C     1.80371  -0.52000   0.78962
C     3.17070  -0.61426   0.52969
C     3.68219  -0.18311  -0.69930
C     2.82634   0.33444  -1.67926
C     1.46061   0.42246  -1.43527
N    -1.54628   0.35768  -0.39084
H    -3.44891   2.09525  -1.39739
H    -3.14533   2.19273   0.36321
H    -4.56571   1.29718  -0.26397
H    -3.37360  -1.67512   1.22820
H    -3.40763  -0.03763   2.10679
H    -0.94441  -1.91020   1.75650
H    -0.97985  -0.28082   2.64619
H     1.40668  -0.86039   1.76010
H     3.84707  -1.01718   1.28841
H     4.74482  -0.24310  -0.90427
H     3.19787   0.67384  -2.63121
H     0.75483   0.81132  -2.16812
24

C    -3.50508   1.55336  -0.45742
N    -2.77433   0.29819  -0.57882
C    -2.83634  -0.92078   1.80043
C    -1.53867  -1.04086   2.08243
C    -0.46270   0.11290   0.06484
C     0.93834  -0.00178  -0.19120
C     1.80373  -0.52216   0.79194
C     3.17063  -0.61426   0.53014
C     3.68020  -0.18242  -0.69924
C     2.82143   0.33463  -1.67699
C     1.45550   0.42048  -1.43070
N    -1.54177   0.36263  -0.39872
H    -3.44836   2.09065  -1.39805
H    -3.14642   2.19370   0.36237
H    -4.56620   1.29589  -0.26318
H    -3.37270  -1.67404   1.22718
H    -3.40641  -0.03686   2.10609
H    -0.94365  -1.90940   1.75475
H    -0.97859  -0.28064   2.64475
H     1.40756  -0.86147   1.76098
H     3.84739  -1.01701   1.28833
H     4.74416  -0.24258  -0.90479
H     3.19575   0.67422  -2.63073
H     0.75305   0.81056  -2.16664
24

C    -3.50652   1.54798  -0.45417
N    -2.77319   0.29276  -0.55946
C    -2.83123  -0.90916   1.78104
C    -1.52621  -1.02815   2.05878
C    -0.46878   0.10266   0.07824
C     0.93430  -0.00586  -0.18591
C     1.80375  -0.52432   0.79425
C     3.17056  -0.61426   0.53059
C     3.67821  -0.18173  -0.69917
C     2.81652   0.33481  -1.67473
C     1.45040   0.41850  -1.42613
N    -1.53725   0.36759  -0.40659
H    -3.44782   2.08605  -1.39872
H    -3.14751   2.19466   0.36152
H    -4.56669   1.29460  -0.26240
H    -3.37180  -1.67296   1.22616
H    -3.40518  -0.03608   2.10540
H    -0.94289  -1.90859   1.75300
H    -0.97732  -0.28045   2.64330
H     1.40845  -0.86255   1.76186
H     3.84772  -1.01684   1.28825
H     4.74350  -0.24206  -0.90531
H     3.19364   0.67460  -2.63024
H     0.75128   0.80980  -2.16517
24

C    -3.50796   1.54260  -0.45092
N    -2.77205   0.28732  -0.54009
C    -2.82612  -0.89754   1.76166
C    -1.51375  -1.01545   2.03514
C    -0.47487   0.09242   0.09165
C     0.93027  -0.00995  -0.18062
C     1.80377  -0.52648   0.79657
C     3.17048  -0.61426   0.53104
C     3.67621  -0.18105  -0.69911
C     2.81161   0.33499  -1.67246
C     1.44530   0.41652  -1.42156
N    -1.53273   0.37254  -0.41447
H    -3.44728   2.08144  -1.39938
H    -3.14860   2.19563   0.36068
H    -4.56718   1.29332  -0.26161
H    -3.37090  -1.67188   1.22513
H    -3.40396  -0.03531   2.10470
H    -0.94212  -1.90779   1.75126
H    -0.97606  -0.28027   2.64186
H     1.40934  -0.86363   1.76273
H     3.84805  -1.01666   1.28816
H     4.74284  -0.24154  -0.90582
H     3.19153   0.67499  -2.62976
H     0.74951   0.80904  -2.16370
24

C    -3.50939   1.53722  -0.44767
N    -2.77092   0.28189  -0.52073
C    -2.82100  -0.88592   1.74227
C    -1.50129  -1.00275   2.01149
C    -0.48095   0.08218   0.10505
C     0.92623  -0.01404  -0.17532
C     1.80379  -0.52864   0.79888
C     3.17041  -0.61426   0.53149
C     3.67422  -0.18036  -0.69904
C     2.80670   0.33517  -1.67019
C     1.44019   0.41454  -1.41699
N    -1.52821   0.37749  -0.42234
H    -3.44674   2.07684  -1.40004
H    -3.14968   2.19659   0.35984
H    -4.56767   1.29203  -0.26083
H    -3.37000  -1.67080   1.22411
H    -3.40274  -0.03453   2.10401
H    -0.94136  -1.90698   1.74951
H    -0.97480  -0.28009   2.64041
H     1.41022  -0.86471   1.76361
H     3.84838  -1.01649   1.28808
H     4.74217  -0.24101  -0.90634
H     3.18941   0.67537  -2.62928
H     0.74774   0.80828  -2.16222
24

C    -3.51083   1.53184  -0.44442
N    -2.76978   0.27646  -0.50137
C    -2.81589  -0.87429   1.72288
C    -1.48883  -0.99005   1.98784
C    -0.48703   0.07193   0.11845
C     0.92219  -0.01812  -0.17003
C     1.80382  -0.53080   0.80120
C     3.17034  -0.61426   0.53194
C     3.67223  -0.17967  -0.69897
C     2.80179   0.33536  -1.66792
C     1.43509   0.41256  -1.41242
N    -1.52369   0.38245  -0.43021
H    -3.44620   2.07224  -1.40071
H    -3.15077   2.19756   0.35900
H    -4.56816   1.29074  -0.26005
H    -3.36910  -1.66972   1.22308
H    -3.40152  -0.03376   2.10331
H    -0.94059  -1.90618   1.74776
H    -0.97353  -0.27990   2.63897
H     1.41111  -0.86579   1.76449
H     3.84871  -1.01632   1.28800
H     4.74151  -0.24049  -0.90686
H     3.18730   0.67576  -2.62880
H     0.74597   0.80752  -2.16075
24

C    -3.51226   1.52645  -0.44117
N    -2.76864   0.27103  -0.48200
C    -2.81078  -0.86267   1.70350
C    -1.47638  -0.97735   1.96419
C    -0.49312   0.06169   0.13186
C     0.91815  -0.02221  -0.16474
C     1.80384  -0.53297   0.80351
C     3.17026  -0.61426   0.53238
C     3.67023  -0.17899  -0.69891
C     2.79688   0.33554  -1.66566
C     1.42998   0.41057  -1.40785
N    -1.51917   0.38740  -0.43809
H    -3.44566   2.06764  -1.40137
H    -3.15186   2.19852   0.35816
H    -4.56865   1.28945  -0.25926
H    -3.36820  -1.66864   1.22206
H    -3.40030  -0.03299   2.10262
H    -0.93983  -1.90537   1.74601
H    -0.97227  -0.27972   2.63752
H     1.41199  -0.86688   1.76537
H     3.84903  -1.01614   1.28792
H     4.74085  -0.23997  -0.90737
H     3.18519   0.67614  -2.62832
H     0.74420   0.80676  -2.15928
24

C    -3.51370   1.52107  -0.43792
N    -2.76750   0.26560  -0.46264
C    -2.80567  -0.85105   1.68411
C    -1.46392  -0.96465   1.94054
C    -0.49920   0.05145   0.14526
C     0.91412  -0.02630  -0.15944
C     1.80386  -0.53513   0.80583
C     3.17019  -0.61426   0.53283
C     3.66824  -0.17830  -0.69884
C     2.79197   0.33572  -1.66339
C     1.42488   0.40859  -1.40328
N    -1.51465   0.39235  -0.44596
H    -3.44511   2.06304  -1.40203
H    -3.15295   2.19949   0.35732
H    -4.56914   1.28816  -0.25848
H    -3.36730  -1.66756   1.22104
H    -3.39908  -0.03221   2.10192
H    -0.93906  -1.90457   1.74426
H    -0.97100  -0.27953   2.63608
H     1.41288  -0.86796   1.76625
H     3.84936  -1.01597   1.28783
H     4.74019  -0.23945  -0.90789
H     3.18308   0.67653  -2.62784
H     0.74243   0.80599  -2.15780
24

C    -3.51513   1.51569  -0.43467
N    -2.76636   0.26017  -0.44327
C    -2.80056  -0.83943   1.66472
C    -1.45146  -0.95195   1.91689
C    -0.50528   0.04121   0.15866
C     0.91008  -0.03038  -0.15415
C     1.80388  -0.53729   0.80814
C     3.17012  -0.61426   0.53328
C     3.66625  -0.17762  -0.69878
C     2.78706   0.33590  -1.66112
C     1.41977   0.40661  -1.39871
N    -1.51013   0.39731  -0.45384
H    -3.44457   2.05843  -1.40270
H    -3.15404   2.20045   0.35648
H    -4.56963   1.28687  -0.25769
H    -3.36640  -1.66647   1.22001
H    -3.39785  -0.03144   2.10123
H    -0.93830  -1.90376   1.74251
H    -0.96974  -0.27935   2.63463
H     1.41376  -0.86904   1.76712
H     3.84969  -1.01580   1.28775
H     4.73953  -0.23892  -0.90841
H     3.18096   0.67691  -2.62736
H     0.74066   0.80523  -2.15633
24

C    -3.51657   1.51031  -0.43142
N    -2.76523   0.25474  -0.42391
C    -2.79545  -0.82781   1.64534
C    -1.43900  -0.93925   1.89324
C    -0.51137   0.03096   0.17207
C     0.90604  -0.03447  -0.14886
C     1.80390  -0.53945   0.81045
C     3.17004  -0.61426   0.53373
C     3.66426  -0.17693  -0.69871
C     2.78215   0.33608  -1.65885
C     1.41467   0.40463  -1.39414
N    -1.50561   0.40226  -0.46171
H    -3.44403   2.05383  -1.40336
H    -3.15513   2.20142   0.35563
H    -4.57011   1.28558  -0.25691
H    -3.36550  -1.66539   1.21899
H    -3.39663  -0.03066   2.10053
H    -0.93753  -1.90296   1.74076
H    -0.96848  -0.27917   2.63319
H     1.41465  -0.87012   1.76800
H     3.85002  -1.01562   1.28767
H     4.73887  -0.23840  -0.90892
H     3.17885   0.67730  -2.62688
H     0.73889   0.80447  -2.15486
24

C    -3.51801   1.50493  -0.42817
N    -2.76409   0.24931  -0.40455
C    -2.79034  -0.81618   1.62595
C    -1.42654  -0.92655   1.86959
C    -0.51745   0.02072   0.18547
C     0.90200  -0.03856  -0.14356
C     1.80392  -0.54161   0.81277
C     3.16997  -0.61425   0.53418
C     3.66226  -0.17624  -0.69865
C     2.77724   0.33627  -1.65659
C     1.40957   0.40265  -1.38957
N    -1.50110   0.40721  -0.46959
H    -3.44349   2.04923  -1.40402
H    -3.15622   2.20238   0.35479
H    -4.57060   1.28429  -0.25612
H    -3.36460  -1.66431   1.21796
H    -3.39541  -0.02989   2.09984
H    -0.93677  -1.90215   1.73901
H    -0.96721  -0.27898   2.63174
H     1.41553  -0.87120   1.76888
H     3.85035  -1.01545   1.28759
H     4.73821  -0.23788  -0.90944
H     3.17674   0.67768  -2.62640
H     0.73712   0.80371  -2.15338
24

C    -3.51944   1.49954  -0.42492
N    -2.76295   0.24388  -0.38518
C    -2.78523  -0.80456   1.60657
C    -1.41408  -0.91385   1.84594
C    -0.52353   0.01048   0.19887
C     0.89796  -0.04265  -0.13827
C     1.80394  -0.54377   0.81508
C     3.16990  -0.61425   0.53463
C     3.66027  -0.17556  -0.69858
C     2.77233   0.33645  -1.65432
C     1.40446   0.40067  -1.38500
N    -1.49658   0.41216  -0.47746
H    -3.44295   2.04463  -1.40469
H    -3.15731   2.20335   0.35395
H    -4.57109   1.28300  -0.25534
H    -3.36370  -1.66323   1.21694
H    -3.39419  -0.02911   2.09914
H    -0.93600  -1.90135   1.73726
H    -0.96595  -0.27880   2.63030
H     1.41642  -0.87228   1.76976
H     3.85067  -1.01527   1.28750
H     4.73754  -0.23736  -0.90996
H     3.17463   0.67807  -2.62592
H     0.73535   0.80295  -2.15191
24

C    -3.52088   1.49416  -0.42167
N    -2.76181   0.23845  -0.36582
C    -2.78012  -0.79294   1.58718
C    -1.40162  -0.90115   1.82229
C    -0.52962   0.00024   0.21228
C     0.89393  -0.04673  -0.13298
C     1.80397  -0.54593   0.81740
C     3.16983  -0.61425   0.53508
C     3.65828  -0.17487  -0.69851
C     2.76742   0.33663  -1.65205
C     1.39936   0.39869  -1.38043
N    -1.49206   0.41712  -0.48534
H    -3.44241   2.04002  -1.40535
H    -3.15840   2.20431   0.35311
H    -4.57158   1.28171  -0.25456
H    -3.36280  -1.66215   1.21592
H    -3.39297  -0.02834   2.09845
H    -0.93524  -1.90054   1.73551
H    -0.96469  -0.27862   2.62885
H     1.41730  -0.87336   1.77064
H     3.85100  -1.01510   1.28742
H     4.73688  -0.23684  -0.91047
H     3.17251   0.67845  -2.62544
H     0.73358   0.80219  -2.15044
24

C    -3.52231   1.48878  -0.41842
N    -2.76067   0.23302  -0.34646
C    -2.77501  -0.78132   1.56779
C    -1.38917  -0.88845   1.79864
C    -0.53570  -0.01001   0.22568
C     0.88989  -0.05082  -0.12768
C     1.80399  -0.54809   0.81971
C     3.16975  -0.61425   0.53553
C     3.65629  -0.17419  -0.69845
C     2.76251   0.33681  -1.64978
C     1.39425   0.39671  -1.37586
N    -1.48754   0.42207  -0.49321
H    -3.44187   2.03542  -1.40601
H    -3.15948   2.20528   0.35227
H    -4.57207   1.28043  -0.25377
H    -3.36190  -1.66107   1.21489
H    -3.39174  -0.02756   2.09775
H    -0.93448  -1.89974   1.73376
H    -0.96342  -0.27843   2.62740
H     1.41819  -0.87445   1.77152
H     3.85133  -1.01493   1.28734
H     4.73622  -0.23631  -0.91099
H     3.17040   0.67884  -2.62496
H     0.73181   0.80143  -2.14896
24

C    -3.52375   1.48340  -0.41517
N    -2.75954   0.22759  -0.32709
C    -2.76990  -0.76970   1.54841
C    -1.37671  -0.87574   1.77499
C    -0.54178  -0.02025   0.23908
C     0.88585  -0.05491  -0.12239
C     1.80401  -0.55025   0.82203
C     3.16968  -0.61425   0.53598
C     3.65429  -0.17350  -0.69838
C     2.75760   0.33700  -1.64752
C     1.38915   0.39473  -1.37129
N    -1.48302   0.42702  -0.50109
H    -3.44132   2.03082  -1.40668
H    -3.16057   2.20624   0.35143
H    -4.57256   1.27914  -0.25299
H    -3.36100  -1.65999   1.21387
H    -3.39052  -0.02679   2.09706
H    -0.93371  -1.89893   1.73201
H    -0.96216  -0.27825   2.62596
H     1.41908  -0.87553   1.77239
H     3.85166  -1.01475   1.28726
H     4.73556  -0.23579  -0.91151
H     3.16829   0.67922  -2.62448
H     0.73003   0.80066  -2.14749
24

C    -3.52518   1.47802  -0.41192
N    -2.75840   0.22216  -0.30773
C    -2.76479  -0.75807   1.52902
C    -1.36425  -0.86304   1.75134
C    -0.54786  -0.03049   0.25249
C     0.88181  -0.05899  -0.11710
C     1.80403  -0.55241   0.82434
C     3.16961  -0.61425   0.53642
C     3.65230  -0.17281  -0.69832
C     2.75269   0.33718  -1.64525
C     1.38404   0.39275  -1.36672
N    -1.47850   0.43198  -0.50896
H    -3.44078   2.02622  -1.40734
H    -3.16166   2.20721   0.35059
H    -4.57305   1.27785  -0.25220
H    -3.36010  -1.65891   1.21284
H    -3.38930  -0.02601   2.09636
H    -0.93295  -1.89813   1.73026
H    -0.96089  -0.27806   2.62451
H     1.41996  -0.87661   1.77327
H     3.85198  -1.01458   1.28717
H     4.73490  -0.23527  -0.91203
H     3.16617   0.67961  -2.62400
H     0.72826   0.79990  -2.14602
