16

C 4.133639308 -0.516697666 -0.228935860
C 1.371940807 -0.028705941 0.062954733
C 0.276838225 1.946947655 1.156862951
C -2.559179424 1.745041663 1.197591670
C -3.082784701 -0.450033496 -0.644458554
C -0.576186963 -1.910555423 -0.835067102
H 5.263301239 1.020419150 0.549483205
H 4.633252528 -0.747344882 -2.221175715
H 4.675654335 -2.267463404 0.727771627
H 1.292874326 3.509226667 2.009017694
H -3.498977208 3.491208374 0.621856465
H -3.227780117 1.320921433 3.111670885
H -4.658313735 -1.637525544 -0.048796319
H -3.567500284 0.317158745 -2.497898762
H -0.193406345 -2.582962100 -2.751622443
H -0.554092285 -3.586044128 0.384892406

