16

C 3.323500434 -0.516149910 0.767254091
C 0.859807585 0.320277246 -0.386250968
C 0.299705556 2.980230606 -0.926751984
C -1.460169645 0.965697879 1.287777206
C -3.041784844 -0.940019978 -0.227604794
C -0.746675843 -1.559758684 -1.924546294
H 3.978979606 0.837805618 2.179183299
H 4.772747291 -0.660867178 -0.695611418
H 3.156516712 -2.369166121 1.661563899
H 1.419025772 4.087822671 0.441308139
H -2.042664721 2.982405870 0.570021845
H -1.245758011 0.981391336 3.324707742
H -3.645436160 -2.525316855 0.937576297
H -4.687392822 -0.139605048 -1.170715267
H -0.941748718 -1.063407434 -3.911523224
H -0.122200595 -3.517145148 -1.759901789

