10

O 5.014616059 -0.765478145 1.545329151
C 2.721547584 -0.649696648 0.165308101
C 1.268693958 1.610069240 1.032293622
C 0.312554824 3.340480927 -0.496646538
H -0.771005878 4.922451886 0.219054199
H 0.578142735 3.239395716 -2.527666824
H 1.008156302 1.759596144 3.063652471
H 1.587592365 -2.355700915 0.506190959
H 3.072469064 -0.518198525 -1.874166573
H 5.829352524 -2.341843667 1.186708341

