10

O 4.122569519 2.173851795 4.284866361
C 3.175581970 1.329100508 2.490174714
N 2.296338495 0.646786470 0.515714177
C 0.868057638 -1.461393564 -0.413224824
C -1.917701479 -1.228208390 0.096081348
H -3.131613637 -2.574770459 -0.859822004
O -2.659042247 -0.765027937 2.696406819
C -3.080506825 1.099674491 1.198419049
H 1.596457600 -3.230681697 0.372139306
H 1.107160225 -1.555276726 -2.460214996

