15

C 1.910694204 0.981587622 0.367693310
C 2.132171505 -1.479180913 -1.189879358
C -0.646759635 -2.089931931 -0.531814209
C -0.994981944 0.676430906 0.340886486
O -2.189452562 2.215867966 -1.521975745
N -2.245100083 1.025527326 2.703554633
H -1.355648004 1.991797168 -3.118171939
H 2.637855866 2.719267951 -0.468350857
H 2.656527702 0.773117514 2.274993396
H 2.418793390 -1.127270955 -3.202276204
H 3.547644685 -2.839441644 -0.574753625
H -1.884959404 -2.709233241 -2.058384559
H -0.809869381 -3.389653547 1.056056154
H -2.174534894 2.871785800 3.205891533
H -4.093467718 0.556215903 2.531713899

