13

C 3.592976400 -0.642217754 0.680678065
C 1.340718866 1.033326358 0.079943692
N 0.336342961 0.473813393 -2.433433136
C -1.973572611 -0.057933485 -2.080720725
C -2.590436553 0.122389114 0.646358938
O -4.863053297 -0.318563133 1.663534392
N -0.666060183 0.756672891 1.921998792
H 3.015549795 -2.621842780 0.675448494
H 4.325848077 -0.174530570 2.545775975
H 5.069394779 -0.373302111 -0.728440213
H -3.258361688 -0.563596795 -3.601096723
H -6.050478354 -0.765821698 0.368239516
H 1.935965323 3.017128850 0.052416278

