12

C 2.038879940 1.233926833 -1.084540260
C 2.673955531 -0.848496403 0.148186805
C 0.244986476 -2.483280993 0.944945152
C -1.355859616 -0.625689000 2.018609679
C -0.729304630 1.939049942 -1.437129045
O -2.014752219 1.447280975 0.883990940
H 3.417075816 2.447608369 -1.994168491
H 0.641575871 -4.036539038 2.220951783
H -0.386571636 -3.179502018 -0.891470910
H -1.864062907 -0.608343979 4.008135736
H -1.561636542 0.753716887 -2.920096384
H -1.100871330 3.914735475 -1.873016769

