12

C 2.166658156 0.867681356 -0.529209222
C 2.817241633 -1.498214442 -0.014798237
C 0.255270365 -2.552346137 0.720812371
C -0.902125923 -0.031816525 1.357741235
C -1.115497111 1.683147236 -1.333065739
O -3.104314030 0.845942155 0.353467338
H 3.088878633 2.679693023 -0.726413954
H 0.275488583 -3.834753402 2.336410288
H -0.721455898 -3.492956106 -0.836770785
H -0.418135164 0.784391356 3.178587013
H -1.317273657 0.802314180 -3.171856961
H -1.004942577 3.727160220 -1.325467926

