11

C -2.781724155 0.184030374 1.475091943
C -0.659786349 1.661063481 0.278430471
O 1.575246369 0.071019536 0.131028753
C 2.169655129 -0.730830130 -2.077928050
C 4.400705155 -2.318953868 -1.888997295
N 6.135155318 -3.616365219 -2.104384235
H -2.242643382 -0.508673889 3.339040332
H -4.429932963 1.404074977 1.684624246
H -3.306359371 -1.419833025 0.291412719
H -0.089553403 3.271430656 1.428352118
H -1.095224545 2.270172553 -1.640187865

