8

N 2.805066695 -0.013341088 -0.018366796
C 0.407832888 -0.107411353 -0.645666750
N -1.323982393 -0.348446770 -2.409351430
O -3.585722913 -0.172730851 -1.004067615
N -3.156264698 0.149891489 1.425538316
N -0.812078130 0.190897903 1.659422991
H 4.186425841 -0.184499555 -1.310240248
H 1.352536249 0.304218959 2.456806592

