10

C -1.430249384 -2.361755409 -0.140069959
C -0.968190938 1.795549167 0.519502266
N 1.503113236 1.601657049 0.097378230
C 3.285880314 0.388966977 -0.397511884
O 0.695219130 -3.201316034 -0.625144287
H -2.255931086 -2.587694371 1.756690029
H -2.798594099 -1.985193973 -1.661880447
H -2.014504230 2.789143088 -0.933114427
H -1.480573377 2.191242397 2.462017304
H 5.289232968 0.425165418 -0.706293756

