14

C -3.255210021 2.027291648 -0.142106327
C -1.752419172 -0.429613399 -0.305818668
C 0.940979921 0.015630473 0.461393527
O 2.432323432 -2.779295611 0.130648200
C 2.699438355 1.299230628 -1.234950044
C 4.040987756 -0.732036040 -1.560671157
H -3.238363907 2.797885547 1.773101469
H -5.219893077 1.699868043 -0.670652558
H -2.459249233 3.446953841 -1.404433987
H -1.770720206 -1.151983338 -2.238835754
H -2.582461379 -1.870545631 0.919387438
H 1.157216387 0.433069122 2.472612601
H 3.340769318 -3.213612878 1.654396206
H 5.602317104 -1.651059460 -2.488963324

