12

C 5.132189603 -0.096646018 0.348763280
C 3.003509046 -0.094187163 -0.410419942
C 0.378921401 -0.176489932 -1.302368348
C -1.351758060 -1.028352674 0.808388308
C -3.146825233 0.381914519 1.819577355
O -0.247003513 2.212097584 -2.306529089
H 7.027107845 -0.074035029 1.022982564
H 0.297096713 -1.617262577 -2.798935346
H -1.887090505 2.078104135 -3.071619878
H -1.022620625 -2.943802261 1.467238071
H -3.460533357 2.313055881 1.215573870
H -4.335973626 -0.340777808 3.318740913

