12

C 4.755382730 0.341562762 0.713248062
C 2.718487929 0.062351589 -0.234342216
C 0.318069631 -0.561864124 -1.447495970
C -1.875640956 -1.700117770 0.017514133
C -2.175527548 0.883038896 1.183628295
O -1.371082550 1.833900402 -1.459390605
H 6.559384264 0.601744980 1.565252911
H 0.662115399 -1.171302783 -3.385076668
H -2.798786285 0.487785915 -2.094334501
H -1.668214205 -3.411313418 1.131825233
H -0.703991578 1.638037565 2.430523260
H -4.033022182 1.609299517 1.691368338

