19

C -3.343904581 -0.515792185 2.765251847
O -0.954825850 -1.105546191 1.943560302
C -0.289337894 -0.162092147 -0.215407424
C -1.683823588 3.971884289 0.824826147
C 2.434036658 -0.154468009 -0.881742808
C 3.234834352 -2.420969296 -2.488040306
O 3.136772003 -4.722522434 -1.154192655
H -4.828374762 -1.029111739 1.427007068
H -2.828970880 2.084986366 1.983533358
H -3.630103452 -1.233749293 4.663833701
H -1.705011349 -0.129724861 -1.706096939
H 0.177943509 4.416141080 1.584770173
H -3.030298786 5.317245531 1.636084835
H -1.688954516 4.280634981 -1.210365218
H 3.557047415 -0.097969619 0.848157670
H 2.812762869 1.579267706 -1.949120821
H 2.077464614 -2.501584635 -4.210208573
H 5.198040341 -2.186153931 -3.073108453
H 1.480283757 -4.928671882 -0.443691159

