16

C 3.165921822 2.089847819 -0.594058915
C 0.423288069 1.589873605 -0.747483266
N 2.372510936 -0.462763050 -1.213987747
C 1.626960179 -1.630567667 1.258917705
C -0.471032076 0.292226379 1.575824209
C -2.504728100 0.486243766 3.007187171
C -3.463257057 -1.357329256 -3.505783019
H 4.028336153 2.448458330 1.233409218
H 4.009524515 3.083768266 -2.171445985
H -0.752139929 2.368191173 -2.235741800
H 3.149028843 -1.642968219 2.653242205
H 0.939954877 -3.551997046 0.979042784
H -3.906855789 1.936467404 2.658695898
H -2.842289348 -0.811025345 4.554261390
H -1.682913855 -2.191673954 -4.227429156
H -3.990572055 -2.666658580 -1.958280985

