10

N -1.896774198 2.886473129 -1.896414961
C -0.689254209 1.098335336 -0.952901674
O 1.529464711 -0.001200505 -1.642769212
C 2.043065589 -1.404386252 0.589438063
O 1.816136977 -0.051364136 2.602660359
C -1.515003412 -0.543833756 1.206732691
O -0.714546020 -2.829525118 0.921384198
H -0.978333967 3.678191898 -3.387572883
H 3.535981428 -2.784222562 0.276057976
H -3.159625142 -0.102306390 2.359475284

