10

O 2.800253770 2.794375172 -1.065743400
C 1.418248527 -1.690059854 0.940167017
C -0.235355090 -0.137778344 -0.114999737
O 0.206334301 2.183016381 -1.158967842
C -2.980968298 -0.735559869 -0.366885093
O -3.929469159 -2.626430450 0.446209465
H 2.775569506 4.248869818 0.033378970
H 0.710286936 -3.463586209 1.663941439
H 3.403733197 -1.248656587 1.076667283
H -4.101765732 0.712655822 -1.375758300

