12

N 3.239424251 -0.567314302 0.192806357
C 0.952992872 0.035364335 -1.138768673
C -0.289761552 -2.250435063 -2.506127933
O -2.928462409 -1.228071328 -0.922386584
C -1.501464752 0.242236168 0.257414071
N -2.140450414 1.455168390 2.355152158
H 3.826880784 0.753047300 1.437915587
H 3.107695449 -2.293865524 0.997695326
H 1.237863756 1.725334975 -2.304351406
H -0.838644127 -1.683877011 -4.426834493
H -3.847029895 1.173415006 3.144808385
H -0.884572125 2.569589321 3.234355835

