12

O -0.333740770 1.754993697 -3.593423887
C 0.220592455 2.876086363 -1.382863519
C 0.937416464 -1.022552084 1.186441852
C -1.306502653 -2.646461773 1.123081961
O 0.410741686 -2.606941156 -0.946662308
C 0.809211132 1.742961698 0.788973110
H -0.217094969 -0.059640815 -3.344592215
H 0.157289086 4.918969782 -1.523594371
H 2.525569398 -1.690368522 2.307656896
H -1.331249486 -4.408292764 2.172959410
H -3.132345414 -1.784593007 0.757769537
H 1.249438007 2.926811771 2.397153569

