16

C 2.607159684 2.021638627 2.661432599
C 1.628280418 0.163614378 0.783724528
C 2.489579753 -1.987590959 -0.174725400
C 0.213660958 -3.009734635 -1.558486142
C -1.801477540 -1.693909945 -0.068351318
C -1.215606033 1.544787461 -0.526040246
N -3.536118962 -0.054439457 -1.100292960
H 2.702885121 3.945672521 1.906260982
H 4.508672144 1.415856417 3.168924919
H 1.472543836 2.070891900 4.388679146
H -0.024613059 -5.058558012 -1.427550232
H 0.158900078 -2.496478160 -3.559759739
H -2.128648545 -2.428552408 1.820578608
H -0.505289352 2.342548875 -2.272816507
H -1.686233027 2.919213447 0.910090514
H -4.936700364 0.359137159 0.141411513

