12

N -5.594222935 1.254139041 -1.957914322
C -4.027677489 1.360033983 -0.461657125
C -1.957963398 1.464275320 1.402770007
C -0.030741309 -0.576848518 1.102488066
C 3.559696905 -1.885333267 -1.431171306
N 1.799743225 -0.325016283 -0.599347012
H -1.106424498 3.346945793 1.273156659
H -2.806395323 1.362242638 3.280101532
H -0.287059660 -2.412321947 1.952934761
H 3.612002332 -3.794154602 -0.722210390
H 4.918502925 -1.180020128 -2.768007314
H 1.872727263 1.411493663 -1.407065071

