12

N -4.866169682 0.244014741 -2.319065418
C -3.591933989 0.701486198 -0.625316856
C -1.896089305 1.255211499 1.498337804
C 0.572921516 -0.133678791 1.284122268
C 2.494276762 -1.810692241 -1.644302574
N 2.262203843 0.475928980 -0.540707374
H -1.576182671 3.303720992 1.515684545
H -2.866718651 0.763039492 3.248700179
H 1.081354938 -1.536378576 2.670979817
H 0.835285233 -2.660545449 -2.469918060
H 4.335097965 -2.679516730 -1.931626909
H 3.165290484 2.122245529 -0.886400945

