15

C -3.047184925 -1.563727619 -0.428496986
C 0.479641176 1.984874270 -0.159578130
O -0.786478691 2.982838541 1.944841329
C -0.409928934 -0.667096849 -1.036267868
C 3.008791322 0.681963230 0.448738958
N 1.654278325 -1.750708573 0.500330030
H -3.482563198 -1.296524956 1.567931485
H -4.443727473 -0.528146534 -1.539571307
H -3.242665226 -3.573146917 -0.856999887
H 0.496831032 3.469686377 -1.582418465
H -0.741653159 1.745214440 3.273115781
H -0.049979174 -0.849982691 -3.074142076
H 3.911112794 1.223504672 2.225105873
H 4.373595238 0.876543076 -1.097750693
H 2.569293295 -3.253118926 -0.243049148

