10

C -3.348693204 0.432342881 0.169365287
H -4.813090790 -0.890550104 -0.439159029
H -4.109288959 1.787480225 1.526010311
O -2.165564080 1.611938425 -1.975818740
C 0.176973532 0.309258764 -1.505753354
H 0.998160596 -0.612901488 -3.147089813
C 1.770568329 1.968603406 0.306631062
O 0.734517912 0.848070043 2.297223775
C -0.893855480 -0.864302583 0.906709000
H -0.829726982 -2.793654752 1.602649646

