12

C -2.931779275 0.648412617 0.140286427
O -1.586109630 1.570738068 -2.039621903
C 0.523052702 -0.067998525 -1.553680701
C 2.412177931 1.307086200 0.163471420
O 1.173060266 0.524582511 2.278517414
C -0.683305880 -0.957026851 0.923123162
H -4.586922679 -0.451712933 -0.425039675
H -3.467564612 2.147407781 1.452172569
H 1.100578876 -1.187152445 -3.175200945
H 4.668399846 -1.082147999 -0.291044733
H 4.757951397 0.575268575 -0.033359316
H -0.882208323 -2.866868109 1.659281186

