14

O -2.678796442 0.534833103 -2.479854523
C -2.300522462 -0.425794791 0.005879637
C -0.370326624 -2.508575866 0.218457631
N 1.630859402 -0.476714331 1.119397600
C -0.558441528 1.244922356 1.629599125
C 3.276902414 0.234047966 -0.951042127
O 3.252034601 2.247971049 -1.941651849
H -4.140491606 1.609002225 -2.490273830
H -4.139371112 -0.833605663 0.862341311
H 2.629930279 -1.054233267 2.651513559
H 0.273140239 -3.335435812 -1.564525159
H -0.972655699 1.236708283 3.642132806
H -0.199294656 3.144795932 0.932134132
H 4.482636423 -1.361872725 -1.519876278

