16

C -0.779586633 2.756130309 -0.600920246
C -0.985579649 0.158780968 0.590016640
C 0.737712305 -1.866932569 -0.510602771
C 3.413987531 -1.380009012 -0.047462153
C 5.593719040 -0.937221936 0.364994988
C -2.968965646 -0.655780413 3.397996026
N -3.604037930 -0.735069088 0.787774835
H 1.183299407 3.378625124 -0.652910675
H -1.878576381 4.127292720 0.475836364
H -1.502558299 2.690497060 -2.533894794
H 0.388108588 -1.971154253 -2.545127156
H 0.206581761 -3.697162462 0.277150163
H 7.536559394 -0.562956688 0.728288468
H -1.955854388 -2.449219568 3.759858794
H -0.414770734 0.589725414 2.693145945
H -4.768954498 0.735584625 0.393415846

