12

O 1.856080439 4.445971125 0.596039311
C 0.918979767 2.408594841 0.543012140
N 2.378894261 0.114750728 0.200051132
C 0.874565836 -1.815923400 -0.238702381
C -1.861577671 -1.245677641 0.389883211
O -1.876101577 -0.122390871 2.899782130
C -1.773202909 1.513054103 0.786054598
H 4.282906053 0.109452143 0.298865667
H 1.637846438 -3.679537289 -0.596298090
H -0.914109395 -2.304284377 -3.311009514
H -2.216205641 -2.285296523 -2.235549482
H -3.300735905 2.831971841 0.450091661

