14

C -3.065221227 -1.973614072 0.144036891
C -0.437242298 -1.032151496 0.276455839
C 0.644848196 1.276267205 -0.450421192
N -0.817278638 3.356708742 -1.315207582
C 3.422756371 1.286902508 0.312644813
C 3.594425139 -1.129487131 1.209864931
O 1.336033762 -2.456456048 1.255004706
H -3.980466461 -1.865615260 1.993041288
H -4.135714019 -0.812230745 -1.175837087
H -3.110376611 -3.940826508 -0.467793179
H 0.349626734 4.650703789 -2.102976426
H -1.658979321 4.216340148 0.170003390
H 2.152922190 0.594522465 -1.990013115
H 5.144048693 -2.200010424 1.987178394

