16

C 4.624179631 -1.522455566 1.166605302
C 2.691045666 -0.184211334 -0.291510248
C 0.127717820 -0.506001930 0.663401565
C -1.747461192 1.522460460 -0.217126244
C -4.471633398 0.725854897 0.139435634
O -1.342996061 2.052343029 -2.787715607
H 6.271240468 -2.074080227 0.059342786
H 5.287064942 0.039621661 2.385390478
H 3.994015079 -3.051172701 2.421582739
H -1.393951808 3.226624153 0.923857056
H -0.314632597 -2.270510002 -0.391821144
H -0.064619090 -0.982903098 2.679434830
H -4.874021664 -0.955294445 -0.988942209
H -5.741875741 2.228457000 -0.471060875
H -4.863273242 0.307084426 2.122553290
H 0.470558472 1.954611950 -3.032008516

