16

C 2.372633541 -0.059374855 -3.509806869
N 1.437447842 0.256745297 -0.934947102
C 2.115678523 -1.442380235 1.288504788
C -0.442954544 -1.538159341 0.047216111
C -2.708798811 -0.539177206 1.432857244
O -4.651843105 -1.731512131 1.393030094
C -2.419362708 1.888907457 2.889050395
H 4.227080463 0.823085936 -3.661553162
H 1.076686426 0.788190329 -4.872081992
H 2.560200084 -2.071409572 -3.891209556
H 3.283527718 -2.941452708 0.466638387
H 1.189265821 2.083982997 -0.437428229
H -0.966229100 -2.956347057 -1.347186453
H -2.582874870 3.495866303 1.595547545
H -3.925884462 2.040906312 4.277955973
H -0.570829759 1.944634101 3.804262690

