16

C 2.188072835 -0.047903253 -3.678122583
N 1.107213440 0.571976653 -1.228504869
C 2.153839407 -1.251998662 1.271208106
C -0.377826663 -1.356404745 0.051259029
C -2.716414049 -0.530710288 1.468164263
O -4.557365095 -1.874136829 1.438222328
C -2.591027602 1.909842562 2.907878378
H 4.012046751 0.886901194 -3.876848601
H 0.928697703 0.640806469 -5.158286040
H 2.457924856 -2.084974423 -3.910153588
H 3.395203521 -2.630295790 0.350927130
H 2.383056666 1.227758427 0.344159549
H -0.793528786 -2.947123700 -1.180573817
H -2.244164196 3.471139577 1.603354911
H -4.353078652 2.211288215 3.919633588
H -0.998910779 1.846334573 4.218530171

