12

C -2.428556055 0.774229203 0.973551864
C -1.125194883 -1.475808262 -0.163611222
O -0.213689607 -1.052922799 -2.690522420
C 2.100287932 -1.401285760 -1.573695452
C 3.393660938 0.863039943 -0.592750488
O 3.778985978 1.437763294 1.582434547
H -2.961830418 0.372063093 2.923388967
H -1.210514222 2.430173699 0.964894424
H -4.131196043 1.188088143 -0.111980351
H -2.196202399 -3.233337008 -0.166016333
H 0.627922486 -2.051738789 1.001395939
H 4.346132680 1.852985880 -2.192681026

