14

O 4.345864056 2.477881214 -3.358275231
N 3.688462768 0.505928911 -1.763763520
C 1.372265500 -0.046850884 -1.951679813
C 0.281911913 -2.134791478 -0.400054718
C -1.770384024 -1.284668304 1.378164280
C -2.107634034 1.085681296 2.122732512
O -3.907299648 1.930341252 3.737370165
H 6.115528415 2.700953613 -3.034710087
H 1.817290239 -3.062028025 0.624996529
H -0.504224624 -3.548650398 -1.691906948
H -3.018900998 -2.747861019 2.102652433
H 0.151869220 1.002935102 -3.241176877
H -0.915330347 2.626037122 1.487701915
H -4.929372819 0.535389987 4.290677836

