16

C 4.011621261 0.505017723 -0.086507656
C 1.346715590 0.497167177 -0.069357238
C -0.688259986 1.006254727 1.787799853
C -2.118780565 2.242154302 -0.367930243
N -0.652637572 0.550581646 -2.145400117
C -1.727383741 -1.959119419 -1.457313021
C -0.800463760 -1.844914898 1.229763691
H 4.964102168 -0.256374910 -1.721752848
H 2.284150574 -1.649776752 0.667759614
H 5.032292746 1.658840898 1.252307065
H -0.439555815 1.684709057 3.703499318
H -4.166141199 2.027274206 -0.484132696
H -1.585958168 4.204883136 -0.679267914
H -0.838041852 -3.446967618 -2.571838700
H -3.766441220 -2.003771134 -1.788888713
H -0.883934702 -3.233235889 2.732412338

