11

O -4.107440315 2.627935220 -0.204959242
C -2.839788617 2.207347720 1.603152597
N -0.303117985 1.357967454 1.423042290
C 0.810341037 0.151413115 -1.158291376
C 2.001177579 -2.139415978 -0.529883023
C 3.122060712 -4.034170210 0.075395764
H -3.465040883 2.485812830 3.569295656
H 0.414582857 0.528815781 2.993080838
H -0.760867478 0.146720944 -2.468067451
H 1.051632097 2.568035229 0.507595253
H 4.149370390 -5.693743075 0.554587790

