12

N 5.369562108 2.002341481 0.313422624
C 3.698028089 0.633965736 0.483922653
C 1.533761155 -1.105255835 0.643029732
O 0.110677461 -0.639657912 2.878611755
C -2.684021837 -0.702825277 0.457031133
C -2.071928661 1.601561221 -0.937878691
C -0.472140967 -0.704266628 -1.343510067
H 2.264404693 -3.041420429 0.609773519
H -2.000067573 -1.548835046 2.529548708
H -3.340288364 1.954768003 -2.512231257
H -1.457291441 3.274214279 0.069814193
H -0.465669997 -1.648444986 -3.155217526

