10

C 2.548212569 0.150849164 -0.577052080
H 2.782238350 -1.262748275 -2.044445316
H 3.730287509 1.823516924 -0.708333886
O 2.185097253 -0.808659370 1.894959740
C 0.124082328 0.340832686 0.723827712
C -1.386217273 2.604049478 1.629621141
H -1.128628478 4.423050051 0.697866541
H -1.548542101 2.821658226 3.669370638
O -3.565866540 1.240724424 0.625328025
C -2.370470372 -0.867815111 -0.011731344

