14

C 3.952424343 -1.483600019 -2.762787342
C 3.001256379 -0.667790983 -0.878631790
C 1.851241210 0.370279948 1.408272474
C -0.480722572 2.003845608 0.905061613
C -2.793632850 0.644601606 -0.012261809
C -3.039075846 -1.811700712 -0.414355580
H 4.785721867 -2.216497717 -4.439632455
H 1.367560630 -1.177413628 2.689990840
H 3.269564608 1.510100725 2.384118428
H -0.966727571 2.996171712 2.655070477
H 0.006172601 3.481603406 -0.457965243
H -4.412353219 1.862160633 -0.359310900
H -4.812499910 -2.593433677 -1.071877319
H -1.499205131 -3.134322597 -0.142371910

