14

C 4.617214252 -1.242001160 -2.164741067
C 3.337307982 -0.565751914 -0.423489835
C 1.725516313 0.307054152 1.659456363
C -0.433780245 1.958285388 0.922028424
C -2.907007177 0.921319872 0.131999921
C -2.846212930 -1.667113685 -0.636434266
H 5.761290655 -1.848227682 -3.703260136
H 0.947580035 -1.377157604 2.602317488
H 2.929577083 1.351892136 2.982071124
H 0.033076084 3.874845189 0.349041826
H -3.017195274 2.010561997 -1.672928108
H -4.535609396 1.523604481 1.256010494
H -4.112731605 -3.075530383 0.135781887
H -1.355862035 -2.302256890 -1.881960541

