19

C -4.774849744 1.680651456 1.048993983
C -2.662838102 -0.173802647 0.432842846
C 1.182755242 -4.069640180 -3.227790983
O 1.688373066 -1.736756083 -2.789393023
C 2.082305790 -0.702494859 -0.254961301
C 4.652553245 0.545828286 -0.230830481
C -0.080152847 1.093412430 0.308570733
H -6.602760451 0.730176380 1.123075650
H -4.901152877 3.166400055 -0.379044894
H -4.466435518 2.592466345 2.876105185
H -2.616825198 -1.674798369 1.857401754
H 1.168779281 -5.068329880 -1.345796371
H -3.064531137 -1.095549540 -1.372621525
H 2.032341676 -2.324291267 1.035036106
H 6.133286190 -0.813538378 -0.682971474
H 5.035561991 1.328600468 1.637668426
H 4.726954654 2.078124733 -1.608349665
H -0.085109258 2.585540083 -1.125111792
H 0.330173629 2.014173547 2.115575854

