19

C -4.546605108 1.291960889 0.348703168
C -2.281870260 -0.442037403 0.678707685
C -0.740123539 -2.891702814 -2.234627258
O 1.364730746 -1.491311292 -2.513829361
C 2.374884508 -0.662471820 -0.156739384
C 4.790305304 0.786514614 -0.607719405
C 0.224544231 0.891343713 1.000132336
H -6.290184840 0.220888235 0.100618052
H -4.305171563 2.522396019 -1.290826638
H -4.778455171 2.496131018 2.012126067
H -2.629044243 -1.867568802 2.119710556
H -0.493503697 -4.278536345 -0.693608006
H -2.535299617 -1.521944470 -1.567182775
H 2.729328191 -2.337643958 1.021299782
H 6.207894033 -0.428062330 -1.478492996
H 5.547736806 1.502166653 1.171754201
H 4.438913187 2.383566098 -1.864097602
H 0.166580945 2.725294892 0.047306440
H 0.602805192 1.238165886 3.001015609

