9

C 2.094247026 -0.544555782 0.459478158
C -0.245270577 1.042046745 0.488158267
O -0.455470842 3.052035153 1.530334136
C -2.561655627 0.018080106 -0.926545777
O -2.556143730 -1.945380354 -2.048896622
H 3.608870527 0.418039072 1.459176234
H 2.645436559 -0.941527223 -1.488297084
H 1.702037978 -2.370876644 1.337015607
H -4.232051331 1.272138909 -0.810422938

