12

C 2.599001453 0.855461518 -1.744928336
C 2.704549838 -1.301792454 0.122112212
H 4.570562413 -2.174555303 0.140567731
C 1.758522969 -0.703004858 2.763369586
H 1.151203222 1.251456178 2.992817297
H 3.080069467 -1.201469351 4.258755826
O -0.447478699 -2.309992749 3.013353537
C -0.820139135 -3.745954737 1.018280547
O 0.941067302 -3.278156455 -0.662745339
H 3.055992504 0.194111458 -3.640959173
H 3.959630114 2.315255693 -1.222036979
H 0.714281912 1.692403171 -1.777370511

