17

C 3.055449170 1.150350407 -1.492834109
C 2.190415150 -1.179920690 -0.087497570
C 1.157329336 -0.691004984 2.570395648
O -1.220740627 -1.980141035 2.589388492
C -1.923892713 -2.370895409 0.198430314
C -3.954263160 1.159639375 -0.780389634
O 0.054561628 -2.311129287 -1.356515993
H 3.625033543 0.662341013 -3.411080396
H 4.670855866 2.005706403 -0.534351677
H 1.532479410 2.535634779 -1.593442277
H 3.675175895 -2.612964394 -0.065601446
H 0.836537441 1.320600104 2.917127114
H 2.324788246 -1.475028467 4.070444315
H -3.882632486 -1.778383612 -0.483457006
H -2.859731294 2.418635863 0.422475374
H -3.615824984 1.512829490 -2.779089915
H -5.957098709 1.289025502 -0.306874969

