12

C -2.419708981 -1.611496569 -0.852621675
C -1.661118000 0.151825756 1.126384995
O -2.398011392 -2.351450222 1.723242236
C 1.032456630 0.796887548 1.682785694
C 3.015268226 0.801085197 -0.233115046
O 1.920689382 3.090560093 0.628239696
H -4.280787141 -1.438747860 -1.700163388
H -0.989997621 -2.501202476 -2.024401123
H -3.007371533 1.595328092 1.706198966
H 1.575974102 0.495021393 3.643996548
H 2.559571920 0.294192676 -2.168142422
H 4.964444284 0.493300174 0.330507524

