12

C 0.832656360 1.993683039 1.142141097
C 1.644730370 -0.029502896 2.297217614
C 2.452762370 -2.045488955 3.436267421
C -2.404635846 -1.949047727 -3.529571194
C -1.629017543 0.032619715 -2.310523875
C -0.845796948 2.022501570 -1.080128014
H 1.434892479 3.817835610 1.860588060
H 1.412283399 -2.875577422 4.994536226
H 4.191921372 -2.960627816 2.854693964
H -1.347300839 -2.701531530 -5.115661019
H -4.131294045 -2.912571646 -2.990526420
H -1.470985322 3.863400932 -1.733446133

