12

C 1.084435909 2.460223821 1.413134097
C 1.621620229 0.235634561 2.004376905
C 1.088283203 -2.242392502 1.273572021
C -1.055308049 -2.192932776 -1.380799636
C -1.622651755 0.310047781 -1.990836488
C -1.114932499 2.510485566 -1.292933229
H 1.461892678 4.384716844 1.933727112
H 0.077836440 -3.347551224 2.683671520
H 2.708940598 -3.286383643 0.556519733
H -0.031134750 -3.213525365 -2.843970751
H -2.661342270 -3.293825365 -0.717793722
H -1.517524590 4.452307944 -1.722692382

