16

C -3.397384606 0.628922662 0.825123987
C -0.659553667 0.862175299 0.450905264
O -0.285350459 -3.516616554 1.579570478
C 0.524165543 0.967932990 -2.067228799
C 3.337555310 0.893442783 -1.423793740
O 3.438003966 -0.795610849 0.536626586
H -3.861789298 -0.057417155 2.704021149
H -4.101370647 2.584612417 0.683991114
H -4.322869188 -0.503423304 -0.618622861
H 0.445843765 1.592031238 2.009871680
H -0.645470256 -4.860794885 0.419269850
H -0.285521233 2.556787050 -3.146259902
H 0.020084085 -0.747779273 -3.105526364
H 3.972923676 2.808615619 -0.867163779
H 4.484825387 0.357014014 -3.074297053
H 1.428736658 -2.807767850 1.111453154

