11

O -0.418804241 2.021132388 -2.984488537
C -0.346963562 1.140386958 -0.675297467
C -2.187950267 -0.580873710 0.364185864
C -0.070337061 -2.563220018 0.801185938
C 2.110146369 -1.438580828 1.588603501
C 2.175084785 1.125991989 0.628688033
O 3.790873999 2.716810551 0.402230398
H -2.954089174 -0.102734280 2.205847977
H -3.685485825 -1.131018849 -0.936681058
H -2.102311186 1.941340422 -3.675437415
H 3.684815162 -2.410860887 2.461247977

