11

O -0.478954771 1.505411370 -2.969112138
C -0.507132232 1.554418072 -0.502923302
C -2.450585783 -0.052033779 0.586630402
C -0.295302248 -1.824834819 -0.327702188
C 1.992234262 -1.318397383 0.814144149
C 1.942555762 1.437913698 1.078291862
O 3.385306459 3.042348946 1.732361033
H -2.690206590 -0.071398086 2.618444032
H -4.167775037 -0.204443460 -0.513907429
H -0.421356070 -0.912279327 -2.883368876
H 3.686195248 -2.438325826 0.547225776

