16

C 4.036091608 -0.188181819 -1.193911259
C 2.133324464 0.870209186 0.697025028
C -0.489038822 0.646086420 -0.364710887
C -1.916845414 -1.812765743 -0.495660139
C -4.257506698 -0.218793965 -0.218175722
O -2.610446655 1.382935234 1.545729414
H 3.650583340 -2.177795427 -1.576878658
H 3.964497482 0.833748243 -2.986181864
H 5.955894632 -0.039494766 -0.460738170
H 2.236312497 -0.192437633 2.463917348
H 2.552552249 2.851022793 1.113305539
H -0.813564097 2.019919637 -1.897886170
H -2.127607873 -0.484783310 2.342446206
H -1.656170205 -3.183709399 -2.002653191
H -5.930442006 -0.919594211 0.754831693
H -4.773246840 1.108691980 -1.731266788

