8

C 5.278089367 1.586787153 2.760200609
C 4.052827684 -0.063004471 1.388522304
C 2.872420540 -1.666365013 0.057868951
C 1.649874658 -3.317487665 -1.314641212
H 2.593912307 -4.962950758 -2.087616922
H -0.345137425 -3.086236796 -1.719004903
H 4.336689209 3.233104383 3.534517514
H 7.273386704 1.353518718 3.161914280

