8

C -3.683138729 0.465543215 1.337058391
H -2.131104357 -0.332266519 2.407435154
H -5.313579236 1.002255197 2.456906407
C -3.163661105 1.911757912 -0.990698275
H -1.232231031 2.172370420 -1.617780797
H -4.438480950 3.442533337 -1.471371714
N -4.093475541 -0.679175544 -1.137231305
H -5.956816138 -0.700405842 -1.567332347

