16

C 3.301975716 1.499827456 2.160304613
C 3.991591524 -0.893177106 1.427315830
C 3.167779253 -2.813498577 0.394628615
C 0.740311132 -3.147056120 -0.522611338
C -1.496855918 -0.077945326 0.479546199
C -2.682741113 2.279225362 -0.583135845
N -3.043759230 -0.100377149 -1.847340342
H 3.941186500 3.106000894 1.049294241
H 3.036958710 1.905547516 4.157027277
H 0.889825715 0.824399522 1.137729588
H -0.506706684 -4.481662969 0.416619604
H 0.413182362 -2.992327178 -2.540303649
H -2.440036935 -0.749853247 2.177897491
H -1.494619560 3.619559668 -1.580014394
H -4.245732363 3.115727597 0.450611997
H -4.784389799 -0.812923197 -1.490320244

