12

C -1.517641885 0.441539460 0.861298617
C -1.889901888 -2.487145767 0.172268794
C 0.677190764 -1.994479067 0.955564619
C 1.229788182 0.306344163 -0.429741087
C 3.317666093 1.951368462 0.535615356
O 4.435386940 3.445739844 -0.752236797
H -1.699968199 1.080560289 2.792947881
H 0.923834814 0.510110081 -2.464247351
H -2.688066532 1.509056444 -0.435473949
H -2.453101084 -2.517666526 -1.816171578
H -3.047075510 -3.689220246 1.365585148
H 3.769140940 1.667472204 2.560758612

