15

C -3.839521408 0.024050771 -0.987163334
C -2.121102982 -1.531974003 0.594756602
O -0.967374444 1.212815021 3.221032945
C 1.090220626 1.570913302 2.089538395
N 1.595094786 0.245544323 0.121446859
C 3.861971071 0.483588890 -1.365460048
H -4.686723462 1.560133114 0.081212757
H -2.889231279 0.777673606 -2.647022436
H -5.360044597 -1.227807031 -1.637703367
H -2.875485109 -2.192691363 2.372790540
H -1.075354358 -2.976133094 -0.393747871
H 2.401343281 3.013678437 2.797575197
H 4.905384163 -1.299657952 -1.398574400
H 5.130746457 1.945290290 -0.629690476
H 3.404369581 0.973479242 -3.320815057

