15

O 2.894185801 -1.166129431 -2.916709352
C 1.450959838 -0.275586282 -0.905855506
C 1.686433583 -1.451547769 1.665519115
C -0.697114053 -1.804131641 0.141635313
C -2.895661979 -0.022245440 0.615101318
C -1.838699456 2.536489010 -0.078182184
C 0.509273310 2.383164702 -0.947165467
H 4.643020654 -0.867983202 -2.546314263
H 1.664646118 -0.234861418 3.312536110
H 2.886875376 -3.103787684 1.806687836
H -1.041711923 -3.673993872 -0.607193703
H -4.529942523 -0.497662909 -0.558541891
H -3.535993315 -0.079013285 2.580792146
H -2.894043316 4.273109543 0.162302624
H 1.662645654 3.950242068 -1.581595697

