15

O 4.178237052 1.473928249 -0.822027160
C 1.865895223 0.421419527 -0.828083430
C 1.270897265 -1.996100887 0.415188892
C -1.527070012 -2.205198440 0.181585975
C -2.740890367 0.146235096 1.091240114
C -1.377247272 2.185326212 -0.201179317
C -0.061024359 1.363911871 -2.403993887
H 5.214003028 0.674962626 0.436395588
H 1.999579438 -2.141824585 2.369323554
H 2.243410082 -3.427702464 -0.723175303
H -2.393697600 -4.006611087 0.627891211
H -4.686107581 0.307118913 0.383585188
H -2.852492301 0.332146314 3.165872368
H -1.589912514 4.174394370 0.258528896
H 0.417905411 2.681139797 -3.909242381

