8

N 0.909442055 -1.766250210 0.387154956
C -1.471248447 -1.652899902 0.529150659
C -2.881263381 0.733697015 0.005292461
H -3.983556371 1.291953671 1.660733762
H -1.569276176 2.240051831 -0.486632388
H -4.220323351 0.448661309 -1.541306113
H -2.632935114 -3.293845831 1.042051375
H 1.539690454 -3.534880285 0.804539257

