11

O 3.675256927 -2.612324079 -0.682627677
C 1.583294013 -1.869547327 -0.341530391
O -0.458816017 -3.483051088 -0.171906609
C -2.577486033 -2.036071202 0.225275385
C -2.131952769 0.436271395 0.336550472
C 0.575167796 0.754623256 -0.020437898
C 2.049779464 2.783684557 -0.093293568
H -4.313722063 -3.092315610 0.389042774
H -3.515341272 1.900157583 0.635130053
H 4.062691563 2.565073518 -0.392898533
H 1.298117485 4.672604147 0.136228240

