11

O 4.253317175 -2.112872828 -0.152296524
C 3.112738504 -0.183033071 0.022389759
O -1.449702168 -4.342547586 0.017146392
C -2.864602252 -2.567109055 -0.087572025
C -2.095635483 0.101257063 -0.058795918
C 0.354894478 0.787308999 0.038155385
C 2.854178749 2.284993543 0.617456975
H -4.938599860 -2.850831950 -0.189677027
H -3.570354979 1.518013481 -0.168001585
H 0.499919109 2.828394135 -0.689662768
H 3.399337808 4.247408777 0.578401438

