15

C 4.403297878 0.202812192 -0.790438461
C 1.595819042 0.462027247 -1.411460593
C 0.008088160 -0.095870020 0.869580229
C -3.390978623 0.074747455 -0.110865186
O -2.619086766 2.114684962 0.987815290
N -5.450271781 -0.970300855 0.951089030
H 5.548418166 0.553893354 -2.468097441
H 4.860906813 -1.692830098 -0.111316528
H 4.980343155 1.553510833 0.659335423
H 1.184153469 2.384795762 -2.028733055
H 1.059117491 -0.799085091 -2.949254159
H -0.224186185 -2.098989822 1.291298956
H 0.679100994 0.842121374 2.581183225
H -6.328160852 -0.088344942 2.406981600
H -6.306562832 -2.443172331 0.122881633

