17

C -3.322806016 0.355751053 0.881930023
C -0.814459374 -0.690589565 1.767694887
O -0.866369452 -3.459956556 1.368556667
C 0.486760984 -4.286603114 -0.495087949
C 1.788203329 -2.015316850 -1.619519799
C 1.541767943 0.128139834 0.313346317
C 1.484653220 2.779154921 -0.794104473
H -3.454515259 2.371602280 1.295187880
H -3.577754108 0.087132286 -1.147691109
H -4.864770812 -0.603835206 1.853715881
H -0.615702308 -0.443147504 3.803758908
H 3.145402194 -0.004137385 1.610909261
H 3.723307106 -2.467316644 -2.163391689
H 0.771060094 -1.615989620 -3.386001689
H -0.030886761 2.994950080 -2.177362037
H 1.221271186 4.213664995 0.666668637
H 3.263188804 3.189705878 -1.753357308

