17

C -3.702735132 -0.071727446 0.628057885
C -1.058440005 -0.552707191 1.592704093
O -0.357322096 -3.157187376 1.804160648
C 1.971142594 -3.160589809 0.489553168
C 1.356901252 -1.856518043 -1.999759926
C 1.174302950 0.190408993 -0.079474927
C 2.102531283 2.842616252 -0.472619181
H -4.089806714 1.956399876 0.611165680
H -3.971774515 -0.815791083 -1.273844727
H -5.074497474 -0.975021202 1.873416881
H -0.848423705 0.279968878 3.479680591
H 2.874727896 -0.878420254 1.343356999
H 2.956641571 -1.697238848 -3.274441934
H -0.365415830 -2.478891745 -2.916711809
H 0.797390895 3.853166421 -1.714333689
H 2.237185910 3.869585061 1.310995345
H 3.954811539 2.850334763 -1.374916011

