13

C 2.422331373 -2.941198710 1.109691135
C 0.387511415 3.679800698 -0.288236694
C 1.364669066 -1.678389567 -0.769755937
C -1.208738088 -0.580880476 -0.628727547
N -2.318757072 0.324292480 1.590444416
C -1.878771666 2.320033071 -0.369301599
H 4.259568087 -3.813585352 0.897506261
H 1.505409518 -3.141742115 2.931323114
H 0.242179137 5.265715402 -1.636816745
H 2.305143352 -1.537455569 -2.585495429
H -2.538260458 -1.390929021 -1.971349802
H -0.950575213 0.574620456 2.920050293
H -3.614144280 2.846814940 -1.334932562

