12

O -4.149168265 1.633695995 -0.873003430
C -2.830309071 -0.379145995 0.222983374
C -0.044398322 -0.143373729 -0.164154650
N 0.981322266 1.584062508 -1.543360359
N 3.506741885 1.036693132 -1.378494718
C 4.142434301 -0.952939582 0.037166680
N 1.786373091 -1.690451519 0.806301634
H -2.989981083 2.562063940 -1.925228938
H -3.464248520 -2.185650130 -0.578356746
H -3.237330793 -0.433220848 2.252499041
H 4.724439636 2.148420636 -2.313738243
H 1.491113003 -3.178260921 1.945120611

