8

C -1.654222616 -0.226502989 0.950924170
C -0.047979901 0.803390606 -1.016602395
O 0.059206971 3.037297614 -1.793618452
C 2.373848654 -0.419956029 0.145984216
N 4.254696619 -1.156718142 0.943497036
H -2.865118846 0.958595154 2.118094179
H -0.395225296 -0.720201989 -2.526614417
H -1.718121021 -2.261933461 1.190615085

