27

C    -3.44539   0.42131  -0.35852
C    -2.46292   0.55299   0.76237
O    -2.66951   0.16976   1.90128
C    -1.22128   1.26699   0.45412
C    -0.28500   1.99769   0.31624
C     1.47604   0.25550  -0.47444
C     2.58921   1.23823  -0.51746
C     3.27994   1.68910   0.73289
O     2.90766   1.62429  -1.63562
O     0.74893   0.11042  -1.58518
C    -0.24740  -0.87218  -1.38331
O    -1.00948  -1.20110  -2.27138
C    -0.04973  -1.26219  -0.03139
C    -0.81728  -2.17794   0.69698
N    -1.49562  -2.93668   1.26689
N     1.01394  -0.54395   0.47251
C     1.40499  -0.60783   1.88424
H    -4.38131   0.01312   0.02894
H    -3.03385  -0.22918  -1.14351
H    -3.62055   1.41273  -0.82280
H     0.44610   2.73562   0.22021
H     3.89452   0.85129   1.10310
H     2.58347   1.98054   1.52878
H     3.94764   2.52380   0.47940
H     0.82256   0.16022   2.42725
H     2.47153  -0.43950   2.00863
H     1.14597  -1.59879   2.27711
27

C    -3.44496   0.42246  -0.35862
C    -2.46073   0.55380   0.76180
O    -2.66965   0.17136   1.90183
C    -1.21578   1.25468   0.45095
C    -0.26515   1.97276   0.30738
C     1.45540   0.27794  -0.46587
C     2.58604   1.24165  -0.51677
C     3.28013   1.68909   0.73266
O     2.90731   1.62097  -1.63497
O     0.74689   0.11243  -1.58754
C    -0.24701  -0.86814  -1.38457
O    -1.00811  -1.20241  -2.27015
C    -0.05288  -1.25489  -0.02791
C    -0.81820  -2.17617   0.69705
N    -1.49530  -2.93612   1.26632
N     1.01647  -0.54669   0.47284
C     1.40414  -0.60762   1.88481
H    -4.38107   0.01367   0.02946
H    -3.03442  -0.22916  -1.14360
H    -3.62068   1.41295  -0.82294
H     0.44100   2.73432   0.22215
H     3.89408   0.85068   1.10246
H     2.58412   1.98075   1.52914
H     3.94828   2.52334   0.47937
H     0.82231   0.16030   2.42751
H     2.47126  -0.43951   2.00930
H     1.14578  -1.59862   2.27767
27

C    -3.44453   0.42361  -0.35872
C    -2.45854   0.55462   0.76122
O    -2.66979   0.17296   1.90239
C    -1.21027   1.24236   0.44779
C    -0.24531   1.94784   0.29851
C     1.43477   0.30037  -0.45730
C     2.58287   1.24506  -0.51608
C     3.28031   1.68908   0.73243
O     2.90696   1.61764  -1.63432
O     0.74486   0.11444  -1.58989
C    -0.24663  -0.86411  -1.38583
O    -1.00674  -1.20373  -2.26893
C    -0.05603  -1.24759  -0.02443
C    -0.81913  -2.17440   0.69712
N    -1.49498  -2.93557   1.26575
N     1.01900  -0.54943   0.47317
C     1.40330  -0.60741   1.88538
H    -4.38083   0.01423   0.02998
H    -3.03500  -0.22914  -1.14370
H    -3.62081   1.41318  -0.82307
H     0.43590   2.73301   0.22409
H     3.89364   0.85008   1.10182
H     2.58477   1.98097   1.52950
H     3.94893   2.52289   0.47935
H     0.82206   0.16037   2.42777
H     2.47100  -0.43951   2.00997
H     1.14559  -1.59845   2.27824
27

C    -3.44409   0.42476  -0.35882
C    -2.45635   0.55543   0.76065
O    -2.66993   0.17456   1.90294
C    -1.20476   1.23005   0.44463
C    -0.22546   1.92291   0.28965
C     1.41413   0.32280  -0.44873
C     2.57970   1.24847  -0.51540
C     3.28050   1.68906   0.73219
O     2.90660   1.61432  -1.63366
O     0.74283   0.11644  -1.59225
C    -0.24624  -0.86007  -1.38708
O    -1.00536  -1.20505  -2.26771
C    -0.05918  -1.24029  -0.02095
C    -0.82006  -2.17264   0.69719
N    -1.49466  -2.93501   1.26517
N     1.02153  -0.55217   0.47350
C     1.40246  -0.60720   1.88596
H    -4.38058   0.01478   0.03050
H    -3.03557  -0.22912  -1.14379
H    -3.62094   1.41341  -0.82321
H     0.43079   2.73171   0.22602
H     3.89320   0.84947   1.10118
H     2.58542   1.98118   1.52987
H     3.94958   2.52244   0.47932
H     0.82181   0.16045   2.42803
H     2.47073  -0.43952   2.01065
H     1.14541  -1.59828   2.27880
27

C    -3.44366   0.42592  -0.35892
C    -2.45416   0.55624   0.76008
O    -2.67007   0.17616   1.90350
C    -1.19925   1.21773   0.44146
C    -0.20562   1.89799   0.28078
C     1.39349   0.34523  -0.44016
C     2.57653   1.25188  -0.51471
C     3.28068   1.68905   0.73196
O     2.90625   1.61099  -1.63301
O     0.74080   0.11845  -1.59460
C    -0.24585  -0.85603  -1.38834
O    -1.00399  -1.20636  -2.26648
C    -0.06233  -1.23299  -0.01748
C    -0.82098  -2.17087   0.69725
N    -1.49434  -2.93445   1.26460
N     1.02406  -0.55491   0.47382
C     1.40161  -0.60699   1.88653
H    -4.38034   0.01533   0.03102
H    -3.03614  -0.22910  -1.14389
H    -3.62107   1.41364  -0.82334
H     0.42569   2.73040   0.22796
H     3.89276   0.84886   1.10054
H     2.58607   1.98139   1.53023
H     3.95022   2.52199   0.47929
H     0.82156   0.16053   2.42830
H     2.47046  -0.43952   2.01132
H     1.14522  -1.59812   2.27937
27

C    -3.44323   0.42707  -0.35902
C    -2.45196   0.55706   0.75950
O    -2.67021   0.17776   1.90405
C    -1.19375   1.20541   0.43830
C    -0.18577   1.87307   0.27192
C     1.37286   0.36767  -0.43159
C     2.57336   1.25529  -0.51402
C     3.28087   1.68904   0.73173
O     2.90590   1.60767  -1.63236
O     0.73877   0.12046  -1.59696
C    -0.24547  -0.85200  -1.38960
O    -1.00262  -1.20768  -2.26526
C    -0.06548  -1.22568  -0.01400
C    -0.82191  -2.16911   0.69732
N    -1.49403  -2.93389   1.26403
N     1.02659  -0.55765   0.47415
C     1.40077  -0.60678   1.88710
H    -4.38010   0.01589   0.03153
H    -3.03672  -0.22908  -1.14399
H    -3.62120   1.41386  -0.82348
H     0.42059   2.72910   0.22990
H     3.89233   0.84825   1.09990
H     2.58673   1.98160   1.53059
H     3.95087   2.52154   0.47927
H     0.82131   0.16060   2.42856
H     2.47020  -0.43953   2.01199
H     1.14503  -1.59795   2.27993
27

C    -3.44280   0.42822  -0.35912
C    -2.44977   0.55787   0.75893
O    -2.67035   0.17937   1.90461
C    -1.18824   1.19310   0.43514
C    -0.16593   1.84814   0.26306
C     1.35222   0.39010  -0.42302
C     2.57019   1.25871  -0.51333
C     3.28106   1.68902   0.73149
O     2.90554   1.60434  -1.63171
O     0.73673   0.12247  -1.59931
C    -0.24508  -0.84796  -1.39085
O    -1.00124  -1.20900  -2.26404
C    -0.06863  -1.21838  -0.01052
C    -0.82283  -2.16734   0.69739
N    -1.49371  -2.93333   1.26345
N     1.02912  -0.56039   0.47448
C     1.39993  -0.60657   1.88768
H    -4.37985   0.01644   0.03205
H    -3.03729  -0.22907  -1.14408
H    -3.62133   1.41409  -0.82361
H     0.41548   2.72779   0.23184
H     3.89189   0.84764   1.09926
H     2.58738   1.98182   1.53095
H     3.95152   2.52109   0.47924
H     0.82106   0.16068   2.42882
H     2.46993  -0.43953   2.01266
H     1.14484  -1.59778   2.28050
27

C    -3.44236   0.42937  -0.35922
C    -2.44758   0.55868   0.75836
O    -2.67049   0.18097   1.90516
C    -1.18273   1.18078   0.43198
C    -0.14608   1.82322   0.25419
C     1.33158   0.41253  -0.41445
C     2.56702   1.26212  -0.51264
C     3.28124   1.68901   0.73126
O     2.90519   1.60101  -1.63106
O     0.73470   0.12448  -1.60167
C    -0.24469  -0.84392  -1.39211
O    -0.99987  -1.21031  -2.26281
C    -0.07177  -1.21108  -0.00704
C    -0.82376  -2.16557   0.69746
N    -1.49339  -2.93278   1.26288
N     1.03165  -0.56312   0.47481
C     1.39909  -0.60636   1.88825
H    -4.37961   0.01699   0.03257
H    -3.03787  -0.22905  -1.14418
H    -3.62145   1.41432  -0.82375
H     0.41038   2.72649   0.23377
H     3.89145   0.84703   1.09862
H     2.58803   1.98203   1.53131
H     3.95216   2.52064   0.47922
H     0.82081   0.16076   2.42908
H     2.46966  -0.43954   2.01333
H     1.14465  -1.59761   2.28106
27

C    -3.44193   0.43052  -0.35933
C    -2.44539   0.55949   0.75778
O    -2.67063   0.18257   1.90572
C    -1.17722   1.16847   0.42881
C    -0.12624   1.79829   0.24533
C     1.31094   0.43496  -0.40588
C     2.56385   1.26553  -0.51195
C     3.28143   1.68900   0.73103
O     2.90484   1.59769  -1.63041
O     0.73267   0.12649  -1.60402
C    -0.24431  -0.83989  -1.39337
O    -0.99850  -1.21163  -2.26159
C    -0.07492  -1.20378  -0.00356
C    -0.82469  -2.16381   0.69752
N    -1.49307  -2.93222   1.26231
N     1.03417  -0.56586   0.47514
C     1.39824  -0.60614   1.88882
H    -4.37937   0.01755   0.03309
H    -3.03844  -0.22903  -1.14428
H    -3.62158   1.41455  -0.82388
H     0.40528   2.72518   0.23571
H     3.89101   0.84642   1.09798
H     2.58868   1.98224   1.53167
H     3.95281   2.52019   0.47919
H     0.82056   0.16083   2.42934
H     2.46940  -0.43954   2.01400
H     1.14447  -1.59745   2.28163
27

C    -3.44150   0.43168  -0.35943
C    -2.44320   0.56031   0.75721
O    -2.67078   0.18417   1.90627
C    -1.17171   1.15615   0.42565
C    -0.10639   1.77337   0.23646
C     1.29031   0.45740  -0.39731
C     2.56067   1.26894  -0.51127
C     3.28161   1.68898   0.73079
O     2.90448   1.59436  -1.62975
O     0.73064   0.12849  -1.60638
C    -0.24392  -0.83585  -1.39462
O    -0.99713  -1.21294  -2.26037
C    -0.07807  -1.19648  -0.00008
C    -0.82561  -2.16204   0.69759
N    -1.49275  -2.93166   1.26174
N     1.03670  -0.56860   0.47547
C     1.39740  -0.60593   1.88940
H    -4.37912   0.01810   0.03361
H    -3.03901  -0.22901  -1.14437
H    -3.62171   1.41478  -0.82402
H     0.40017   2.72387   0.23765
H     3.89057   0.84581   1.09733
H     2.58933   1.98245   1.53203
H     3.95345   2.51974   0.47917
H     0.82031   0.16091   2.42961
H     2.46913  -0.43955   2.01468
H     1.14428  -1.59728   2.28219
27

C    -3.44107   0.43283  -0.35953
C    -2.44101   0.56112   0.75664
O    -2.67092   0.18577   1.90683
C    -1.16621   1.14384   0.42249
C    -0.08655   1.74845   0.22760
C     1.26967   0.47983  -0.38874
C     2.55750   1.27235  -0.51058
C     3.28180   1.68897   0.73056
O     2.90413   1.59104  -1.62910
O     0.72861   0.13050  -1.60873
C    -0.24353  -0.83182  -1.39588
O    -0.99575  -1.21426  -2.25915
C    -0.08122  -1.18918   0.00340
C    -0.82654  -2.16028   0.69766
N    -1.49243  -2.93110   1.26116
N     1.03923  -0.57134   0.47580
C     1.39656  -0.60572   1.88997
H    -4.37888   0.01865   0.03413
H    -3.03959  -0.22899  -1.14447
H    -3.62184   1.41500  -0.82415
H     0.39507   2.72257   0.23958
H     3.89014   0.84520   1.09669
H     2.58998   1.98266   1.53240
H     3.95410   2.51928   0.47914
H     0.82006   0.16099   2.42987
H     2.46886  -0.43956   2.01535
H     1.14409  -1.59711   2.28276
27

C    -3.44064   0.43398  -0.35963
C    -2.43882   0.56193   0.75606
O    -2.67106   0.18737   1.90738
C    -1.16070   1.13152   0.41932
C    -0.06670   1.72352   0.21874
C     1.24903   0.50226  -0.38017
C     2.55433   1.27577  -0.50989
C     3.28198   1.68896   0.73033
O     2.90378   1.58771  -1.62845
O     0.72657   0.13251  -1.61109
C    -0.24315  -0.82778  -1.39713
O    -0.99438  -1.21558  -2.25792
C    -0.08437  -1.18188   0.00688
C    -0.82747  -2.15851   0.69773
N    -1.49211  -2.93054   1.26059
N     1.04176  -0.57408   0.47613
C     1.39572  -0.60551   1.89055
H    -4.37864   0.01921   0.03464
H    -3.04016  -0.22897  -1.14456
H    -3.62197   1.41523  -0.82429
H     0.38997   2.72126   0.24152
H     3.88970   0.84459   1.09605
H     2.59063   1.98288   1.53276
H     3.95475   2.51883   0.47912
H     0.81981   0.16107   2.43013
H     2.46859  -0.43956   2.01602
H     1.14390  -1.59694   2.28332
27

C    -3.44020   0.43513  -0.35973
C    -2.43663   0.56275   0.75549
O    -2.67120   0.18898   1.90794
C    -1.15519   1.11921   0.41616
C    -0.04686   1.69860   0.20987
C     1.22840   0.52469  -0.37160
C     2.55116   1.27918  -0.50920
C     3.28217   1.68894   0.73009
O     2.90343   1.58438  -1.62780
O     0.72454   0.13452  -1.61344
C    -0.24276  -0.82374  -1.39839
O    -0.99301  -1.21689  -2.25670
C    -0.08752  -1.17458   0.01036
C    -0.82839  -2.15674   0.69779
N    -1.49179  -2.92999   1.26002
N     1.04429  -0.57682   0.47645
C     1.39487  -0.60530   1.89112
H    -4.37839   0.01976   0.03516
H    -3.04073  -0.22895  -1.14466
H    -3.62210   1.41546  -0.82442
H     0.38486   2.71996   0.24346
H     3.88926   0.84399   1.09541
H     2.59129   1.98309   1.53312
H     3.95539   2.51838   0.47909
H     0.81957   0.16114   2.43039
H     2.46833  -0.43957   2.01669
H     1.14371  -1.59678   2.28389
27

C    -3.43977   0.43628  -0.35983
C    -2.43443   0.56356   0.75492
O    -2.67134   0.19058   1.90849
C    -1.14968   1.10689   0.41300
C    -0.02701   1.67367   0.20101
C     1.20776   0.54712  -0.36303
C     2.54799   1.28259  -0.50851
C     3.28235   1.68893   0.72986
O     2.90307   1.58106  -1.62715
O     0.72251   0.13653  -1.61580
C    -0.24237  -0.81971  -1.39965
O    -0.99163  -1.21821  -2.25548
C    -0.09066  -1.16728   0.01384
C    -0.82932  -2.15498   0.69786
N    -1.49148  -2.92943   1.25945
N     1.04682  -0.57956   0.47678
C     1.39403  -0.60509   1.89169
H    -4.37815   0.02031   0.03568
H    -3.04131  -0.22894  -1.14476
H    -3.62223   1.41569  -0.82456
H     0.37976   2.71865   0.24539
H     3.88882   0.84338   1.09477
H     2.59194   1.98330   1.53348
H     3.95604   2.51793   0.47907
H     0.81932   0.16122   2.43065
H     2.46806  -0.43957   2.01736
H     1.14353  -1.59661   2.28445
27

C    -3.43934   0.43744  -0.35993
C    -2.43224   0.56437   0.75434
O    -2.67148   0.19218   1.90905
C    -1.14418   1.09458   0.40983
C    -0.00717   1.64875   0.19214
C     1.18712   0.56956  -0.35446
C     2.54482   1.28600  -0.50782
C     3.28254   1.68892   0.72963
O     2.90272   1.57773  -1.62650
O     0.72048   0.13854  -1.61815
C    -0.24199  -0.81567  -1.40090
O    -0.99026  -1.21953  -2.25425
C    -0.09381  -1.15998   0.01732
C    -0.83024  -2.15321   0.69793
N    -1.49116  -2.92887   1.25887
N     1.04935  -0.58229   0.47711
C     1.39319  -0.60488   1.89227
H    -4.37791   0.02087   0.03620
H    -3.04188  -0.22892  -1.14485
H    -3.62235   1.41591  -0.82469
H     0.37466   2.71735   0.24733
H     3.88838   0.84277   1.09413
H     2.59259   1.98351   1.53384
H     3.95668   2.51748   0.47904
H     0.81907   0.16130   2.43092
H     2.46779  -0.43958   2.01803
H     1.14334  -1.59644   2.28502
27

C    -3.43891   0.43859  -0.36003
C    -2.43005   0.56518   0.75377
O    -2.67162   0.19378   1.90960
C    -1.13867   1.08226   0.40667
C     0.01268   1.62382   0.18328
C     1.16648   0.59199  -0.34589
C     2.54165   1.28941  -0.50714
C     3.28272   1.68890   0.72939
O     2.90237   1.57441  -1.62585
O     0.71845   0.14054  -1.62051
C    -0.24160  -0.81163  -1.40216
O    -0.98889  -1.22084  -2.25303
C    -0.09696  -1.15268   0.02080
C    -0.83117  -2.15145   0.69800
N    -1.49084  -2.92831   1.25830
N     1.05187  -0.58503   0.47744
C     1.39234  -0.60467   1.89284
H    -4.37766   0.02142   0.03672
H    -3.04245  -0.22890  -1.14495
H    -3.62248   1.41614  -0.82483
H     0.36955   2.71604   0.24927
H     3.88795   0.84216   1.09349
H     2.59324   1.98372   1.53420
H     3.95733   2.51703   0.47902
H     0.81882   0.16137   2.43118
H     2.46753  -0.43958   2.01871
H     1.14315  -1.59627   2.28559
27

C    -3.43847   0.43974  -0.36014
C    -2.42786   0.56600   0.75320
O    -2.67176   0.19538   1.91016
C    -1.13316   1.06995   0.40351
C     0.03252   1.59890   0.17441
C     1.14585   0.61442  -0.33732
C     2.53848   1.29283  -0.50645
C     3.28291   1.68889   0.72916
O     2.90201   1.57108  -1.62519
O     0.71641   0.14255  -1.62287
C    -0.24121  -0.80760  -1.40342
O    -0.98752  -1.22216  -2.25181
C    -0.10011  -1.14538   0.02428
C    -0.83210  -2.14968   0.69806
N    -1.49052  -2.92775   1.25773
N     1.05440  -0.58777   0.47777
C     1.39150  -0.60446   1.89341
H    -4.37742   0.02197   0.03723
H    -3.04303  -0.22888  -1.14505
H    -3.62261   1.41637  -0.82496
H     0.36445   2.71474   0.25121
H     3.88751   0.84155   1.09285
H     2.59389   1.98394   1.53456
H     3.95798   2.51658   0.47899
H     0.81857   0.16145   2.43144
H     2.46726  -0.43959   2.01938
H     1.14296  -1.59611   2.28615
27

C    -3.43804   0.44089  -0.36024
C    -2.42567   0.56681   0.75263
O    -2.67190   0.19698   1.91071
C    -1.12765   1.05763   0.40034
C     0.05237   1.57398   0.16555
C     1.12521   0.63685  -0.32875
C     2.53531   1.29624  -0.50576
C     3.28309   1.68888   0.72893
O     2.90166   1.56776  -1.62454
O     0.71438   0.14456  -1.62522
C    -0.24083  -0.80356  -1.40467
O    -0.98614  -1.22347  -2.25058
C    -0.10326  -1.13808   0.02776
C    -0.83302  -2.14791   0.69813
N    -1.49020  -2.92720   1.25715
N     1.05693  -0.59051   0.47810
C     1.39066  -0.60425   1.89399
H    -4.37718   0.02253   0.03775
H    -3.04360  -0.22886  -1.14514
H    -3.62274   1.41660  -0.82510
H     0.35935   2.71343   0.25314
H     3.88707   0.84094   1.09221
H     2.59454   1.98415   1.53493
H     3.95862   2.51613   0.47897
H     0.81832   0.16153   2.43170
H     2.46699  -0.43959   2.02005
H     1.14277  -1.59594   2.28672
27

C    -3.43761   0.44204  -0.36034
C    -2.42348   0.56762   0.75205
O    -2.67204   0.19859   1.91127
C    -1.12215   1.04531   0.39718
C     0.07221   1.54905   0.15669
C     1.10457   0.65929  -0.32018
C     2.53214   1.29965  -0.50507
C     3.28328   1.68886   0.72869
O     2.90131   1.56443  -1.62389
O     0.71235   0.14657  -1.62758
C    -0.24044  -0.79953  -1.40593
O    -0.98477  -1.22479  -2.24936
C    -0.10641  -1.13078   0.03124
C    -0.83395  -2.14615   0.69820
N    -1.48988  -2.92664   1.25658
N     1.05946  -0.59325   0.47843
C     1.38982  -0.60404   1.89456
H    -4.37693   0.02308   0.03827
H    -3.04418  -0.22884  -1.14524
H    -3.62287   1.41683  -0.82523
H     0.35424   2.71213   0.25508
H     3.88663   0.84033   1.09157
H     2.59520   1.98436   1.53529
H     3.95927   2.51568   0.47894
H     0.81807   0.16160   2.43197
H     2.46673  -0.43960   2.02072
H     1.14259  -1.59577   2.28728
27

C    -3.43718   0.44320  -0.36044
C    -2.42129   0.56844   0.75148
O    -2.67218   0.20019   1.91182
C    -1.11664   1.03300   0.39402
C     0.09206   1.52413   0.14782
C     1.08394   0.68172  -0.31161
C     2.52897   1.30306  -0.50438
C     3.28346   1.68885   0.72846
O     2.90095   1.56110  -1.62324
O     0.71032   0.14858  -1.62993
C    -0.24005  -0.79549  -1.40719
O    -0.98340  -1.22611  -2.24814
C    -0.10956  -1.12348   0.03472
C    -0.83487  -2.14438   0.69827
N    -1.48956  -2.92608   1.25601
N     1.06199  -0.59599   0.47875
C     1.38897  -0.60383   1.89513
H    -4.37669   0.02363   0.03879
H    -3.04475  -0.22883  -1.14533
H    -3.62300   1.41705  -0.82537
H     0.34914   2.71082   0.25702
H     3.88619   0.83972   1.09093
H     2.59585   1.98457   1.53565
H     3.95992   2.51522   0.47891
H     0.81782   0.16168   2.43223
H     2.46646  -0.43960   2.02139
H     1.14240  -1.59560   2.28785
27

C    -3.43675   0.44435  -0.36054
C    -2.41910   0.56925   0.75091
O    -2.67233   0.20179   1.91238
C    -1.11113   1.02068   0.39085
C     0.11190   1.49920   0.13896
C     1.06330   0.70415  -0.30304
C     2.52580   1.30647  -0.50369
C     3.28365   1.68883   0.72823
O     2.90060   1.55778  -1.62259
O     0.70829   0.15059  -1.63229
C    -0.23967  -0.79145  -1.40844
O    -0.98202  -1.22742  -2.24691
C    -0.11270  -1.11618   0.03820
C    -0.83580  -2.14261   0.69833
N    -1.48925  -2.92552   1.25544
N     1.06452  -0.59873   0.47908
C     1.38813  -0.60362   1.89571
H    -4.37645   0.02419   0.03931
H    -3.04532  -0.22881  -1.14543
H    -3.62313   1.41728  -0.82550
H     0.34404   2.70952   0.25895
H     3.88575   0.83911   1.09029
H     2.59650   1.98478   1.53601
H     3.96056   2.51477   0.47889
H     0.81757   0.16176   2.43249
H     2.46619  -0.43961   2.02206
H     1.14221  -1.59544   2.28841
27

C    -3.43718   0.44320  -0.36044
C    -2.42129   0.56844   0.75148
O    -2.67218   0.20019   1.91182
C    -1.11664   1.03300   0.39402
C     0.09206   1.52413   0.14782
C     1.08394   0.68172  -0.31161
C     2.52897   1.30306  -0.50438
C     3.28346   1.68885   0.72846
O     2.90095   1.56110  -1.62324
O     0.71032   0.14858  -1.62993
C    -0.24005  -0.79549  -1.40719
O    -0.98340  -1.22611  -2.24814
C    -0.10956  -1.12348   0.03472
C    -0.83487  -2.14438   0.69827
N    -1.48956  -2.92608   1.25601
N     1.06199  -0.59599   0.47875
C     1.38897  -0.60383   1.89513
H    -4.37669   0.02363   0.03879
H    -3.04475  -0.22883  -1.14533
H    -3.62300   1.41705  -0.82537
H     0.34914   2.71082   0.25702
H     3.88619   0.83972   1.09093
H     2.59585   1.98457   1.53565
H     3.95992   2.51522   0.47891
H     0.81782   0.16168   2.43223
H     2.46646  -0.43960   2.02139
H     1.14240  -1.59560   2.28785
27

C    -3.43761   0.44204  -0.36034
C    -2.42348   0.56762   0.75205
O    -2.67204   0.19859   1.91127
C    -1.12215   1.04531   0.39718
C     0.07221   1.54905   0.15669
C     1.10457   0.65929  -0.32018
C     2.53214   1.29965  -0.50507
C     3.28328   1.68886   0.72869
O     2.90131   1.56443  -1.62389
O     0.71235   0.14657  -1.62758
C    -0.24044  -0.79953  -1.40593
O    -0.98477  -1.22479  -2.24936
C    -0.10641  -1.13078   0.03124
C    -0.83395  -2.14615   0.69820
N    -1.48988  -2.92664   1.25658
N     1.05946  -0.59325   0.47843
C     1.38982  -0.60404   1.89456
H    -4.37693   0.02308   0.03827
H    -3.04418  -0.22884  -1.14524
H    -3.62287   1.41683  -0.82523
H     0.35424   2.71213   0.25508
H     3.88663   0.84033   1.09157
H     2.59520   1.98436   1.53529
H     3.95927   2.51568   0.47894
H     0.81807   0.16160   2.43197
H     2.46673  -0.43960   2.02072
H     1.14259  -1.59577   2.28728
27

C    -3.43804   0.44089  -0.36024
C    -2.42567   0.56681   0.75263
O    -2.67190   0.19698   1.91071
C    -1.12765   1.05763   0.40034
C     0.05237   1.57398   0.16555
C     1.12521   0.63685  -0.32875
C     2.53531   1.29624  -0.50576
C     3.28309   1.68888   0.72893
O     2.90166   1.56776  -1.62454
O     0.71438   0.14456  -1.62522
C    -0.24083  -0.80356  -1.40467
O    -0.98614  -1.22347  -2.25058
C    -0.10326  -1.13808   0.02776
C    -0.83302  -2.14791   0.69813
N    -1.49020  -2.92720   1.25715
N     1.05693  -0.59051   0.47810
C     1.39066  -0.60425   1.89399
H    -4.37718   0.02253   0.03775
H    -3.04360  -0.22886  -1.14514
H    -3.62274   1.41660  -0.82510
H     0.35935   2.71343   0.25314
H     3.88707   0.84094   1.09221
H     2.59454   1.98415   1.53493
H     3.95862   2.51613   0.47897
H     0.81832   0.16153   2.43170
H     2.46699  -0.43959   2.02005
H     1.14277  -1.59594   2.28672
27

C    -3.43847   0.43974  -0.36014
C    -2.42786   0.56600   0.75320
O    -2.67176   0.19538   1.91016
C    -1.13316   1.06995   0.40351
C     0.03252   1.59890   0.17441
C     1.14585   0.61442  -0.33732
C     2.53848   1.29283  -0.50645
C     3.28291   1.68889   0.72916
O     2.90201   1.57108  -1.62519
O     0.71641   0.14255  -1.62287
C    -0.24121  -0.80760  -1.40342
O    -0.98752  -1.22216  -2.25181
C    -0.10011  -1.14538   0.02428
C    -0.83210  -2.14968   0.69806
N    -1.49052  -2.92775   1.25773
N     1.05440  -0.58777   0.47777
C     1.39150  -0.60446   1.89341
H    -4.37742   0.02197   0.03723
H    -3.04303  -0.22888  -1.14505
H    -3.62261   1.41637  -0.82496
H     0.36445   2.71474   0.25121
H     3.88751   0.84155   1.09285
H     2.59389   1.98394   1.53456
H     3.95798   2.51658   0.47899
H     0.81857   0.16145   2.43144
H     2.46726  -0.43959   2.01938
H     1.14296  -1.59611   2.28615
27

C    -3.43891   0.43859  -0.36003
C    -2.43005   0.56518   0.75377
O    -2.67162   0.19378   1.90960
C    -1.13867   1.08226   0.40667
C     0.01268   1.62382   0.18328
C     1.16648   0.59199  -0.34589
C     2.54165   1.28941  -0.50714
C     3.28272   1.68890   0.72939
O     2.90237   1.57441  -1.62585
O     0.71845   0.14054  -1.62051
C    -0.24160  -0.81163  -1.40216
O    -0.98889  -1.22084  -2.25303
C    -0.09696  -1.15268   0.02080
C    -0.83117  -2.15145   0.69800
N    -1.49084  -2.92831   1.25830
N     1.05187  -0.58503   0.47744
C     1.39234  -0.60467   1.89284
H    -4.37766   0.02142   0.03672
H    -3.04245  -0.22890  -1.14495
H    -3.62248   1.41614  -0.82483
H     0.36955   2.71604   0.24927
H     3.88795   0.84216   1.09349
H     2.59324   1.98372   1.53420
H     3.95733   2.51703   0.47902
H     0.81882   0.16137   2.43118
H     2.46753  -0.43958   2.01871
H     1.14315  -1.59627   2.28559
27

C    -3.43934   0.43744  -0.35993
C    -2.43224   0.56437   0.75434
O    -2.67148   0.19218   1.90905
C    -1.14418   1.09458   0.40983
C    -0.00717   1.64875   0.19214
C     1.18712   0.56956  -0.35446
C     2.54482   1.28600  -0.50782
C     3.28254   1.68892   0.72963
O     2.90272   1.57773  -1.62650
O     0.72048   0.13854  -1.61815
C    -0.24199  -0.81567  -1.40090
O    -0.99026  -1.21953  -2.25425
C    -0.09381  -1.15998   0.01732
C    -0.83024  -2.15321   0.69793
N    -1.49116  -2.92887   1.25887
N     1.04935  -0.58229   0.47711
C     1.39319  -0.60488   1.89227
H    -4.37791   0.02087   0.03620
H    -3.04188  -0.22892  -1.14485
H    -3.62235   1.41591  -0.82469
H     0.37466   2.71735   0.24733
H     3.88838   0.84277   1.09413
H     2.59259   1.98351   1.53384
H     3.95668   2.51748   0.47904
H     0.81907   0.16130   2.43092
H     2.46779  -0.43958   2.01803
H     1.14334  -1.59644   2.28502
27

C    -3.43977   0.43628  -0.35983
C    -2.43443   0.56356   0.75492
O    -2.67134   0.19058   1.90849
C    -1.14968   1.10689   0.41300
C    -0.02701   1.67367   0.20101
C     1.20776   0.54712  -0.36303
C     2.54799   1.28259  -0.50851
C     3.28235   1.68893   0.72986
O     2.90307   1.58106  -1.62715
O     0.72251   0.13653  -1.61580
C    -0.24237  -0.81971  -1.39965
O    -0.99163  -1.21821  -2.25548
C    -0.09066  -1.16728   0.01384
C    -0.82932  -2.15498   0.69786
N    -1.49148  -2.92943   1.25945
N     1.04682  -0.57956   0.47678
C     1.39403  -0.60509   1.89169
H    -4.37815   0.02031   0.03568
H    -3.04131  -0.22894  -1.14476
H    -3.62223   1.41569  -0.82456
H     0.37976   2.71865   0.24539
H     3.88882   0.84338   1.09477
H     2.59194   1.98330   1.53348
H     3.95604   2.51793   0.47907
H     0.81932   0.16122   2.43065
H     2.46806  -0.43957   2.01736
H     1.14353  -1.59661   2.28445
27

C    -3.44020   0.43513  -0.35973
C    -2.43663   0.56275   0.75549
O    -2.67120   0.18898   1.90794
C    -1.15519   1.11921   0.41616
C    -0.04686   1.69860   0.20987
C     1.22840   0.52469  -0.37160
C     2.55116   1.27918  -0.50920
C     3.28217   1.68894   0.73009
O     2.90343   1.58438  -1.62780
O     0.72454   0.13452  -1.61344
C    -0.24276  -0.82374  -1.39839
O    -0.99301  -1.21689  -2.25670
C    -0.08752  -1.17458   0.01036
C    -0.82839  -2.15674   0.69779
N    -1.49179  -2.92999   1.26002
N     1.04429  -0.57682   0.47645
C     1.39487  -0.60530   1.89112
H    -4.37839   0.01976   0.03516
H    -3.04073  -0.22895  -1.14466
H    -3.62210   1.41546  -0.82442
H     0.38486   2.71996   0.24346
H     3.88926   0.84399   1.09541
H     2.59129   1.98309   1.53312
H     3.95539   2.51838   0.47909
H     0.81957   0.16114   2.43039
H     2.46833  -0.43957   2.01669
H     1.14371  -1.59678   2.28389
27

C    -3.44064   0.43398  -0.35963
C    -2.43882   0.56193   0.75606
O    -2.67106   0.18737   1.90738
C    -1.16070   1.13152   0.41932
C    -0.06670   1.72352   0.21874
C     1.24903   0.50226  -0.38017
C     2.55433   1.27577  -0.50989
C     3.28198   1.68896   0.73033
O     2.90378   1.58771  -1.62845
O     0.72657   0.13251  -1.61109
C    -0.24315  -0.82778  -1.39713
O    -0.99438  -1.21558  -2.25792
C    -0.08437  -1.18188   0.00688
C    -0.82747  -2.15851   0.69773
N    -1.49211  -2.93054   1.26059
N     1.04176  -0.57408   0.47613
C     1.39572  -0.60551   1.89055
H    -4.37864   0.01921   0.03464
H    -3.04016  -0.22897  -1.14456
H    -3.62197   1.41523  -0.82429
H     0.38997   2.72126   0.24152
H     3.88970   0.84459   1.09605
H     2.59063   1.98288   1.53276
H     3.95475   2.51883   0.47912
H     0.81981   0.16107   2.43013
H     2.46859  -0.43956   2.01602
H     1.14390  -1.59694   2.28332
27

C    -3.44107   0.43283  -0.35953
C    -2.44101   0.56112   0.75664
O    -2.67092   0.18577   1.90683
C    -1.16621   1.14384   0.42249
C    -0.08655   1.74845   0.22760
C     1.26967   0.47983  -0.38874
C     2.55750   1.27235  -0.51058
C     3.28180   1.68897   0.73056
O     2.90413   1.59104  -1.62910
O     0.72861   0.13050  -1.60873
C    -0.24353  -0.83182  -1.39588
O    -0.99575  -1.21426  -2.25915
C    -0.08122  -1.18918   0.00340
C    -0.82654  -2.16028   0.69766
N    -1.49243  -2.93110   1.26116
N     1.03923  -0.57134   0.47580
C     1.39656  -0.60572   1.88997
H    -4.37888   0.01865   0.03413
H    -3.03959  -0.22899  -1.14447
H    -3.62184   1.41500  -0.82415
H     0.39507   2.72257   0.23958
H     3.89014   0.84520   1.09669
H     2.58998   1.98266   1.53240
H     3.95410   2.51928   0.47914
H     0.82006   0.16099   2.42987
H     2.46886  -0.43956   2.01535
H     1.14409  -1.59711   2.28276
27

C    -3.44150   0.43168  -0.35943
C    -2.44320   0.56031   0.75721
O    -2.67078   0.18417   1.90627
C    -1.17171   1.15615   0.42565
C    -0.10639   1.77337   0.23646
C     1.29031   0.45740  -0.39731
C     2.56067   1.26894  -0.51127
C     3.28161   1.68898   0.73079
O     2.90448   1.59436  -1.62975
O     0.73064   0.12849  -1.60638
C    -0.24392  -0.83585  -1.39462
O    -0.99713  -1.21294  -2.26037
C    -0.07807  -1.19648  -0.00008
C    -0.82561  -2.16204   0.69759
N    -1.49275  -2.93166   1.26174
N     1.03670  -0.56860   0.47547
C     1.39740  -0.60593   1.88940
H    -4.37912   0.01810   0.03361
H    -3.03901  -0.22901  -1.14437
H    -3.62171   1.41478  -0.82402
H     0.40017   2.72387   0.23765
H     3.89057   0.84581   1.09733
H     2.58933   1.98245   1.53203
H     3.95345   2.51974   0.47917
H     0.82031   0.16091   2.42961
H     2.46913  -0.43955   2.01468
H     1.14428  -1.59728   2.28219
27

C    -3.44193   0.43052  -0.35933
C    -2.44539   0.55949   0.75778
O    -2.67063   0.18257   1.90572
C    -1.17722   1.16847   0.42881
C    -0.12624   1.79829   0.24533
C     1.31094   0.43496  -0.40588
C     2.56385   1.26553  -0.51195
C     3.28143   1.68900   0.73103
O     2.90484   1.59769  -1.63041
O     0.73267   0.12649  -1.60402
C    -0.24431  -0.83989  -1.39337
O    -0.99850  -1.21163  -2.26159
C    -0.07492  -1.20378  -0.00356
C    -0.82469  -2.16381   0.69752
N    -1.49307  -2.93222   1.26231
N     1.03417  -0.56586   0.47514
C     1.39824  -0.60614   1.88882
H    -4.37937   0.01755   0.03309
H    -3.03844  -0.22903  -1.14428
H    -3.62158   1.41455  -0.82388
H     0.40528   2.72518   0.23571
H     3.89101   0.84642   1.09798
H     2.58868   1.98224   1.53167
H     3.95281   2.52019   0.47919
H     0.82056   0.16083   2.42934
H     2.46940  -0.43954   2.01400
H     1.14447  -1.59745   2.28163
27

C    -3.44236   0.42937  -0.35922
C    -2.44758   0.55868   0.75836
O    -2.67049   0.18097   1.90516
C    -1.18273   1.18078   0.43198
C    -0.14608   1.82322   0.25419
C     1.33158   0.41253  -0.41445
C     2.56702   1.26212  -0.51264
C     3.28124   1.68901   0.73126
O     2.90519   1.60101  -1.63106
O     0.73470   0.12448  -1.60167
C    -0.24469  -0.84392  -1.39211
O    -0.99987  -1.21031  -2.26281
C    -0.07177  -1.21108  -0.00704
C    -0.82376  -2.16557   0.69746
N    -1.49339  -2.93278   1.26288
N     1.03165  -0.56312   0.47481
C     1.39909  -0.60636   1.88825
H    -4.37961   0.01699   0.03257
H    -3.03787  -0.22905  -1.14418
H    -3.62145   1.41432  -0.82375
H     0.41038   2.72649   0.23377
H     3.89145   0.84703   1.09862
H     2.58803   1.98203   1.53131
H     3.95216   2.52064   0.47922
H     0.82081   0.16076   2.42908
H     2.46966  -0.43954   2.01333
H     1.14465  -1.59761   2.28106
27

C    -3.44280   0.42822  -0.35912
C    -2.44977   0.55787   0.75893
O    -2.67035   0.17937   1.90461
C    -1.18824   1.19310   0.43514
C    -0.16593   1.84814   0.26306
C     1.35222   0.39010  -0.42302
C     2.57019   1.25871  -0.51333
C     3.28106   1.68902   0.73149
O     2.90554   1.60434  -1.63171
O     0.73673   0.12247  -1.59931
C    -0.24508  -0.84796  -1.39085
O    -1.00124  -1.20900  -2.26404
C    -0.06863  -1.21838  -0.01052
C    -0.82283  -2.16734   0.69739
N    -1.49371  -2.93333   1.26345
N     1.02912  -0.56039   0.47448
C     1.39993  -0.60657   1.88768
H    -4.37985   0.01644   0.03205
H    -3.03729  -0.22907  -1.14408
H    -3.62133   1.41409  -0.82361
H     0.41548   2.72779   0.23184
H     3.89189   0.84764   1.09926
H     2.58738   1.98182   1.53095
H     3.95152   2.52109   0.47924
H     0.82106   0.16068   2.42882
H     2.46993  -0.43953   2.01266
H     1.14484  -1.59778   2.28050
27

C    -3.44323   0.42707  -0.35902
C    -2.45196   0.55706   0.75950
O    -2.67021   0.17776   1.90405
C    -1.19375   1.20541   0.43830
C    -0.18577   1.87307   0.27192
C     1.37286   0.36767  -0.43159
C     2.57336   1.25529  -0.51402
C     3.28087   1.68904   0.73173
O     2.90590   1.60767  -1.63236
O     0.73877   0.12046  -1.59696
C    -0.24547  -0.85200  -1.38960
O    -1.00262  -1.20768  -2.26526
C    -0.06548  -1.22568  -0.01400
C    -0.82191  -2.16911   0.69732
N    -1.49403  -2.93389   1.26403
N     1.02659  -0.55765   0.47415
C     1.40077  -0.60678   1.88710
H    -4.38010   0.01589   0.03153
H    -3.03672  -0.22908  -1.14399
H    -3.62120   1.41386  -0.82348
H     0.42059   2.72910   0.22990
H     3.89233   0.84825   1.09990
H     2.58673   1.98160   1.53059
H     3.95087   2.52154   0.47927
H     0.82131   0.16060   2.42856
H     2.47020  -0.43953   2.01199
H     1.14503  -1.59795   2.27993
27

C    -3.44366   0.42592  -0.35892
C    -2.45416   0.55624   0.76008
O    -2.67007   0.17616   1.90350
C    -1.19925   1.21773   0.44146
C    -0.20562   1.89799   0.28078
C     1.39349   0.34523  -0.44016
C     2.57653   1.25188  -0.51471
C     3.28068   1.68905   0.73196
O     2.90625   1.61099  -1.63301
O     0.74080   0.11845  -1.59460
C    -0.24585  -0.85603  -1.38834
O    -1.00399  -1.20636  -2.26648
C    -0.06233  -1.23299  -0.01748
C    -0.82098  -2.17087   0.69725
N    -1.49434  -2.93445   1.26460
N     1.02406  -0.55491   0.47382
C     1.40161  -0.60699   1.88653
H    -4.38034   0.01533   0.03102
H    -3.03614  -0.22910  -1.14389
H    -3.62107   1.41364  -0.82334
H     0.42569   2.73040   0.22796
H     3.89276   0.84886   1.10054
H     2.58607   1.98139   1.53023
H     3.95022   2.52199   0.47929
H     0.82156   0.16053   2.42830
H     2.47046  -0.43952   2.01132
H     1.14522  -1.59812   2.27937
27

C    -3.44409   0.42476  -0.35882
C    -2.45635   0.55543   0.76065
O    -2.66993   0.17456   1.90294
C    -1.20476   1.23005   0.44463
C    -0.22546   1.92291   0.28965
C     1.41413   0.32280  -0.44873
C     2.57970   1.24847  -0.51540
C     3.28050   1.68906   0.73219
O     2.90660   1.61432  -1.63366
O     0.74283   0.11644  -1.59225
C    -0.24624  -0.86007  -1.38708
O    -1.00536  -1.20505  -2.26771
C    -0.05918  -1.24029  -0.02095
C    -0.82006  -2.17264   0.69719
N    -1.49466  -2.93501   1.26517
N     1.02153  -0.55217   0.47350
C     1.40246  -0.60720   1.88596
H    -4.38058   0.01478   0.03050
H    -3.03557  -0.22912  -1.14379
H    -3.62094   1.41341  -0.82321
H     0.43079   2.73171   0.22602
H     3.89320   0.84947   1.10118
H     2.58542   1.98118   1.52987
H     3.94958   2.52244   0.47932
H     0.82181   0.16045   2.42803
H     2.47073  -0.43952   2.01065
H     1.14541  -1.59828   2.27880
27

C    -3.44453   0.42361  -0.35872
C    -2.45854   0.55462   0.76122
O    -2.66979   0.17296   1.90239
C    -1.21027   1.24236   0.44779
C    -0.24531   1.94784   0.29851
C     1.43477   0.30037  -0.45730
C     2.58287   1.24506  -0.51608
C     3.28031   1.68908   0.73243
O     2.90696   1.61764  -1.63432
O     0.74486   0.11444  -1.58989
C    -0.24663  -0.86411  -1.38583
O    -1.00674  -1.20373  -2.26893
C    -0.05603  -1.24759  -0.02443
C    -0.81913  -2.17440   0.69712
N    -1.49498  -2.93557   1.26575
N     1.01900  -0.54943   0.47317
C     1.40330  -0.60741   1.88538
H    -4.38083   0.01423   0.02998
H    -3.03500  -0.22914  -1.14370
H    -3.62081   1.41318  -0.82307
H     0.43590   2.73301   0.22409
H     3.89364   0.85008   1.10182
H     2.58477   1.98097   1.52950
H     3.94893   2.52289   0.47935
H     0.82206   0.16037   2.42777
H     2.47100  -0.43951   2.00997
H     1.14559  -1.59845   2.27824
27

C    -3.44496   0.42246  -0.35862
C    -2.46073   0.55380   0.76180
O    -2.66965   0.17136   1.90183
C    -1.21578   1.25468   0.45095
C    -0.26515   1.97276   0.30738
C     1.45540   0.27794  -0.46587
C     2.58604   1.24165  -0.51677
C     3.28013   1.68909   0.73266
O     2.90731   1.62097  -1.63497
O     0.74689   0.11243  -1.58754
C    -0.24701  -0.86814  -1.38457
O    -1.00811  -1.20241  -2.27015
C    -0.05288  -1.25489  -0.02791
C    -0.81820  -2.17617   0.69705
N    -1.49530  -2.93612   1.26632
N     1.01647  -0.54669   0.47284
C     1.40414  -0.60762   1.88481
H    -4.38107   0.01367   0.02946
H    -3.03442  -0.22916  -1.14360
H    -3.62068   1.41295  -0.82294
H     0.44100   2.73432   0.22215
H     3.89408   0.85068   1.10246
H     2.58412   1.98075   1.52914
H     3.94828   2.52334   0.47937
H     0.82231   0.16030   2.42751
H     2.47126  -0.43951   2.00930
H     1.14578  -1.59862   2.27767
