14

C -4.061449125 0.305675654 0.663889568
C -1.369649722 -0.256521742 0.059890637
C -0.466333423 -2.436772698 -0.847759901
O 2.162905368 -2.372131838 -1.280316265
C 2.844685427 -0.090624292 -0.484205186
N 4.999055109 0.745700706 0.375179667
C 0.783608896 1.519169918 0.167179970
H -4.277924849 0.796403230 2.656046275
H -5.279156514 -1.307657748 0.259825909
H -4.740418915 1.912992206 -0.440149075
H -1.347802391 -4.218186165 -1.293559522
H 3.200840787 2.256700620 1.419040870
H 6.681131476 0.146160149 -0.309535722
H 0.621886040 3.276055930 -0.889392892

