15

O -2.997861241 1.921595430 1.208349768
C -2.706009462 -0.742020937 0.810396142
C -0.102243254 -0.319043577 -0.399752154
C 2.100002111 -0.944344200 1.315347611
O 4.386619514 0.029042936 0.374135348
C -0.875465629 2.478325999 -0.385519191
O 0.425980627 -1.470034960 -2.733904390
H -0.772605285 -0.912399098 -3.973815154
H -2.780655421 -1.816223451 2.573773571
H -4.112321761 -1.488347237 -0.515900240
H 1.792336179 -0.095350875 3.169607034
H 2.190281282 -3.005046886 1.550591811
H 4.567015624 -0.585412152 -1.325608030
H -1.476935918 3.181111328 -2.242024232
H 0.439989582 3.817726535 0.468242311

