14

C 3.010145953 -1.003877754 -2.869444089
O 0.863586716 -0.042593104 -1.601862519
C -0.134500973 -1.585941614 0.201608606
C -1.809111750 -0.762530343 1.870549354
C -2.740102616 1.921292525 2.027638318
O -0.823174583 3.761318267 1.778986756
H 2.592256642 -2.829598401 -3.746516231
H 4.606912580 -1.213572555 -1.573515928
H 3.496368838 0.352056015 -4.335979238
H 0.515039451 -3.533938710 0.153036031
H -3.606944461 2.238755875 3.870778140
H -2.559149151 -2.137711067 3.186570728
H -4.223930007 2.222807891 0.603302681
H 0.143355002 3.334365187 0.300922501

