14

C 3.041043599 -0.549561156 -1.839606128
O 0.389536333 -0.444337899 -2.260373227
C -1.170870962 -1.120495682 -0.233880272
C -0.152924613 -1.528023493 2.242953959
C -2.106075653 1.299534609 1.258305509
O -1.062743139 3.486148141 0.309145777
H 3.620839296 -2.440742427 -1.251767208
H 3.647427441 0.791009082 -0.394004269
H 3.903927054 -0.081727726 -3.648261773
H -2.745899275 -2.205261311 -0.987486874
H -1.371789837 1.111931255 3.272769508
H -1.613501796 -2.470724255 3.376953850
H -4.163799753 1.287620094 1.357652531
H -0.430663576 3.065408480 -1.357791672

