19

C     3.56497   0.95267   0.24679
N     2.43359   0.06157   0.08726
C     1.29806   0.44800  -0.56512
O     1.24848   1.57479  -1.12063
C     0.20011  -0.45967  -0.55924
C    -0.87148  -1.15848  -0.42046
F    -1.37091  -2.16151  -1.20958
O    -1.85265  -1.10901   0.51231
O    -1.39099  -0.33345   1.61029
C    -1.10277   0.87845   1.25184
C    -1.72971   1.67746   0.20268
H     3.30091   1.87526   0.80668
H     3.99473   1.26362  -0.71373
H     4.35569   0.43449   0.82534
H     2.46093  -0.84733   0.52380
H    -0.50684   1.40050   2.05555
H    -2.25753   2.53911   0.69326
H    -2.44888   1.08164  -0.37714
H    -0.95041   2.09717  -0.41361
19

C     3.56651   0.95351   0.24849
N     2.43481   0.06298   0.08850
C     1.30245   0.44903  -0.56685
O     1.24925   1.57585  -1.11935
C     0.20825  -0.46467  -0.57000
C    -0.85434  -1.16796  -0.44782
F    -1.37313  -2.16568  -1.21317
O    -1.87286  -1.10476   0.53469
O    -1.39046  -0.32839   1.61402
C    -1.10737   0.88290   1.25870
C    -1.73278   1.67739   0.20509
H     3.30105   1.87553   0.80688
H     3.99524   1.26359  -0.71328
H     4.35590   0.43474   0.82611
H     2.46172  -0.84772   0.52246
H    -0.50692   1.40188   2.05634
H    -2.25826   2.54010   0.69205
H    -2.44986   1.08060  -0.37527
H    -0.95112   2.09561  -0.41362
19

C     3.56805   0.95435   0.25019
N     2.43604   0.06438   0.08975
C     1.30683   0.45007  -0.56857
O     1.25003   1.57692  -1.11807
C     0.21639  -0.46966  -0.58077
C    -0.83721  -1.17744  -0.47518
F    -1.37534  -2.16985  -1.21675
O    -1.89307  -1.10051   0.55706
O    -1.38994  -0.32334   1.61774
C    -1.11198   0.88735   1.26556
C    -1.73585   1.67732   0.20750
H     3.30120   1.87580   0.80709
H     3.99575   1.26356  -0.71283
H     4.35611   0.43499   0.82689
H     2.46250  -0.84810   0.52113
H    -0.50700   1.40326   2.05713
H    -2.25899   2.54110   0.69085
H    -2.45085   1.07956  -0.37339
H    -0.95184   2.09404  -0.41364
19

C     3.56959   0.95518   0.25189
N     2.43726   0.06579   0.09100
C     1.31122   0.45111  -0.57030
O     1.25081   1.57799  -1.11679
C     0.22453  -0.47465  -0.59154
C    -0.82007  -1.18692  -0.50254
F    -1.37755  -2.17402  -1.22034
O    -1.91328  -1.09626   0.57943
O    -1.38941  -0.31828   1.62147
C    -1.11659   0.89180   1.27241
C    -1.73892   1.67725   0.20990
H     3.30135   1.87607   0.80730
H     3.99626   1.26353  -0.71238
H     4.35632   0.43524   0.82767
H     2.46329  -0.84849   0.51979
H    -0.50707   1.40464   2.05792
H    -2.25972   2.54210   0.68965
H    -2.45183   1.07852  -0.37152
H    -0.95255   2.09247  -0.41365
19

C     3.57113   0.95602   0.25359
N     2.43849   0.06720   0.09224
C     1.31561   0.45215  -0.57203
O     1.25159   1.57906  -1.11551
C     0.23267  -0.47964  -0.60231
C    -0.80294  -1.19640  -0.52990
F    -1.37976  -2.17819  -1.22392
O    -1.93349  -1.09201   0.60180
O    -1.38889  -0.31322   1.62520
C    -1.12119   0.89625   1.27927
C    -1.74200   1.67718   0.21231
H     3.30150   1.87634   0.80751
H     3.99677   1.26350  -0.71193
H     4.35653   0.43550   0.82845
H     2.46407  -0.84888   0.51846
H    -0.50715   1.40602   2.05871
H    -2.26045   2.54310   0.68845
H    -2.45282   1.07748  -0.36965
H    -0.95327   2.09090  -0.41367
19

C     3.57267   0.95686   0.25529
N     2.43972   0.06861   0.09349
C     1.31999   0.45318  -0.57375
O     1.25236   1.58013  -1.11422
C     0.24082  -0.48463  -0.61308
C    -0.78580  -1.20588  -0.55726
F    -1.38198  -2.18236  -1.22750
O    -1.95370  -1.08776   0.62417
O    -1.38836  -0.30816   1.62893
C    -1.12580   0.90070   1.28613
C    -1.74507   1.67711   0.21472
H     3.30164   1.87661   0.80771
H     3.99728   1.26347  -0.71148
H     4.35674   0.43575   0.82923
H     2.46485  -0.84927   0.51712
H    -0.50722   1.40740   2.05950
H    -2.26118   2.54410   0.68725
H    -2.45380   1.07644  -0.36777
H    -0.95398   2.08933  -0.41368
19

C     3.57421   0.95769   0.25699
N     2.44094   0.07002   0.09474
C     1.32438   0.45422  -0.57548
O     1.25314   1.58120  -1.11294
C     0.24896  -0.48962  -0.62384
C    -0.76866  -1.21536  -0.58462
F    -1.38419  -2.18654  -1.23109
O    -1.97391  -1.08351   0.64655
O    -1.38784  -0.30310   1.63266
C    -1.13041   0.90515   1.29299
C    -1.74814   1.67705   0.21712
H     3.30179   1.87688   0.80792
H     3.99779   1.26344  -0.71103
H     4.35696   0.43600   0.83001
H     2.46564  -0.84966   0.51579
H    -0.50730   1.40879   2.06029
H    -2.26191   2.54510   0.68605
H    -2.45479   1.07540  -0.36590
H    -0.95469   2.08776  -0.41370
19

C     3.57575   0.95853   0.25869
N     2.44217   0.07142   0.09598
C     1.32876   0.45526  -0.57721
O     1.25392   1.58227  -1.11166
C     0.25710  -0.49462  -0.63461
C    -0.75153  -1.22484  -0.61199
F    -1.38640  -2.19071  -1.23467
O    -1.99412  -1.07926   0.66892
O    -1.38731  -0.29804   1.63639
C    -1.13501   0.90960   1.29984
C    -1.75121   1.67698   0.21953
H     3.30194   1.87715   0.80813
H     3.99830   1.26341  -0.71058
H     4.35717   0.43625   0.83079
H     2.46642  -0.85005   0.51445
H    -0.50737   1.41017   2.06108
H    -2.26264   2.54610   0.68485
H    -2.45577   1.07436  -0.36403
H    -0.95541   2.08619  -0.41371
19

C     3.57729   0.95937   0.26039
N     2.44340   0.07283   0.09723
C     1.33315   0.45629  -0.57893
O     1.25470   1.58334  -1.11038
C     0.26524  -0.49961  -0.64538
C    -0.73439  -1.23431  -0.63935
F    -1.38861  -2.19488  -1.23826
O    -2.01432  -1.07501   0.69129
O    -1.38678  -0.29298   1.64011
C    -1.13962   0.91404   1.30670
C    -1.75429   1.67691   0.22194
H     3.30209   1.87742   0.80834
H     3.99881   1.26338  -0.71013
H     4.35738   0.43651   0.83157
H     2.46721  -0.85043   0.51312
H    -0.50745   1.41155   2.06186
H    -2.26337   2.54710   0.68364
H    -2.45676   1.07332  -0.36215
H    -0.95612   2.08463  -0.41373
19

C     3.57883   0.96020   0.26209
N     2.44462   0.07424   0.09848
C     1.33754   0.45733  -0.58066
O     1.25548   1.58440  -1.10910
C     0.27338  -0.50460  -0.65615
C    -0.71726  -1.24379  -0.66671
F    -1.39082  -2.19905  -1.24184
O    -2.03453  -1.07076   0.71366
O    -1.38626  -0.28792   1.64384
C    -1.14422   0.91849   1.31356
C    -1.75736   1.67684   0.22435
H     3.30223   1.87769   0.80855
H     3.99932   1.26335  -0.70968
H     4.35759   0.43676   0.83235
H     2.46799  -0.85082   0.51178
H    -0.50752   1.41293   2.06265
H    -2.26409   2.54810   0.68244
H    -2.45775   1.07228  -0.36028
H    -0.95684   2.08306  -0.41374
19

C     3.58037   0.96104   0.26379
N     2.44585   0.07565   0.09972
C     1.34192   0.45837  -0.58239
O     1.25625   1.58547  -1.10782
C     0.28152  -0.50959  -0.66692
C    -0.70012  -1.25327  -0.69407
F    -1.39304  -2.20322  -1.24543
O    -2.05474  -1.06651   0.73604
O    -1.38573  -0.28287   1.64757
C    -1.14883   0.92294   1.32042
C    -1.76043   1.67677   0.22675
H     3.30238   1.87796   0.80875
H     3.99983   1.26332  -0.70923
H     4.35780   0.43701   0.83313
H     2.46878  -0.85121   0.51045
H    -0.50760   1.41431   2.06344
H    -2.26482   2.54910   0.68124
H    -2.45873   1.07124  -0.35841
H    -0.95755   2.08149  -0.41376
19

C     3.58191   0.96188   0.26549
N     2.44707   0.07705   0.10097
C     1.34631   0.45940  -0.58411
O     1.25703   1.58654  -1.10653
C     0.28967  -0.51458  -0.67768
C    -0.68298  -1.26275  -0.72143
F    -1.39525  -2.20739  -1.24901
O    -2.07495  -1.06226   0.75841
O    -1.38521  -0.27781   1.65130
C    -1.15344   0.92739   1.32727
C    -1.76350   1.67670   0.22916
H     3.30253   1.87823   0.80896
H     4.00034   1.26329  -0.70878
H     4.35801   0.43726   0.83391
H     2.46956  -0.85160   0.50911
H    -0.50767   1.41569   2.06423
H    -2.26555   2.55010   0.68004
H    -2.45972   1.07020  -0.35653
H    -0.95827   2.07992  -0.41377
19

C     3.58345   0.96271   0.26719
N     2.44830   0.07846   0.10222
C     1.35069   0.46044  -0.58584
O     1.25781   1.58761  -1.10525
C     0.29781  -0.51958  -0.68845
C    -0.66585  -1.27223  -0.74879
F    -1.39746  -2.21156  -1.25259
O    -2.09516  -1.05801   0.78078
O    -1.38468  -0.27275   1.65503
C    -1.15804   0.93184   1.33413
C    -1.76658   1.67663   0.23157
H     3.30267   1.87850   0.80917
H     4.00086   1.26327  -0.70833
H     4.35822   0.43752   0.83469
H     2.47035  -0.85199   0.50777
H    -0.50775   1.41707   2.06502
H    -2.26628   2.55110   0.67884
H    -2.46070   1.06916  -0.35466
H    -0.95898   2.07835  -0.41379
19

C     3.58499   0.96355   0.26889
N     2.44953   0.07987   0.10346
C     1.35508   0.46148  -0.58757
O     1.25859   1.58868  -1.10397
C     0.30595  -0.52457  -0.69922
C    -0.64871  -1.28171  -0.77615
F    -1.39967  -2.21573  -1.25618
O    -2.11537  -1.05376   0.80315
O    -1.38416  -0.26769   1.65876
C    -1.16265   0.93629   1.34099
C    -1.76965   1.67656   0.23398
H     3.30282   1.87877   0.80938
H     4.00137   1.26324  -0.70789
H     4.35843   0.43777   0.83547
H     2.47113  -0.85238   0.50644
H    -0.50782   1.41845   2.06581
H    -2.26701   2.55210   0.67764
H    -2.46169   1.06812  -0.35279
H    -0.95970   2.07678  -0.41380
19

C     3.58653   0.96439   0.27059
N     2.45075   0.08128   0.10471
C     1.35947   0.46252  -0.58929
O     1.25936   1.58975  -1.10269
C     0.31409  -0.52956  -0.70999
C    -0.63157  -1.29119  -0.80351
F    -1.40189  -2.21990  -1.25976
O    -2.13558  -1.04951   0.82552
O    -1.38363  -0.26263   1.66248
C    -1.16726   0.94074   1.34785
C    -1.77272   1.67649   0.23638
H     3.30297   1.87904   0.80959
H     4.00188   1.26321  -0.70744
H     4.35864   0.43802   0.83624
H     2.47191  -0.85276   0.50510
H    -0.50790   1.41984   2.06660
H    -2.26774   2.55309   0.67643
H    -2.46267   1.06709  -0.35091
H    -0.96041   2.07521  -0.41382
19

C     3.58807   0.96522   0.27229
N     2.45198   0.08269   0.10596
C     1.36385   0.46355  -0.59102
O     1.26014   1.59082  -1.10141
C     0.32223  -0.53455  -0.72075
C    -0.61444  -1.30067  -0.83087
F    -1.40410  -2.22407  -1.26335
O    -2.15579  -1.04525   0.84790
O    -1.38311  -0.25757   1.66621
C    -1.17186   0.94519   1.35470
C    -1.77579   1.67642   0.23879
H     3.30312   1.87930   0.80979
H     4.00239   1.26318  -0.70699
H     4.35886   0.43827   0.83702
H     2.47270  -0.85315   0.50377
H    -0.50797   1.42122   2.06739
H    -2.26847   2.55409   0.67523
H    -2.46366   1.06605  -0.34904
H    -0.96113   2.07365  -0.41383
19

C     3.58961   0.96606   0.27399
N     2.45321   0.08409   0.10720
C     1.36824   0.46459  -0.59275
O     1.26092   1.59189  -1.10012
C     0.33037  -0.53954  -0.73152
C    -0.59730  -1.31015  -0.85823
F    -1.40631  -2.22824  -1.26693
O    -2.17600  -1.04100   0.87027
O    -1.38258  -0.25251   1.66994
C    -1.17647   0.94964   1.36156
C    -1.77886   1.67635   0.24120
H     3.30326   1.87957   0.81000
H     4.00290   1.26315  -0.70654
H     4.35907   0.43853   0.83780
H     2.47348  -0.85354   0.50243
H    -0.50805   1.42260   2.06818
H    -2.26920   2.55509   0.67403
H    -2.46464   1.06501  -0.34717
H    -0.96184   2.07208  -0.41385
19

C     3.59115   0.96690   0.27569
N     2.45443   0.08550   0.10845
C     1.37262   0.46563  -0.59448
O     1.26170   1.59296  -1.09884
C     0.33851  -0.54454  -0.74229
C    -0.58017  -1.31962  -0.88559
F    -1.40852  -2.23241  -1.27051
O    -2.19621  -1.03675   0.89264
O    -1.38205  -0.24745   1.67367
C    -1.18107   0.95409   1.36842
C    -1.78194   1.67628   0.24361
H     3.30341   1.87984   0.81021
H     4.00341   1.26312  -0.70609
H     4.35928   0.43878   0.83858
H     2.47427  -0.85393   0.50110
H    -0.50812   1.42398   2.06896
H    -2.26993   2.55609   0.67283
H    -2.46563   1.06397  -0.34529
H    -0.96256   2.07051  -0.41386
19

C     3.59269   0.96773   0.27739
N     2.45566   0.08691   0.10970
C     1.37701   0.46666  -0.59620
O     1.26247   1.59402  -1.09756
C     0.34666  -0.54953  -0.75306
C    -0.56303  -1.32910  -0.91295
F    -1.41073  -2.23658  -1.27410
O    -2.21642  -1.03250   0.91501
O    -1.38153  -0.24239   1.67740
C    -1.18568   0.95854   1.37528
C    -1.78501   1.67621   0.24601
H     3.30356   1.88011   0.81042
H     4.00392   1.26309  -0.70564
H     4.35949   0.43903   0.83936
H     2.47505  -0.85432   0.49976
H    -0.50820   1.42536   2.06975
H    -2.27066   2.55709   0.67163
H    -2.46661   1.06293  -0.34342
H    -0.96327   2.06894  -0.41388
19

C     3.59423   0.96857   0.27909
N     2.45688   0.08832   0.11094
C     1.38140   0.46770  -0.59793
O     1.26325   1.59509  -1.09628
C     0.35480  -0.55452  -0.76383
C    -0.54589  -1.33858  -0.94031
F    -1.41295  -2.24075  -1.27768
O    -2.23663  -1.02825   0.93738
O    -1.38100  -0.23734   1.68112
C    -1.19029   0.96298   1.38213
C    -1.78808   1.67614   0.24842
H     3.30371   1.88038   0.81063
H     4.00443   1.26306  -0.70519
H     4.35970   0.43929   0.84014
H     2.47584  -0.85471   0.49843
H    -0.50827   1.42674   2.07054
H    -2.27138   2.55809   0.67043
H    -2.46760   1.06189  -0.34155
H    -0.96399   2.06737  -0.41389
19

C     3.59577   0.96941   0.28079
N     2.45811   0.08973   0.11219
C     1.38578   0.46874  -0.59966
O     1.26403   1.59616  -1.09500
C     0.36294  -0.55951  -0.77459
C    -0.52876  -1.34806  -0.96767
F    -1.41516  -2.24492  -1.28127
O    -2.25684  -1.02400   0.95976
O    -1.38048  -0.23228   1.68485
C    -1.19489   0.96743   1.38899
C    -1.79115   1.67607   0.25083
H     3.30385   1.88065   0.81083
H     4.00494   1.26303  -0.70474
H     4.35991   0.43954   0.84092
H     2.47662  -0.85509   0.49709
H    -0.50835   1.42812   2.07133
H    -2.27211   2.55909   0.66923
H    -2.46858   1.06085  -0.33967
H    -0.96470   2.06580  -0.41391
19

C     3.59423   0.96857   0.27909
N     2.45688   0.08832   0.11094
C     1.38140   0.46770  -0.59793
O     1.26325   1.59509  -1.09628
C     0.35480  -0.55452  -0.76383
C    -0.54589  -1.33858  -0.94031
F    -1.41295  -2.24075  -1.27768
O    -2.23663  -1.02825   0.93738
O    -1.38100  -0.23734   1.68112
C    -1.19029   0.96298   1.38213
C    -1.78808   1.67614   0.24842
H     3.30371   1.88038   0.81063
H     4.00443   1.26306  -0.70519
H     4.35970   0.43929   0.84014
H     2.47584  -0.85471   0.49843
H    -0.50827   1.42674   2.07054
H    -2.27138   2.55809   0.67043
H    -2.46760   1.06189  -0.34155
H    -0.96399   2.06737  -0.41389
19

C     3.59269   0.96773   0.27739
N     2.45566   0.08691   0.10970
C     1.37701   0.46666  -0.59620
O     1.26247   1.59402  -1.09756
C     0.34666  -0.54953  -0.75306
C    -0.56303  -1.32910  -0.91295
F    -1.41073  -2.23658  -1.27410
O    -2.21642  -1.03250   0.91501
O    -1.38153  -0.24239   1.67740
C    -1.18568   0.95854   1.37528
C    -1.78501   1.67621   0.24601
H     3.30356   1.88011   0.81042
H     4.00392   1.26309  -0.70564
H     4.35949   0.43903   0.83936
H     2.47505  -0.85432   0.49976
H    -0.50820   1.42536   2.06975
H    -2.27066   2.55709   0.67163
H    -2.46661   1.06293  -0.34342
H    -0.96327   2.06894  -0.41388
19

C     3.59115   0.96690   0.27569
N     2.45443   0.08550   0.10845
C     1.37262   0.46563  -0.59448
O     1.26170   1.59296  -1.09884
C     0.33851  -0.54454  -0.74229
C    -0.58017  -1.31962  -0.88559
F    -1.40852  -2.23241  -1.27051
O    -2.19621  -1.03675   0.89264
O    -1.38205  -0.24745   1.67367
C    -1.18107   0.95409   1.36842
C    -1.78194   1.67628   0.24361
H     3.30341   1.87984   0.81021
H     4.00341   1.26312  -0.70609
H     4.35928   0.43878   0.83858
H     2.47427  -0.85393   0.50110
H    -0.50812   1.42398   2.06896
H    -2.26993   2.55609   0.67283
H    -2.46563   1.06397  -0.34529
H    -0.96256   2.07051  -0.41386
19

C     3.58961   0.96606   0.27399
N     2.45321   0.08409   0.10720
C     1.36824   0.46459  -0.59275
O     1.26092   1.59189  -1.10012
C     0.33037  -0.53954  -0.73152
C    -0.59730  -1.31015  -0.85823
F    -1.40631  -2.22824  -1.26693
O    -2.17600  -1.04100   0.87027
O    -1.38258  -0.25251   1.66994
C    -1.17647   0.94964   1.36156
C    -1.77886   1.67635   0.24120
H     3.30326   1.87957   0.81000
H     4.00290   1.26315  -0.70654
H     4.35907   0.43853   0.83780
H     2.47348  -0.85354   0.50243
H    -0.50805   1.42260   2.06818
H    -2.26920   2.55509   0.67403
H    -2.46464   1.06501  -0.34717
H    -0.96184   2.07208  -0.41385
19

C     3.58807   0.96522   0.27229
N     2.45198   0.08269   0.10596
C     1.36385   0.46355  -0.59102
O     1.26014   1.59082  -1.10141
C     0.32223  -0.53455  -0.72075
C    -0.61444  -1.30067  -0.83087
F    -1.40410  -2.22407  -1.26335
O    -2.15579  -1.04525   0.84790
O    -1.38311  -0.25757   1.66621
C    -1.17186   0.94519   1.35470
C    -1.77579   1.67642   0.23879
H     3.30312   1.87930   0.80979
H     4.00239   1.26318  -0.70699
H     4.35886   0.43827   0.83702
H     2.47270  -0.85315   0.50377
H    -0.50797   1.42122   2.06739
H    -2.26847   2.55409   0.67523
H    -2.46366   1.06605  -0.34904
H    -0.96113   2.07365  -0.41383
19

C     3.58653   0.96439   0.27059
N     2.45075   0.08128   0.10471
C     1.35947   0.46252  -0.58929
O     1.25936   1.58975  -1.10269
C     0.31409  -0.52956  -0.70999
C    -0.63157  -1.29119  -0.80351
F    -1.40189  -2.21990  -1.25976
O    -2.13558  -1.04951   0.82552
O    -1.38363  -0.26263   1.66248
C    -1.16726   0.94074   1.34785
C    -1.77272   1.67649   0.23638
H     3.30297   1.87904   0.80959
H     4.00188   1.26321  -0.70744
H     4.35864   0.43802   0.83624
H     2.47191  -0.85276   0.50510
H    -0.50790   1.41984   2.06660
H    -2.26774   2.55309   0.67643
H    -2.46267   1.06709  -0.35091
H    -0.96041   2.07521  -0.41382
19

C     3.58499   0.96355   0.26889
N     2.44953   0.07987   0.10346
C     1.35508   0.46148  -0.58757
O     1.25859   1.58868  -1.10397
C     0.30595  -0.52457  -0.69922
C    -0.64871  -1.28171  -0.77615
F    -1.39967  -2.21573  -1.25618
O    -2.11537  -1.05376   0.80315
O    -1.38416  -0.26769   1.65876
C    -1.16265   0.93629   1.34099
C    -1.76965   1.67656   0.23398
H     3.30282   1.87877   0.80938
H     4.00137   1.26324  -0.70789
H     4.35843   0.43777   0.83547
H     2.47113  -0.85238   0.50644
H    -0.50782   1.41845   2.06581
H    -2.26701   2.55210   0.67764
H    -2.46169   1.06812  -0.35279
H    -0.95970   2.07678  -0.41380
19

C     3.58345   0.96271   0.26719
N     2.44830   0.07846   0.10222
C     1.35069   0.46044  -0.58584
O     1.25781   1.58761  -1.10525
C     0.29781  -0.51958  -0.68845
C    -0.66585  -1.27223  -0.74879
F    -1.39746  -2.21156  -1.25259
O    -2.09516  -1.05801   0.78078
O    -1.38468  -0.27275   1.65503
C    -1.15804   0.93184   1.33413
C    -1.76658   1.67663   0.23157
H     3.30267   1.87850   0.80917
H     4.00086   1.26327  -0.70833
H     4.35822   0.43752   0.83469
H     2.47035  -0.85199   0.50777
H    -0.50775   1.41707   2.06502
H    -2.26628   2.55110   0.67884
H    -2.46070   1.06916  -0.35466
H    -0.95898   2.07835  -0.41379
19

C     3.58191   0.96188   0.26549
N     2.44707   0.07705   0.10097
C     1.34631   0.45940  -0.58411
O     1.25703   1.58654  -1.10653
C     0.28967  -0.51458  -0.67768
C    -0.68298  -1.26275  -0.72143
F    -1.39525  -2.20739  -1.24901
O    -2.07495  -1.06226   0.75841
O    -1.38521  -0.27781   1.65130
C    -1.15344   0.92739   1.32727
C    -1.76350   1.67670   0.22916
H     3.30253   1.87823   0.80896
H     4.00034   1.26329  -0.70878
H     4.35801   0.43726   0.83391
H     2.46956  -0.85160   0.50911
H    -0.50767   1.41569   2.06423
H    -2.26555   2.55010   0.68004
H    -2.45972   1.07020  -0.35653
H    -0.95827   2.07992  -0.41377
19

C     3.58037   0.96104   0.26379
N     2.44585   0.07565   0.09972
C     1.34192   0.45837  -0.58239
O     1.25625   1.58547  -1.10782
C     0.28152  -0.50959  -0.66692
C    -0.70012  -1.25327  -0.69407
F    -1.39304  -2.20322  -1.24543
O    -2.05474  -1.06651   0.73604
O    -1.38573  -0.28287   1.64757
C    -1.14883   0.92294   1.32042
C    -1.76043   1.67677   0.22675
H     3.30238   1.87796   0.80875
H     3.99983   1.26332  -0.70923
H     4.35780   0.43701   0.83313
H     2.46878  -0.85121   0.51045
H    -0.50760   1.41431   2.06344
H    -2.26482   2.54910   0.68124
H    -2.45873   1.07124  -0.35841
H    -0.95755   2.08149  -0.41376
19

C     3.57883   0.96020   0.26209
N     2.44462   0.07424   0.09848
C     1.33754   0.45733  -0.58066
O     1.25548   1.58440  -1.10910
C     0.27338  -0.50460  -0.65615
C    -0.71726  -1.24379  -0.66671
F    -1.39082  -2.19905  -1.24184
O    -2.03453  -1.07076   0.71366
O    -1.38626  -0.28792   1.64384
C    -1.14422   0.91849   1.31356
C    -1.75736   1.67684   0.22435
H     3.30223   1.87769   0.80855
H     3.99932   1.26335  -0.70968
H     4.35759   0.43676   0.83235
H     2.46799  -0.85082   0.51178
H    -0.50752   1.41293   2.06265
H    -2.26409   2.54810   0.68244
H    -2.45775   1.07228  -0.36028
H    -0.95684   2.08306  -0.41374
19

C     3.57729   0.95937   0.26039
N     2.44340   0.07283   0.09723
C     1.33315   0.45629  -0.57893
O     1.25470   1.58334  -1.11038
C     0.26524  -0.49961  -0.64538
C    -0.73439  -1.23431  -0.63935
F    -1.38861  -2.19488  -1.23826
O    -2.01432  -1.07501   0.69129
O    -1.38678  -0.29298   1.64011
C    -1.13962   0.91404   1.30670
C    -1.75429   1.67691   0.22194
H     3.30209   1.87742   0.80834
H     3.99881   1.26338  -0.71013
H     4.35738   0.43651   0.83157
H     2.46721  -0.85043   0.51312
H    -0.50745   1.41155   2.06186
H    -2.26337   2.54710   0.68364
H    -2.45676   1.07332  -0.36215
H    -0.95612   2.08463  -0.41373
19

C     3.57575   0.95853   0.25869
N     2.44217   0.07142   0.09598
C     1.32876   0.45526  -0.57721
O     1.25392   1.58227  -1.11166
C     0.25710  -0.49462  -0.63461
C    -0.75153  -1.22484  -0.61199
F    -1.38640  -2.19071  -1.23467
O    -1.99412  -1.07926   0.66892
O    -1.38731  -0.29804   1.63639
C    -1.13501   0.90960   1.29984
C    -1.75121   1.67698   0.21953
H     3.30194   1.87715   0.80813
H     3.99830   1.26341  -0.71058
H     4.35717   0.43625   0.83079
H     2.46642  -0.85005   0.51445
H    -0.50737   1.41017   2.06108
H    -2.26264   2.54610   0.68485
H    -2.45577   1.07436  -0.36403
H    -0.95541   2.08619  -0.41371
19

C     3.57421   0.95769   0.25699
N     2.44094   0.07002   0.09474
C     1.32438   0.45422  -0.57548
O     1.25314   1.58120  -1.11294
C     0.24896  -0.48962  -0.62384
C    -0.76866  -1.21536  -0.58462
F    -1.38419  -2.18654  -1.23109
O    -1.97391  -1.08351   0.64655
O    -1.38784  -0.30310   1.63266
C    -1.13041   0.90515   1.29299
C    -1.74814   1.67705   0.21712
H     3.30179   1.87688   0.80792
H     3.99779   1.26344  -0.71103
H     4.35696   0.43600   0.83001
H     2.46564  -0.84966   0.51579
H    -0.50730   1.40879   2.06029
H    -2.26191   2.54510   0.68605
H    -2.45479   1.07540  -0.36590
H    -0.95469   2.08776  -0.41370
19

C     3.57267   0.95686   0.25529
N     2.43972   0.06861   0.09349
C     1.31999   0.45318  -0.57375
O     1.25236   1.58013  -1.11422
C     0.24082  -0.48463  -0.61308
C    -0.78580  -1.20588  -0.55726
F    -1.38198  -2.18236  -1.22750
O    -1.95370  -1.08776   0.62417
O    -1.38836  -0.30816   1.62893
C    -1.12580   0.90070   1.28613
C    -1.74507   1.67711   0.21472
H     3.30164   1.87661   0.80771
H     3.99728   1.26347  -0.71148
H     4.35674   0.43575   0.82923
H     2.46485  -0.84927   0.51712
H    -0.50722   1.40740   2.05950
H    -2.26118   2.54410   0.68725
H    -2.45380   1.07644  -0.36777
H    -0.95398   2.08933  -0.41368
19

C     3.57113   0.95602   0.25359
N     2.43849   0.06720   0.09224
C     1.31561   0.45215  -0.57203
O     1.25159   1.57906  -1.11551
C     0.23267  -0.47964  -0.60231
C    -0.80294  -1.19640  -0.52990
F    -1.37976  -2.17819  -1.22392
O    -1.93349  -1.09201   0.60180
O    -1.38889  -0.31322   1.62520
C    -1.12119   0.89625   1.27927
C    -1.74200   1.67718   0.21231
H     3.30150   1.87634   0.80751
H     3.99677   1.26350  -0.71193
H     4.35653   0.43550   0.82845
H     2.46407  -0.84888   0.51846
H    -0.50715   1.40602   2.05871
H    -2.26045   2.54310   0.68845
H    -2.45282   1.07748  -0.36965
H    -0.95327   2.09090  -0.41367
19

C     3.56959   0.95518   0.25189
N     2.43726   0.06579   0.09100
C     1.31122   0.45111  -0.57030
O     1.25081   1.57799  -1.11679
C     0.22453  -0.47465  -0.59154
C    -0.82007  -1.18692  -0.50254
F    -1.37755  -2.17402  -1.22034
O    -1.91328  -1.09626   0.57943
O    -1.38941  -0.31828   1.62147
C    -1.11659   0.89180   1.27241
C    -1.73892   1.67725   0.20990
H     3.30135   1.87607   0.80730
H     3.99626   1.26353  -0.71238
H     4.35632   0.43524   0.82767
H     2.46329  -0.84849   0.51979
H    -0.50707   1.40464   2.05792
H    -2.25972   2.54210   0.68965
H    -2.45183   1.07852  -0.37152
H    -0.95255   2.09247  -0.41365
19

C     3.56805   0.95435   0.25019
N     2.43604   0.06438   0.08975
C     1.30683   0.45007  -0.56857
O     1.25003   1.57692  -1.11807
C     0.21639  -0.46966  -0.58077
C    -0.83721  -1.17744  -0.47518
F    -1.37534  -2.16985  -1.21675
O    -1.89307  -1.10051   0.55706
O    -1.38994  -0.32334   1.61774
C    -1.11198   0.88735   1.26556
C    -1.73585   1.67732   0.20750
H     3.30120   1.87580   0.80709
H     3.99575   1.26356  -0.71283
H     4.35611   0.43499   0.82689
H     2.46250  -0.84810   0.52113
H    -0.50700   1.40326   2.05713
H    -2.25899   2.54110   0.69085
H    -2.45085   1.07956  -0.37339
H    -0.95184   2.09404  -0.41364
19

C     3.56651   0.95351   0.24849
N     2.43481   0.06298   0.08850
C     1.30245   0.44903  -0.56685
O     1.24925   1.57585  -1.11935
C     0.20825  -0.46467  -0.57000
C    -0.85434  -1.16796  -0.44782
F    -1.37313  -2.16568  -1.21317
O    -1.87286  -1.10476   0.53469
O    -1.39046  -0.32839   1.61402
C    -1.10737   0.88290   1.25870
C    -1.73278   1.67739   0.20509
H     3.30105   1.87553   0.80688
H     3.99524   1.26359  -0.71328
H     4.35590   0.43474   0.82611
H     2.46172  -0.84772   0.52246
H    -0.50692   1.40188   2.05634
H    -2.25826   2.54010   0.69205
H    -2.44986   1.08060  -0.37527
H    -0.95112   2.09561  -0.41362
