8

C -4.135239094 -0.302684595 -0.268668221
C -2.291896183 1.357006831 -0.307683412
C -0.485033586 3.091734406 0.708455622
H -1.061995639 4.983820855 1.247499942
H 1.260882208 2.396541676 1.527891117
O -0.782079937 2.533776686 -1.980800020
H -4.962341472 -0.857626048 1.511868488
H -4.838284524 -1.123867464 -2.002290930

