15

O 0.848347852 -3.900620959 2.281587028
C 1.054926721 -1.814071487 1.393708752
C -3.092559007 -1.484338146 -0.965813190
C -1.144801000 -0.095530966 0.629674905
C 0.123661523 2.183813751 -0.639519244
C 2.905420412 1.742424940 -0.281819487
C 3.428292834 -0.450073029 0.831457593
H -2.271038539 -2.098684159 -2.758092563
H -3.765191922 -3.159164124 0.027421532
H -4.708902819 -0.273491483 -1.383865830
H -2.029124985 0.499729154 2.402686593
H -0.327358674 2.286923879 -2.656057425
H -0.460493281 3.988260769 0.177130889
H 4.305949279 3.099618155 -0.908003538
H 5.274483883 -1.211649362 1.261111280

