15

O 0.261222417 -3.249286391 3.223922544
C 0.333283494 -1.837616001 1.319368249
C -1.694629458 -2.206452349 -0.872537574
C -1.509448808 0.508604669 0.887041392
C -0.028366981 2.630755031 -0.304268828
C 2.583997821 1.537953814 -0.662210339
C 2.763566533 -0.801093474 0.203135581
H -1.145126316 -2.028350518 -2.835737914
H -3.118437899 -3.565572158 -0.321415202
H -3.078490979 -0.247157998 -0.789965198
H -2.904990877 0.742940194 2.361139452
H -0.840667929 3.341643675 -2.069381537
H -0.010951284 4.220823448 1.015155980
H 4.084615768 2.605333717 -1.552889907
H 4.446246553 -1.960517004 0.231294843

