13

C -2.873316440 -0.388227867 1.358596790
N -0.099429168 0.301280775 -1.534790451
C 1.606798786 2.377290412 -0.714838361
C 1.789066593 -0.014783875 0.673125283
O 0.823702799 -0.503924100 2.863967927
C 1.852721224 -1.722535214 -1.511762739
H -3.026965971 -2.371610765 0.911751395
H -2.985671430 0.083564899 3.334939305
H -3.893379642 0.862610333 0.107322441
H 3.012298673 2.961151704 -2.101300032
H 0.660751413 3.912833560 0.261101493
H 1.116453105 -3.609499957 -1.190510300
H 3.275537087 -1.586906754 -2.994494731

