10

C 3.018656807 1.483647470 -0.257301745
C 2.186104968 -0.683559236 0.241520095
C -0.005320089 -1.690725491 1.284738469
C -0.155607117 1.233418497 0.860752203
O -1.978853281 1.680905851 -0.893949097
N -3.044687898 -0.634994371 -1.726522479
C -1.917902395 -2.428686239 -0.576268127
H 4.354607970 2.986309912 -0.441199158
H -0.126582794 2.441287688 2.513289561
H -2.516210284 -4.342095715 -0.972465706

