15

C -3.010432322 -0.434750298 0.016513882
C -0.483018155 -0.056548675 -1.316615900
C -0.187166828 2.304289858 -2.801150767
C 1.780924878 3.774386574 -1.989706413
N 2.786328643 2.328018884 0.071481612
N 1.592879989 0.291958321 0.445814417
C 2.307680933 -1.461161562 2.419793093
H -3.420381269 1.173047719 1.238064237
H -4.506887279 -0.576701290 -1.389877615
H -3.031856714 -2.164082176 1.140578936
H -0.021427434 -1.716065566 -2.472004941
H -1.442912042 2.738099658 -4.358134558
H 0.780874954 -1.650096644 3.792450806
H 3.981213243 -0.702002736 3.334258758
H 2.721491403 -3.311040884 1.610892972

