15

C -2.858455559 0.205412360 0.465243693
C -0.555891285 -0.145746809 -1.223849680
C 0.025722272 1.931170067 -3.108595469
C 0.897793613 3.741144628 -1.540605440
N 1.678801660 3.783754910 0.587771986
N 1.988940355 -0.107765601 0.038858892
C 2.279458195 -2.000984374 1.954093976
H -2.733844108 1.950957408 1.550373510
H -4.560101739 0.271033951 -0.697858945
H -3.064086976 -1.368546595 1.781314049
H -0.704523612 -1.980206155 -2.186314860
H 0.379270017 1.713315750 -5.100158726
H 2.059519566 -3.871015999 1.072056540
H 0.881143482 -1.873119589 3.479529281
H 4.180680809 -1.897533188 2.737252380

