15

C -4.199793480 0.176039497 -1.534143597
C -2.121519118 -0.872587482 0.156716273
C 0.458083370 0.215400886 -0.489105813
C 2.567386373 -0.779660729 1.132225779
O 2.342639241 -2.253428786 2.852844168
C 5.186636751 0.127175545 0.499639846
O 5.833713747 2.374872961 1.215357099
H -4.348027811 2.228213925 -1.356559136
H -6.032385625 -0.627163837 -1.038169934
H -3.842239855 -0.255656720 -3.521687748
H -2.040662708 -2.929732891 0.000292832
H -2.542263050 -0.475026371 2.137712522
H 0.963385270 -0.155273958 -2.465371681
H 0.481939348 2.281438949 -0.302447680
H 7.325350072 1.065660649 0.218438091

