15

C 2.903949902 0.377819804 -2.071850124
C 1.090214031 -1.272239027 -0.596560686
O 1.686474647 -3.421002176 0.038192915
C -0.138747377 0.600999880 2.343729349
O -0.789162631 -0.869228040 4.208661983
C -1.796028004 -0.534447807 -0.928017911
C -2.318353653 1.644332583 0.973364592
H 3.010987184 -0.350353447 -4.002480618
H 2.314227228 2.351840488 -2.133452399
H 4.774901938 0.249610144 -1.228468302
H 0.634354566 -1.951294101 4.606701271
H -2.918638441 -2.192462574 -0.475493341
H -2.078167686 0.074225041 -2.874041396
H -1.941718235 3.476345016 0.126073475
H -4.157953110 1.570998643 1.893481067

