14

C 2.219724500 2.665551843 2.060334227
C -0.692135323 -0.407915563 -1.121932743
C -2.165737217 -2.594652116 -1.951205605
C -1.010931421 -2.478891122 0.684989078
C 0.170538788 1.829738677 -1.786395919
O 1.578964953 3.453845843 -0.404104175
H 0.527097453 2.354959632 3.205303677
H 3.327311803 0.920994782 2.017771057
H 3.342149385 4.178528297 2.884249508
H -4.201592008 -2.413323767 -2.100110978
H -1.328285318 -3.897511282 -3.293016033
H 0.580879436 -3.709128813 1.075209378
H -2.287918310 -2.222751823 2.267074404
H -0.211516951 2.604968679 -3.643206303

