14

C 2.752924691 1.649662631 1.837423740
C -0.153399198 -0.224096612 -0.882757440
C -1.345584287 -2.551462010 -1.925154597
C -1.607416953 -1.939908822 0.826420320
C -0.632707556 2.301757001 -1.398000905
O 0.487716335 3.945444715 -0.136101553
H 2.459010126 -0.150953987 2.758212806
H 4.311408074 1.697277966 0.519956253
H 2.677281014 3.229898009 3.131945000
H -3.019301336 -2.383224852 -3.100613719
H -0.098550068 -4.087372425 -2.457975198
H -0.529988772 -3.046213398 2.184880010
H -3.444883684 -1.347172980 1.513171247
H -1.899966437 2.951300581 -2.904164386

