14

N 3.753843493 0.936366381 3.193706107
C 1.271021703 0.960211153 2.559605255
O -0.281001387 2.205045523 3.695056665
C 0.574276714 -0.688571394 0.316635215
C -2.190926113 -0.405616031 -0.348483790
C -3.324336449 -1.521997080 -4.612211580
O -2.790932394 -2.191461133 -2.336639380
H 4.315736587 1.970829844 4.682301900
H 5.024588938 -0.117731714 2.265911164
H 0.980061857 -2.663354942 0.769835060
H 1.754497758 -0.187871469 -1.304358834
H -3.395410862 -0.870959559 1.251753205
H -2.641857701 1.495734139 -1.012319444
H -3.248988684 0.605638911 -4.664806003

