20

C -3.070501746 1.777939640 -0.865961497
C 0.217538450 1.430976532 2.646449452
N -1.362644999 0.139463016 0.561667422
C -2.460777001 -2.369935164 0.906802221
C 1.444283265 0.437667014 0.315502608
C 2.977530490 -1.986246230 0.214891624
C 2.348953535 2.281872944 -1.683851178
H -3.266123303 1.117800234 -2.814388128
H -4.911958294 1.745702764 0.059160654
H -2.366977534 3.698312908 -0.815896341
H 0.373609154 0.002255785 4.143299323
H -2.775248328 -3.290736060 -0.915868919
H -1.243758417 -3.539926496 2.064884367
H -4.268886893 -2.159651184 1.874361442
H 4.961431683 -1.476379734 0.453277399
H 2.523386349 -3.303015897 1.726631800
H 2.811108792 -2.960074390 -1.602793644
H 1.419623095 4.106171156 -1.531784236
H 2.130186612 1.541323763 -3.603412299
H 4.360813169 2.610528026 -1.369592237

