9

N -4.999555547 -2.233949451 -0.035766790
C -3.275003410 -0.694130137 -0.072642490
O 2.934574029 -0.852787990 1.779424341
C 3.660533069 0.636929412 0.260305635
O 2.324919053 2.532017880 -0.804433111
C -1.558988828 1.001341723 -0.059174071
N -0.207693770 2.911586021 0.077758356
H -4.522352003 -3.992468868 -0.660730418
H 5.580707557 0.733041053 -0.524841422

