9

N -3.769844145 -2.353484323 -0.125618750
C -2.693488874 -0.380570773 -0.119931998
O 1.577309175 -1.439773169 0.989690465
C 2.969774581 0.180242059 0.106196618
O 2.556014190 2.575589126 -0.044001649
C -2.120320163 2.059026216 -0.095128738
N -0.545326828 3.713323929 0.044671085
H -2.829394500 -4.023327604 -0.059298056
H 4.833971772 -0.332403052 -0.695280716

