12

O 2.971053359 0.938855472 1.597421870
C 2.208067554 -1.118910051 0.121742676
C -0.291170362 -0.546764097 -1.218692069
C -2.447571481 0.428080377 0.551971105
N -0.801753517 1.880159783 -1.897422526
H 2.367459490 2.417463136 0.699186194
H 2.023763284 -2.775056162 1.342601827
H 3.611301301 -1.569549827 -1.341074456
H -0.956060634 -2.099915883 -2.425630079
H -1.740401289 0.466382045 2.478581906
H -4.193460063 -0.569872538 0.162801550
H -2.804548154 2.485298503 0.059772359

