15

C -4.739454512 -0.420455313 0.278703423
C -2.038071761 0.359563481 -0.026235389
C -1.293149829 2.710748385 -0.718555452
N 1.613640294 2.378458528 -0.686320920
C 2.262929724 -0.232211039 -0.029848602
N 4.818343076 -0.828746308 0.320169702
C 0.068133527 -1.399019713 0.367826384
H -5.238579615 -1.965679584 -1.001338113
H -5.137473485 -1.063695542 2.203162392
H -5.969846499 1.178063127 -0.133150632
H 2.267474346 2.921991193 -2.411633407
H 2.341465514 3.615368331 0.595159643
H 5.074206966 -2.178526335 1.639980355
H 5.729956936 -1.328483815 -1.282476788
H -0.104345763 -3.365834003 0.907634740

