15

C -4.669497002 -0.392552052 0.175207356
C -1.939543444 0.346749985 0.097235045
C -1.141248579 2.771422540 -0.406064746
N 1.732473661 2.317134099 -0.474184252
C 2.323796215 -0.151000267 0.192282676
N 4.868668485 -0.841354410 0.471817011
C 0.103250856 -1.374083473 0.545675369
H -5.086955285 -1.887846981 -1.187403666
H -5.208409684 -1.091453407 2.043066364
H -5.851622795 1.233548208 -0.267375233
H 0.646682043 2.736248539 -2.334861110
H 2.912756045 3.766074500 -0.097356838
H 5.055623324 -2.435275544 1.498526776
H 5.779842172 -1.052727533 -1.193969481
H -0.074724779 -3.357200165 1.010767696

