9

N -2.083679979 1.765298166 -0.372749687
C 2.498300971 1.008061664 0.122399526
C 2.551865750 -1.378535838 -0.061644510
N 0.105604283 -1.844115657 0.879434451
C -1.985524487 -0.588641279 0.204298386
H -3.829145867 2.268286247 -0.995033363
H 2.389028730 2.991496964 0.449612162
H 3.868149644 -2.866899667 -0.533316863
H -3.666045476 -1.789491234 0.294569261

