13

C -1.362619695 0.223953767 2.067098634
C -0.625623653 -2.126028780 0.613384937
O -2.517531448 0.092334003 -2.083176349
C -1.021296909 1.617840626 -0.462058862
C 1.729090579 0.937237980 -1.125071956
O 3.324951139 0.283579918 0.874275669
C 1.960556650 -1.748827030 -0.267500219
H -3.324634364 0.206576299 2.668140126
H -0.070457872 0.769723075 3.566017453
H -2.272677291 -2.164703688 -1.040311220
H -1.503868541 3.622325566 -0.623941438
H 2.606183905 1.568246672 -2.867123317
H 3.052140298 -3.137038587 -1.292022532

