16

C 3.957796910 -0.945008477 -0.027562638
C 1.312910317 0.032733534 -0.551251989
C -0.917123546 -1.760068614 -0.027142779
C -3.191648195 0.001465388 -0.217687360
C -2.083558943 2.511889444 0.734054419
C 0.666546806 2.620684662 0.256610257
H 4.164003220 -1.391884920 1.976818972
H 5.365585481 0.480316678 -0.503705913
H 4.355458573 -2.662889314 -1.099215911
H 1.193313633 0.574508829 -2.593056847
H -0.990856048 -3.362604990 -1.322228670
H -0.738562682 -2.525110629 1.888173620
H -4.830674087 -0.632509645 0.858531529
H -3.786938702 0.203354675 -2.187629845
H -3.125979947 4.235071794 0.296471044
H -1.961451795 2.474246005 2.827966169

