14

C -3.431861582 0.205434225 1.055902576
N -0.879772599 -0.290419101 0.232909557
C 0.141857923 -2.615421415 -0.344094958
C 2.596442140 -2.268185412 -1.044058679
C 3.125840712 0.367689152 -0.898663227
C 0.932454402 1.489895377 -0.108064347
O 0.288444810 3.922212762 0.367698884
H -4.415946250 1.427480028 -0.280897168
H -3.444315141 1.109963369 2.907695151
H -4.435079273 -1.585387093 1.181268462
H -0.987584838 -4.304623542 -0.205002006
H 3.893884898 -3.736550137 -1.602208773
H 4.885382754 1.305505463 -1.319683833
H 1.730252005 4.972406324 0.057198382

