13

C -1.426134751 2.673429941 -3.920658462
C -0.390312594 0.848876332 -2.557988954
C 1.475540431 1.242651151 -0.467762207
C 3.995702472 -0.015350585 -1.018055708
O 5.573316063 0.323857125 1.114173093
H 7.184849993 -0.427741379 0.776701682
H 4.837721045 0.833449289 -2.712811966
H 3.699891416 -2.033756477 -1.404739423
H 1.782243095 3.258226119 -0.143377074
H 0.738794173 0.444345817 1.292914029
H -0.898366823 -1.102921040 -2.963614943
H -0.979014061 4.646113588 -3.581668600
H -2.769815630 2.268170974 -5.410770931

