18

C 3.832264841 2.096830319 -0.244803191
C 3.251462109 -0.406577713 0.587110090
C -0.090310200 -1.649876869 -0.767410976
C -1.768405235 -2.812608063 1.184033887
C -2.632276280 -0.489494454 -0.160744999
C -2.858633722 1.982649476 1.250702820
H 4.978656272 2.371457244 -1.907813033
H 1.497486444 0.592600104 -0.791057233
H 3.367198706 3.690356387 0.939070126
H 2.722041124 -0.711910211 2.544330542
H 4.248425752 -1.984777289 -0.256304367
H 0.135912467 -2.613731887 -2.563659096
H -1.217587902 -2.608839103 3.153276550
H -2.663093347 -4.603747893 0.757300469
H -4.077298087 -0.766491133 -1.591326426
H -4.672221212 2.076459884 2.230968333
H -2.732026720 3.603049981 -0.018611383
H -1.376270434 2.188294311 2.671592995

