14

C 2.948171535 1.652897823 0.013116041
C 0.534918519 3.022570014 0.560425154
C -1.616487279 -4.485207830 -0.574161025
C -1.620185927 -1.992741351 -0.745282661
O -2.278499726 -0.489092774 1.233612817
C -1.697731746 2.033107885 1.116623936
H 2.805831732 -0.364021439 0.397173717
H 4.468816289 2.419018570 1.178690460
H 3.520372706 1.892403848 -1.957593182
H 0.603830954 5.071698147 0.563086588
H -2.066150823 -5.435211798 1.179505385
H -1.174722583 -5.606018851 -2.221608519
H -1.171168329 -0.981384533 -2.474740905
H -3.302615199 3.200736266 1.622381430

