16

C 4.025080873 -0.816853355 -2.478854215
N 1.834179798 -0.094388570 -1.014695321
C 1.918008559 1.688191879 0.702219507
O 0.131746131 2.418595158 2.058862320
C -3.258034009 1.212443557 1.135170502
C -3.409330301 -1.479770167 0.778238351
O -2.363325204 -2.604387191 -1.112206058
H 4.467044784 -2.805165093 -2.161241010
H 3.668558453 -0.542759805 -4.490906677
H 5.660474144 0.317564375 -1.941387382
H 3.755048402 2.620513585 0.945245600
H -4.084968297 2.011090856 2.826006863
H -3.202446581 2.366039833 -0.554964261
H -3.751456864 -2.545939190 2.536688792
H -5.523524369 -0.546434246 0.404600001
H 0.121430380 -1.191466199 -1.250532953

