17

C 3.022881498 -2.023729042 -0.156130174
C 0.493610863 -0.678689903 0.061726090
C -1.824112282 -2.369946105 0.204068671
C -2.801394957 1.769100484 -1.070613546
C -1.438102897 3.102945754 0.717100892
C 0.456197650 1.464595345 2.038865162
C -0.478682632 0.857671817 -2.101537627
H 3.325516318 -3.206067920 1.509024640
H 3.050694468 -3.257926351 -1.808710051
H 4.606432816 -0.705480513 -0.289829393
H -1.578796616 -4.166677579 1.209907583
H -2.877906604 -2.615209804 -1.536222183
H -4.438102060 2.459634227 -2.080332840
H -1.875708892 5.030225575 1.273685064
H -0.214462353 0.954744875 3.934827232
H 2.314962180 2.349805499 2.189479906
H 0.236743982 1.096238345 -4.001556353

