12

O -2.914614647 1.309967938 1.110699266
C -1.772169135 -0.480864528 -0.442672918
C 0.291888137 0.296086938 -2.173691074
C 0.895020289 -1.214615854 0.194169775
C 2.237915212 0.102105172 2.265631371
O 3.775912528 -0.906984919 3.598383359
H -4.008110792 2.339541999 0.096235777
H -2.996532650 -2.021277538 -1.028396062
H 0.504792203 -0.637136848 -3.979004833
H 0.822910173 2.273499303 -2.139159542
H 1.407798928 -3.182724133 -0.017029947
H 1.755189757 2.122402490 2.514834828

