12

O -2.494252025 1.998358448 0.494963208
C -1.533490508 -0.732813303 -0.697808319
C 0.452764452 0.071332494 -2.259865137
C 1.061497998 -1.371570270 0.162751774
C 2.389171574 -0.022833806 2.233824899
O 3.802557364 -1.027715459 3.699144709
H -4.083415055 2.452947771 -0.289235811
H -3.174861550 -1.949387292 -0.752344643
H 0.874320361 -0.620754774 -4.132684184
H -0.971534789 2.518397944 -0.797719235
H 1.482483493 -3.386585614 0.146992384
H 2.056549805 2.047593732 2.304798874

