8

C -4.433633897 -0.922342006 -0.521763096
C -4.007716331 1.722735449 -1.571864364
H -3.517000112 1.665238623 -3.575164767
H -5.698815818 2.888695693 -1.380127838
H -2.472482834 2.684530306 -0.584515288
H -5.968914996 -1.884128831 -1.508952471
H -2.742335630 -2.087989972 -0.713769229
H -4.923793781 -0.865094869 1.481689203

