10

C 1.828737066 1.344632810 2.304063941
O 0.233567598 0.283416211 3.839674816
H -0.019878691 -1.522171597 3.506961339
C 2.794381768 -0.458251177 0.353303858
C 5.594822432 -0.105437364 -0.222993692
H 6.179393108 -1.305530427 -1.793088346
H 5.981567506 1.857499926 -0.711522421
H 6.752197537 -0.586065261 1.414028126
H 2.355689633 -2.451614153 0.810897335
H 1.682260237 0.028763521 -1.332680424

