14

C 4.566079850 1.296246637 -0.315751863
O 2.676337720 -0.545773786 -0.742503838
C -1.907534828 -0.731035279 -0.851194686
C -4.282008018 -1.321895927 0.575254610
C 0.420270498 0.056049636 0.363709370
O -1.105464158 1.857074057 -0.872705911
H 6.298378353 0.591461052 -1.170153943
H 4.049143852 3.098136364 -1.185630649
H 4.879819684 1.585339188 1.712125733
H -1.687227117 -1.652216142 -2.676050765
H -4.452750934 -3.356821048 0.870402826
H -4.291580029 -0.381178149 2.408396382
H -5.932977923 -0.686305821 -0.485147782
H 0.520305418 0.305090784 2.410605282

