11

O -3.959158325 -0.729399853 -1.254056782
C -1.862259503 -0.148127146 -0.166869015
C -0.069006732 2.065763373 -0.239476034
C 2.012945717 0.090463741 0.471926634
C -0.064679108 -1.897320386 0.654375553
H 0.088811119 3.028760606 -2.051626634
H -0.430715449 3.434567745 1.255974324
H 2.989238968 0.492965541 2.241226484
H 3.403332160 -0.212317439 -1.018818042
H -0.205077161 -3.685799199 1.631630562
H -1.996776577 -2.348976722 -1.403053580

