17

C -3.558628265 -0.543182594 1.055728589
C -1.838869947 0.002106156 -1.149696637
O -1.440104344 2.656136434 -1.404103795
C 1.198912003 2.617447410 -1.260796528
C 2.939028851 0.612092855 1.650949761
C 1.958004027 -2.000839073 1.419821119
C 0.950284479 -0.729970362 -0.893943182
H -5.380508497 0.365411975 0.733472137
H -2.757885468 0.210815069 2.800069106
H -3.869359673 -2.572086103 1.265123188
H -2.634515624 -0.788028833 -2.892774157
H 2.110909931 2.664079406 -3.118885254
H 1.887017410 4.165373403 -0.116303251
H 4.738957042 0.716107312 0.609275652
H 0.567988651 -2.552223097 2.826537612
H 3.266016118 -3.521248764 0.966615737
H 1.822318819 -1.443297357 -2.601669274

