10

C -1.751600184 -0.710189559 -0.974660566
C -1.325032060 1.407095118 0.839767361
N 0.644064017 0.587397291 -0.835794023
C 2.844704683 -0.530697495 0.007659022
O 4.024666305 0.138489883 1.827127492
H -1.852372796 -2.605843622 -0.198907583
H -2.845079926 -0.397743772 -2.677020138
H -2.123366439 3.250046137 0.446534743
H -1.097679564 0.945956439 2.823437422
H 3.481214085 -2.065318361 -1.254430418

