11

C -2.601958553 1.327616941 -0.293249155
C -0.067193748 0.797657252 0.827831530
C 1.563348332 -0.949339351 0.037395129
O 1.284924135 -2.587050258 -1.914924035
C 3.954399295 -1.268893721 1.297423124
N 5.849704874 -1.496155132 2.326553987
H -3.048430236 0.148936251 -1.926808409
H -2.728361275 3.294157050 -0.906306659
H -4.090598074 1.024656294 1.104015286
H 0.513556526 1.923088994 2.434262027
H -0.325547900 -2.316199838 -2.707176652

