11

C -2.727944439 0.639505015 -0.463127030
C -0.209300359 -0.688097735 -0.971531539
C 1.748521593 -0.488847998 0.809638475
O 1.225720886 -1.615355163 2.881408966
C 4.200283618 0.660127256 0.458099962
N 6.119748268 1.597996631 0.082827943
H -3.134603429 0.782264053 1.551471743
H -4.269018664 -0.405265676 -1.343460443
H -2.719929015 2.545390735 -1.259148441
H 0.326323860 -0.722924820 -2.954175743
H -0.425813159 -2.374952160 1.278979888

