13

C -3.072942100 3.410341532 0.382512126
C -1.920659637 1.636977901 -1.515590814
C 3.097802770 -2.485974477 0.101228566
O 3.635147282 -3.938219971 2.230303641
C -0.672491809 -0.402401078 -0.904709821
N 0.376263595 -2.366735215 -0.325719960
H -5.106968392 3.587358697 0.079865798
H -2.771272004 2.739033655 2.305683531
H -2.252436359 5.297999105 0.229073319
H -2.124615019 2.034428161 -3.515080641
H 3.933591880 -3.297180272 -1.612650153
H 3.909804386 -0.617283725 0.435325039
H 2.774445384 -5.527167761 2.056529566

