13

C -2.025342679 3.271688981 0.148361075
C -1.534308060 0.859680010 -1.274099425
C 2.356745934 -2.085706257 0.605679125
O 4.671841245 -2.660897977 1.263436569
C -2.177617585 -1.443575525 -0.314066624
N -2.088811531 -3.463066138 0.620087398
H -3.866001063 4.091884184 -0.321684431
H -1.992464562 2.961093614 2.187203636
H -0.592515727 4.685233564 -0.302548724
H -1.383350766 0.977034081 -3.316064210
H 1.709237343 -2.551583935 -1.256427840
H 1.342292271 -1.001536875 1.979171945
H 5.515133626 -3.611722313 -0.038257524

