11

C 2.817537338 0.112122648 2.048842519
C 1.125189290 0.094810716 0.241376249
C 0.106549449 1.105452763 -2.098400492
C -1.221660413 -1.075728562 -0.705671545
C -3.579283425 -0.590213247 0.563524040
N -5.459841260 -0.203144330 1.573280846
H 4.393770219 1.417287507 2.004111530
H -0.819796962 2.930806029 -2.053218879
H 1.003962187 0.625977826 -3.874947934
H -1.094343101 -2.933184778 -1.559541573
H 2.678604276 -1.171096746 3.636933810

