11

C 3.610926303 -0.019970701 1.299149313
C 2.632515179 0.803972207 -0.721469221
C 0.036040535 1.234426987 -1.301364809
C -1.431595001 -0.730236870 0.304203935
C -4.082231104 -0.807628676 -0.087618380
N -6.254628132 -0.777709398 -0.295476519
H 5.394344694 -0.469390924 2.161713158
H -0.483538793 3.186378712 -0.901163845
H -0.502123078 0.824760328 -3.267942939
H -0.590619841 -2.598786988 0.323632417
H 1.667258287 -0.371447213 2.405798651

