17

C 2.773010817 -2.835530573 2.898420583
O 1.657728020 -1.007253164 1.334898963
C -0.242899009 2.771472240 -4.305982595
C -1.241038402 0.920240932 -2.959370713
C -0.995212850 -1.129858576 1.305923981
C -1.964522429 1.114171374 -0.210700192
O -1.189719506 3.393317083 0.921946127
H 2.292151882 -4.755112858 2.278035552
H 2.173055314 -2.610134737 4.871109199
H 4.812847431 -2.587881586 2.782995903
H 0.125007934 4.605487878 -3.473473502
H 0.221121030 2.512725534 -6.281975454
H -1.616987339 -0.898923669 -3.838645785
H -1.644618177 -2.914810347 0.462473052
H -1.742372122 -1.014859519 3.239432906
H -4.031704098 1.086357118 -0.082405023
H 0.608692085 3.265710171 1.164400200

