11

C -3.336989828 -0.805223810 1.266928613
C -1.049212870 -0.282594652 0.379855606
C 0.337509735 2.122626649 0.415925451
N 2.495580030 1.957051832 -0.608854469
C 2.766613433 -0.617617696 -1.444718488
O 0.509071034 -1.950050264 -0.783081303
H -4.145794499 -2.674271153 1.114635490
H -4.422623975 0.671224748 2.165971297
H 3.023196459 -0.688226633 -3.493946946
H -0.383627953 3.862721481 1.220997629
H 4.382826078 -1.511749889 -0.519086072

