10

N 3.676670366 -0.184933550 -2.836312466
C 2.145868258 -0.154892025 -1.262416760
C 1.162804269 -0.636966753 1.809999108
N -0.706431782 -2.548518100 1.790689830
C -2.045186164 -1.645213535 -0.018007710
C -0.846869009 0.854243060 -0.514049234
N -0.213617665 1.656360784 2.094165352
H -3.600563234 -2.570097733 -0.974660283
H -1.278932267 2.303192248 -1.892653953
H 0.977741349 3.165800351 1.986933183

