12

C -2.385283293 0.710016536 1.127895680
C 0.299260336 -0.289535787 1.060623168
C 0.718017145 -2.258413203 -0.996014037
O -0.919555283 -3.014676912 -2.360626108
C 2.280552271 1.757633135 0.716342432
O 4.499862978 1.409384918 1.004597607
H -2.622896605 2.081380447 2.649246512
H -2.877014823 1.619929397 -0.655987754
H -3.726242116 -0.823373741 1.419149511
H 2.684296793 -2.955978674 -1.143767508
H 0.811459623 -1.251691563 2.824510030
H 1.545899017 3.631077606 0.125777525

