12

C -3.152752038 -0.067053889 1.651687737
C -0.458432742 -0.615308149 1.511376101
C 0.803170245 -0.417556020 -0.861567109
O -0.214171638 0.310188452 -2.904206584
C 3.484771570 1.028379225 -0.169369104
O 4.919497205 0.531371484 1.467802891
H -3.433041319 1.817896916 0.824394855
H -4.143872213 -1.296611335 0.306205722
H -3.972016192 -0.198902235 3.528973870
H 1.826507397 -2.327445825 -0.822506716
H 0.649931938 -1.153384495 3.152726659
H 3.731273096 2.491574680 -1.639303663

