12

N 4.102438399 -0.450987675 -0.612185698
C 1.748612735 -0.288385095 -0.270446869
C 0.368351255 2.201039380 0.085213855
N -2.236951980 1.408504948 0.268147318
C -2.519113149 -1.150817245 0.238638697
O -4.427213439 -2.368750419 0.461609920
N -0.092482989 -2.129164969 -0.122316473
H 4.693650461 -2.267693327 -0.805378749
H 1.048711185 3.131613127 1.798040355
H 0.719291311 3.441185566 -1.524555618
H -3.693097208 2.530474447 0.721207324
H 0.193043139 -3.998106525 -0.282187946

