12

N 3.817720337 -0.099948408 0.174621787
C 1.397650229 -0.310710961 -0.264983822
C 0.228771492 2.115443913 0.071238347
N -2.369208564 1.385965504 0.544982747
C -2.766029810 -1.115391419 0.151902649
O -4.655346601 -2.362083711 0.373981373
N -0.343221035 -2.142154285 -0.538394803
H 5.119222983 -1.343339746 -0.473310159
H 2.969703584 2.129384593 0.934634750
H 0.422646148 3.276385121 -1.626164756
H -3.806601774 2.520657622 1.026657269
H -0.059645634 -4.016311674 -0.398461944

