10

O 4.919637498 0.018543316 0.481740662
C 2.364104962 0.596884963 -0.078427697
C 0.708034855 -1.134727871 1.414049159
C -1.190577253 -0.376931595 2.851671895
H -2.372419738 -1.710276730 3.858627408
H -1.634355471 1.612403071 3.077918656
H 1.142704273 -3.133449279 1.233149381
H 1.988815369 0.315212497 -2.101347237
H 1.918711122 2.568982341 0.381741666
H 5.985241399 0.920762383 -0.670407101

