11

C -2.658042979 1.817164931 -0.482129625
C -0.837693689 -2.020827197 0.840769464
O -1.664865478 -3.694193362 1.907434257
C 3.246979848 -1.369371290 0.198118263
C 2.515748321 0.966456509 -0.529139812
N 1.227004672 2.712200073 -1.021420138
H -3.890631224 0.879332028 0.853419083
H -3.003161091 1.296596803 -2.428083416
H -2.560776300 3.825083371 -0.153888127
H 3.712265456 -2.750780003 -1.237504141
H 4.068802767 -1.624923697 2.054975323

