9

N 4.938162181 -0.831722022 -0.674239296
C 3.054067006 0.154165936 -0.204824826
C 0.872092298 1.681480441 0.484637442
C -1.909777271 -0.130410907 -0.547148619
N -0.930810095 0.350691633 2.015217545
H -0.750180075 1.342303401 -1.770475090
H -3.812023909 0.600287547 -0.806624607
H -1.537665669 -2.001071736 -1.295949270
H -0.222637743 -1.303334130 2.691289781

