10

N 0.551031137 1.786680379 0.138779540
C 2.667864622 0.368355375 0.619977643
C 2.970933305 -2.054578481 1.116203869
C -2.127275753 -1.795466340 0.623866000
C -1.790611350 0.651121237 0.170982571
H 0.712514583 3.650561702 -0.137058567
H 4.514239579 1.290713122 0.609464435
H -0.556630943 -3.082596106 1.020080946
H -3.991348354 -2.626079962 0.619066852
H -3.351811177 1.916261489 -0.214985600

