14

C 4.799571235 -2.164326310 2.131779500
C 2.701477181 -1.135758244 1.221405602
C 0.338321561 -2.282977489 0.397521843
H -0.013049069 -4.295336785 0.436659620
C -1.210133197 -0.426427037 -0.369685043
C -3.827778915 -0.637483631 -1.373582828
H -3.922278902 0.152678570 -3.278213449
H -5.121089049 0.474472435 -0.211348160
H -4.486726206 -2.589148742 -1.427399016
C 0.054267360 2.098591393 -0.093327885
N 2.292728286 1.483704464 0.834046896
H 3.625434298 2.777119535 1.243292467
H 6.412720522 -1.022544166 2.663283548
H 4.947471520 -4.188986174 2.366440531

