12

O 1.496840612 4.077637879 0.093055613
C 1.082343737 1.858688998 0.303451087
N 3.174522457 0.160815655 0.166817463
C 3.399390796 -2.311442925 0.385532759
C -2.724915473 -0.983437153 -0.993893462
O -2.249522325 -1.397287345 1.599408048
C -1.600386189 0.984706350 0.599657267
H 4.768324746 1.184423530 -0.153446083
H 1.504716442 -3.068839184 0.765604908
H -1.537144577 -2.042888030 -2.289972896
H -4.699579930 -0.805540642 -1.515024255
H -2.783851136 2.546501176 1.207263516

