11

C -2.538763031 -1.224484476 -0.148816556
C -0.488742286 0.618075539 -0.887229836
O 0.942589476 1.342468053 1.455287084
C 3.209995338 0.767696684 0.926771637
C 3.666373570 -0.325359646 -1.615920664
N 1.351503646 -0.331182365 -2.543624125
H -3.817159240 -0.392404219 1.233090270
H -3.601629682 -1.718988689 -1.839762711
H -1.698866488 -2.941659085 0.619265953
H -1.248964839 2.417380442 -1.564921586
H 4.583758408 1.155488289 2.405575795

