12

C -2.944596815 -0.736129716 -0.550634956
C -0.383468252 -0.476743584 0.729379558
C 1.703573683 -2.103816240 -0.190842988
C 3.618214410 -0.317356032 -0.561667025
N 2.939580481 2.100400560 -0.084746752
N 0.630849313 2.097704658 0.621005824
H -4.338263634 0.541496618 0.275316712
H -2.781096709 -0.332199207 -2.564065935
H -3.605789858 -2.670684302 -0.332895458
H -0.531817875 -0.966085367 2.748438841
H 5.529387206 -0.626631029 -1.209977578
H -0.191337794 3.742342847 1.114005834

