12

C -3.140996354 -0.685554692 -0.391162499
C -0.388604339 -0.334934850 0.218603140
C 1.677516552 -2.076826963 -0.327844485
C 3.739363675 -0.325088036 -0.269323049
N 3.090259721 2.078757848 0.005268160
N 0.632134043 2.131738304 0.235286757
H -4.350029843 0.516522716 0.770517932
H -3.484296625 -0.246004415 -2.374262277
H -3.656507253 -2.650423452 -0.072577124
H 0.128413315 -1.249801799 2.139800178
H 5.719240979 -0.759824595 -0.512290976
H -0.240368136 3.784647031 0.578367877

