17

C -3.849516075 -0.824267279 0.085484029
C -1.988993759 0.984348720 -1.088426387
O -0.728288808 2.633047156 0.611151904
C 1.550426177 2.581661855 -0.659638100
C 3.020767442 0.226779702 -0.332699758
C 2.206654191 -1.386608484 2.064062260
C 1.512344529 -2.039380774 -0.486646353
H -5.516299757 0.210802937 0.746922566
H -3.032276120 -1.853630428 1.665161768
H -4.467049546 -2.182898122 -1.335328346
H -2.981983837 2.172979895 -2.462593292
H 0.069426213 1.191140542 -2.517737844
H 2.528546132 4.397374739 -0.639226374
H 4.953585464 0.312050532 -1.005557910
H 0.945325913 -0.202924895 3.177862586
H 3.459320512 -2.579307842 3.175983008
H 2.091440745 -3.803354015 -1.353853275

