17

C -3.299689091 1.037433262 -0.201729719
C -1.893675595 -1.443393582 0.020251741
C 0.634225687 -1.739836903 -1.374771844
C 2.263482620 0.611741139 -1.611111859
C 2.619776063 1.540292256 1.054124589
C 1.408391886 0.207462524 2.812361964
C -0.081336175 -2.063032586 2.100409082
H -3.957497445 1.323392024 -2.137898622
H -4.963660086 1.004696251 1.016511178
H -2.153280218 2.657914761 0.339896478
H -3.143557462 -3.018951775 -0.422052850
H 0.530893308 -3.039651929 -2.963421568
H 1.372325102 2.053862898 -2.804219493
H 4.069199647 0.147762183 -2.504167305
H 3.831885932 3.137295930 1.471659746
H 1.540740291 0.640660866 4.811422672
H 1.669385514 -3.059036305 0.105726095

