15

C 3.638239441 -0.286307549 1.358078778
C 1.396552903 0.234375324 -0.206823740
C -0.324823304 -1.608447043 -1.260380882
C -2.642705451 -0.439411666 0.097421807
O -2.743044050 -0.929635819 2.736273256
C -2.190621905 2.310641567 -0.397576456
O 0.617099156 2.604854747 -0.230943619
H 4.783621191 1.410339664 1.573295094
H 4.753511523 -1.862990808 0.649378607
H 2.910465300 -0.794710319 3.237332891
H -0.580718942 -1.432462518 -3.301557633
H 0.132912167 -3.546579787 -0.757137839
H -4.045996588 -2.156351363 2.977283994
H -2.766018963 2.924961597 -2.280536510
H -2.950417455 3.560294890 1.045112580

