13

C -2.918905025 -0.998618873 -0.694150678
N -1.018372312 -0.426060959 1.182414694
C 0.015197366 2.163853632 1.296490790
C 1.497249378 -0.042749857 0.468490167
C 3.848463989 -1.504630233 0.847685238
C 3.590657006 -1.033074665 -1.590552640
H -2.873940126 -3.017639417 -1.102380654
H -2.625168963 0.045642309 -2.471825795
H -4.779596396 -0.520552386 0.046875715
H -0.632027482 3.497501237 -0.127200621
H 0.293045102 2.933836393 3.173610589
H 1.730247035 0.531628241 -1.989642313
H 3.961600947 -1.637196958 -3.506454306

