12

N 3.902977618 -0.098920681 0.272628766
C 1.523188042 0.987951067 0.324515902
O 1.659834592 3.481902474 0.942334325
C -0.612142933 -0.192041169 -0.202954620
C -3.218325288 -0.303505020 -0.986460451
N -1.506406821 -2.542891950 -1.141079165
H 4.994722307 0.361853432 1.764977725
H 3.871999583 -1.969251110 -0.070113960
H -0.028705015 4.132615020 1.065952914
H -3.799275722 0.435455449 -2.809120157
H -4.695550600 -0.339704198 0.439227286
H -1.909547103 -3.750423599 0.297263897

