13

C -2.923524914 -0.105945284 -0.723041945
C -0.604765121 -0.180331348 0.922808560
N 1.609218977 -1.627274233 -0.234477482
C 3.092531852 0.753699860 -0.154174874
C 1.151596171 2.182183787 0.889989101
O 0.683935896 4.333119459 1.562147902
H -3.921767391 -1.911810881 -0.799459049
H -2.438250162 0.496107664 -2.638179935
H -4.206201579 1.309028121 0.051974215
H -0.990641886 -0.933105980 2.804323201
H 2.231209424 -3.081011136 0.863398386
H 1.197285308 -2.327948341 -1.980553581
H 5.008973715 0.906005078 -0.823146199

