13

N 2.553968958 -3.049113920 1.466537247
C 2.911894859 -0.819041771 1.392405426
C 1.983449303 1.473623588 0.799494198
C 0.753033071 1.431927234 -1.809333887
C -1.795886464 0.353014389 -1.046834404
C -2.020336511 -1.645204824 0.862407131
N -1.922192111 0.665711170 1.781241653
H 2.312179729 3.166641978 1.881304768
H 1.825039117 0.343818434 -3.192369390
H 0.496274905 3.340101470 -2.540936481
H -3.455614607 0.920266368 -2.116280533
H 0.195444112 -2.994530863 1.447282771
H -3.374666431 -3.117191323 1.298721158

