11

C -1.501762913 1.799257735 -0.567035227
C -2.230421748 -0.757100574 0.443745111
C 4.368228001 -1.669544307 -1.025491837
O 2.029853909 -1.127253022 -1.426109977
C 0.459302734 0.050774881 0.424279061
H -1.936391664 3.466750008 0.531654622
H -1.554596462 2.050928380 -2.594984632
H -3.176193183 -0.881237854 2.251099207
H -2.759290574 -2.184124630 -0.920660622
H 4.817951241 -1.043445898 0.957150723
H 1.473633943 0.447326123 2.161131293

