11

C -1.552411958 1.667424129 -0.604125279
C -1.447143214 -1.003341223 0.287057467
C 2.367882373 -2.177668362 -0.631412829
O 2.839655165 0.296233675 -1.545819100
C 1.022140275 0.913440035 0.184226584
H -2.452505216 3.052267514 0.601765653
H -1.835278013 1.948593304 -2.609254729
H -2.011623267 -1.410381144 2.208077570
H -1.875448639 -2.450998878 -1.071628517
H 3.269158109 -2.235910534 1.276993502
H 1.692421294 1.500993965 2.030771031

