11

O 4.522403971 0.218479571 1.052386778
C 2.538821575 -1.253613131 0.342711357
C 0.220533061 -0.459363073 -0.048679704
C -1.557637126 1.663867173 -0.082406497
C -2.384008786 -1.023191908 -0.743767195
H 3.090774444 -3.212212251 0.124410932
H 3.939523806 1.931393055 1.215249252
H -2.212544013 2.440020589 1.698437010
H -1.450620443 3.022058069 -1.614187936
H -3.578038152 -2.001161290 0.604127773
H -2.819051367 -1.417862362 -2.707050872

