14

C 2.300698187 -0.620582393 0.894288246
N -0.494196508 -0.425909365 0.667233476
C -1.259222707 1.414749548 -1.289860062
C -1.977090847 -2.851149613 0.172579427
C -0.249640569 3.948279077 -0.835152461
N 0.535943261 5.926601005 -0.431373527
H 3.025524072 -1.335732540 -0.893655245
H 2.707293304 -1.984161767 2.374501498
H 3.159329437 1.202705666 1.342242250
H -1.181987654 0.222525947 2.339961594
H -0.602018839 0.704772527 -3.109089878
H -3.317158154 1.416946109 -1.319172775
H -1.106437783 -3.618981658 -1.553096983
H -1.413735672 -4.103383281 1.726949236

