17

C 3.579073741 -0.486495024 -0.077468888
C 1.411320186 0.530548376 1.008779326
C -0.106185676 -1.252294725 2.242682669
C -1.911526289 -1.878559884 0.426924753
C -2.516789900 0.434530069 -1.166148877
C -0.274722337 2.218072634 -0.589042467
O -1.002505700 4.457066539 0.672208672
H 4.657847956 0.572997672 -1.463287976
H 1.933927234 -2.250520516 -1.586592851
H 4.650211175 -1.906613662 0.952481436
H 0.627659247 -2.613236609 3.584726006
H -3.287957350 -3.383732260 0.643721542
H 0.128232657 -2.944809787 -1.291522114
H -2.705243745 -0.003376147 -3.169635342
H -4.282812210 1.309616941 -0.554936501
H 0.675766365 2.838676608 -2.307762891
H -1.444258302 4.011467078 2.375905640

