11

N 4.403100591 0.191601562 1.395758084
C 2.086019271 0.468523955 0.938764633
C -0.041499444 -0.700310486 2.291233910
H 0.226609211 -1.960097447 3.870595687
C -2.177869485 0.064698950 1.234976689
H -4.083961564 -0.439365066 1.768980146
C -1.577520295 1.803698440 -0.909688343
H -2.351100509 3.702345905 -0.639620552
H -2.246521497 1.083389852 -2.729123364
O 1.105868786 1.940161611 -0.944912724
H 5.474637041 1.214970045 0.172482012

