9

N 5.986335531 1.608560294 -0.324812060
C 4.136857304 0.671850946 -0.973604871
C 1.864238519 -0.508904285 -1.793012644
C -0.351227578 0.326276484 -0.989657603
C -2.047938815 1.902410439 0.392461629
H -2.370082751 1.554460421 2.384945315
H -2.540664455 3.754282987 -0.330309689
O -2.784436177 -0.204575136 -1.268209300
H 1.978822422 -2.095534269 -3.075898974

