11

N 5.278793497 1.685080029 -0.596682762
C 3.642059995 0.244097549 -0.648116723
C 1.618579962 -1.487254806 -0.642144981
C -0.827656617 -0.587426941 0.030645896
C -2.084156739 1.831242219 0.139653161
O -3.057692710 -0.322312670 -1.238792519
H -0.068135360 -2.075688838 1.843105447
H 1.779631002 -3.287317696 -1.591186095
H -1.825938306 -1.785715807 2.228604323
H -3.173509810 2.369960221 1.787562220
H -1.327396372 3.333948125 -1.028763879

