12

C 5.627501220 -1.023709088 0.966197182
C 3.422768673 -0.561228874 1.162297029
C 0.728218869 -0.002091039 1.344396613
C -0.554300249 0.026559987 -1.200541741
C -3.138821071 -0.084104340 -1.434145565
C -5.471392664 -0.104461093 -0.662681296
H 7.589892870 -1.435697143 0.804917731
H 0.471957645 1.820054719 2.290007629
H -0.220774776 -1.401082331 2.537190647
H -2.611234444 1.764136533 -2.549350354
H 0.612845684 0.293893004 -2.861327451
H -6.497899360 -1.868059678 -0.404213212

