15

C 2.652503133 -0.036126820 1.721554313
C 0.554470230 0.382119328 -0.128040812
C -0.300215687 -1.617561494 -1.919893221
C -1.998596365 -0.738611966 0.199903601
O -2.374522568 -2.242529715 2.320086022
C -0.283252334 4.819518599 -0.028735289
O 0.622491621 2.891013518 -1.217037651
H 4.478331438 0.187724656 0.791418586
H 2.525520813 -1.928537150 2.517141900
H 2.521053368 1.315117914 3.275126998
H -0.796720364 -1.043287029 -3.818697722
H 0.584021654 -3.454579699 -1.747444790
H -3.460786297 -3.621136002 1.867871877
H -3.593053463 0.442107984 -0.333035713
H -1.096914489 4.097134694 1.796230677

