16

C 5.445049013 0.256828747 0.497628346
O 3.063600315 0.710282609 0.918920411
C 1.341897167 1.628003837 -0.533200097
C -1.279075829 1.822359127 0.453809017
C -3.108364998 -0.158128578 -0.626362650
C -2.391584358 -2.853877678 0.076126313
H 6.239020827 0.686346110 -1.335013801
H -0.511795849 -3.336145763 -0.626979362
H 6.475494086 -0.469953779 2.089750668
H 1.874492929 2.102805274 -2.458090321
H -1.205812981 1.644451560 2.512426220
H -2.027318992 3.709666515 0.047840080
H -3.171588809 0.034707334 -2.685344419
H -5.015950924 0.263508437 0.051593416
H -2.368323738 -3.104014565 2.126340925
H -3.727469134 -4.214847756 -0.709134015

