16

C 4.083995957 -1.070147690 0.388728720
O 2.687689985 1.056565699 1.158627124
C 0.857938023 1.600799756 -0.325181898
C -1.686386964 2.376274042 0.566505140
C -3.029787389 0.041628248 -0.526051017
C -1.090646664 -2.107449484 -0.085146297
H 4.828943079 -0.850288071 -1.527676161
H 1.393179307 -2.171538279 -0.135770416
H 5.545521367 -1.428924611 1.784063997
H 1.203442300 1.492641187 -2.353780216
H -1.735476984 2.383922860 2.626647182
H -2.360047134 4.188808917 -0.150835558
H -3.311120176 0.330227675 -2.552861408
H -4.894734631 -0.323674539 0.292669217
H -1.200513905 -2.686512440 1.899635017
H -1.524194378 -3.759759867 -1.246444662

