10

C -3.233538926 0.475316822 1.291100346
C -0.708343410 -0.014515648 0.067630766
N 0.383887582 2.085615399 -1.000037283
H -0.096619070 3.797195152 -0.340900773
H 2.192819430 1.872255191 -1.543326589
N 0.398302356 -2.140191275 -0.111870993
H -0.666984977 -3.528787694 0.664653679
H -4.558054864 1.253006850 -0.085978381
H -3.041232345 1.843604467 2.825596415
H -4.019716545 -1.260484439 2.063226793

