16

C 0.597595576 3.016716928 -0.795660322
C -0.076949553 0.329706167 -0.100941006
C 1.857399600 -0.695000318 1.727199643
O 4.184383292 -1.138682482 0.954692208
C -1.213942866 -1.377399281 -2.031599524
C -2.783133229 -0.444051095 0.153582370
H -0.773172316 3.775306398 -2.134896301
H 0.605130273 4.237538132 0.870476809
H 2.468364308 3.078965980 -1.658279385
H 0.750129525 -3.091160837 2.287940816
H 1.600841046 0.063799176 3.657972282
H 2.486522875 -3.042643233 1.704095587
H -0.653871374 -3.347051335 -2.038364253
H -1.578744573 -0.606273349 -3.890253940
H -4.219538737 0.966583669 -0.208293834
H -3.281733234 -1.798084725 1.608605156

