13

N -4.085822340 0.295861815 0.257373309
C -1.371784999 0.380382083 -0.341173857
C -0.203354014 2.636669968 -0.578118055
C 2.431028403 1.863884139 -0.407579834
C 2.564621949 -0.654693651 0.113118949
O 4.516196013 -2.294532238 0.386667388
N 0.178552379 -1.675164901 0.340872672
H -5.159313296 -0.841089867 -0.868708895
H -4.457491708 -0.127757372 2.104525889
H -4.540899476 2.157455076 -0.062134516
H 4.061363917 3.090653351 -0.561284054
H 6.037510316 -1.433605405 -0.089739579
H -0.074540209 -3.466204633 -0.262353588

