10

C -1.764959489 1.434572907 1.743130734
C -0.608228819 2.580343582 -0.313922268
H 0.164448200 4.474848748 -0.425264988
O -0.999695904 1.388394407 -2.703697080
C -3.249793178 1.341848506 -1.295684821
H -4.756542833 2.615394789 -1.826401478
C -3.148260990 -0.799218676 0.512376316
O -1.917066814 -2.964075148 -0.304741392
H -0.567878669 -2.465050182 -1.418952091
H -4.862153333 -1.332685923 1.494798403

