9

O -0.626191516 -4.105243868 -0.987097629
C -2.183337937 -2.803720170 0.011412850
C -1.577551287 -0.815480280 1.964753184
C -2.896336423 1.663201612 1.462352940
O -1.869458037 3.676575294 1.548962792
H -4.941896129 1.524410809 1.014737972
H 0.454277991 -0.547318070 2.138626148
H -2.327419557 -1.522406716 3.767915962
H -4.218147086 -3.025034935 -0.452160118

