19

C -3.054916872 1.786473643 -0.387348880
C -0.875894352 -0.017089852 0.125966139
C -0.417185388 -2.523189420 -1.234009017
O 1.978467890 -3.383429810 -0.119939632
C 2.796935732 -1.699341641 1.447417867
C 1.664747426 1.724286309 -2.045821773
C 0.922490179 0.062548820 2.343590756
H -4.680051104 0.762164983 -1.128578135
H -2.562923520 3.271994795 -1.736640904
H -3.668293494 2.666031626 1.368963015
H -2.700722443 -1.390603573 2.180969430
H -1.783524102 -4.005183852 -0.869292215
H -0.076818350 -2.340185602 -3.262280885
H 4.609456662 -2.143986261 2.299869750
H 3.556947845 1.013546765 -2.460391402
H 1.816765443 3.599924469 -1.205724749
H 0.614113785 1.830683427 -3.813198676
H 1.632382219 1.918815227 2.862815157
H 0.008319066 -0.840390007 4.041237540

