16

C 5.028944359 0.692090405 0.128391470
O 2.430781718 1.150803450 0.425222299
C 1.075598454 -1.053473975 1.024325951
C -1.602887884 -0.353799986 1.583301156
C -4.124950366 1.305157546 -2.675100081
C -3.564851889 -1.806233187 0.789053178
N -5.286423172 -2.601001728 -0.374742971
H 5.918723511 2.486357165 -0.342510233
H 5.391964905 -0.662555818 -1.400323700
H 5.873454499 -0.045733394 1.873531493
H 1.938045817 -1.968346479 2.685462943
H 1.155529334 -2.423537793 -0.536180214
H -1.939718546 0.999641461 3.083095693
H -4.989686622 1.739878629 -0.904022717
H -4.564345535 2.521863192 -4.272946290
H -2.714372521 -0.113679442 -2.942690422

