10

C 4.223618693 -0.480739542 -1.562345965
N 3.181635519 1.881964963 -0.610338188
C 0.911165712 2.298082882 -0.720536622
C -1.475116282 2.950287083 -0.752516060
O -3.209403060 2.476373043 1.124447667
H -2.353675129 1.861592392 2.599665049
H -2.264172767 3.921292276 -2.365126945
H 5.623671331 -0.037817520 -3.007914924
H 5.206400660 -1.428289228 -0.018406537
H 2.786815002 -1.740580114 -2.349721481

