14

C 4.346867368 -0.762881983 -1.621995926
N 2.610111096 1.309600765 -1.239931230
C 0.410209105 0.912971515 -0.469220811
C -1.424849416 2.869614826 0.196055930
O -4.032225379 1.040114745 0.503029258
C -3.161427430 -1.468440296 -0.001347507
O -0.539526389 -1.481263429 0.094807730
H 5.509320885 -0.360361191 -3.275531361
H 5.620048178 -0.908919092 -0.000939799
H 3.421331177 -2.593511628 -1.878618050
H -1.911549419 4.182757561 -1.302058206
H -3.190009708 1.872381254 2.097402396
H -3.856887179 -1.932745059 -1.892564531
H -3.906863386 -2.769333183 1.411620407

