16

C -3.519860137 0.062286866 -1.067045743
C -2.601640663 -0.589882451 1.241707138
C 1.656343342 -1.454185430 1.077693952
C 2.599633850 -1.352835412 -1.265059599
C 3.085164565 0.845199700 0.362409711
O 1.838499240 3.132627456 -0.206161542
H -3.672531167 2.031185731 -1.605657278
H -4.606707299 -1.276287633 -2.172402470
H -1.152729119 -0.233059469 -3.079562491
H -2.091946964 0.849319398 2.598328011
H -2.942363367 -2.463221796 1.988772416
H 1.494168407 -2.749964832 2.634727746
H 3.573121690 -2.511567737 -2.627645222
H 0.387520921 -0.526880720 -3.123369234
H 4.979841168 1.171411991 1.110878658
H 1.637331166 4.061151190 1.336914110

