26

C     2.59087   3.26463  -0.05710
N     2.14467   2.01555  -0.63034
C     2.01852   0.87972   0.09426
O     2.35728   0.80362   1.29752
C     1.46626  -0.25542  -0.61333
N     1.38013  -1.38720   0.07191
N     0.95797  -2.53039  -0.33596
C    -1.64008  -1.71077  -0.48258
F    -1.70208  -2.43832   0.62538
F    -1.69535  -2.47197  -1.56301
C    -1.38829  -0.41243  -0.52885
F    -1.36361   0.17325  -1.73811
C    -1.14126   0.45106   0.65626
O    -0.97269   0.02256   1.77547
O    -1.13460   1.73252   0.32207
C    -0.87166   2.66442   1.39035
H     3.39276   3.07116   0.66704
H     2.98125   3.90437  -0.85951
H     1.77720   3.79594   0.45664
H     1.75127   2.01288  -1.56888
H     1.09840  -0.23250  -1.64306
H     1.71019  -1.32310   1.03061
H     0.74676  -3.12524   0.42145
H    -1.67491   2.61460   2.14732
H    -0.85038   3.65928   0.93568
H     0.08810   2.43330   1.86552
26

C     2.59102   3.26405  -0.05753
N     2.14399   2.01467  -0.63039
C     2.01784   0.88030   0.09501
O     2.35708   0.80227   1.29698
C     1.46076  -0.25586  -0.61228
N     1.37572  -1.38753   0.07078
N     0.92681  -2.51972  -0.33811
C    -1.60729  -1.71893  -0.48071
F    -1.70097  -2.43871   0.62575
F    -1.68946  -2.47099  -1.56211
C    -1.38052  -0.41202  -0.52728
F    -1.36521   0.17158  -1.73885
C    -1.13995   0.45006   0.65472
O    -0.97115   0.02310   1.77618
O    -1.13547   1.73426   0.32198
C    -0.87233   2.66428   1.39064
H     3.39286   3.07092   0.66681
H     2.98110   3.90412  -0.85977
H     1.77717   3.79556   0.45656
H     1.75111   2.01253  -1.56894
H     1.09720  -0.23223  -1.64292
H     1.70878  -1.32525   1.03035
H     0.73835  -3.12466   0.41876
H    -1.67494   2.61468   2.14763
H    -0.85056   3.65944   0.93612
H     0.08794   2.43343   1.86568
26

C     2.59118   3.26347  -0.05797
N     2.14331   2.01378  -0.63044
C     2.01717   0.88088   0.09577
O     2.35688   0.80092   1.29643
C     1.45527  -0.25630  -0.61123
N     1.37130  -1.38786   0.06965
N     0.89564  -2.50905  -0.34026
C    -1.57450  -1.72709  -0.47883
F    -1.69987  -2.43910   0.62612
F    -1.68357  -2.47002  -1.56122
C    -1.37275  -0.41160  -0.52570
F    -1.36681   0.16992  -1.73959
C    -1.13864   0.44906   0.65318
O    -0.96960   0.02365   1.77690
O    -1.13634   1.73600   0.32190
C    -0.87301   2.66415   1.39094
H     3.39295   3.07068   0.66659
H     2.98095   3.90387  -0.86003
H     1.77713   3.79518   0.45647
H     1.75095   2.01219  -1.56901
H     1.09600  -0.23196  -1.64277
H     1.70737  -1.32740   1.03009
H     0.72994  -3.12409   0.41606
H    -1.67497   2.61477   2.14795
H    -0.85075   3.65960   0.93656
H     0.08778   2.43356   1.86583
26

C     2.59134   3.26289  -0.05840
N     2.14263   2.01290  -0.63048
C     2.01650   0.88146   0.09652
O     2.35668   0.79956   1.29588
C     1.44977  -0.25674  -0.61018
N     1.36689  -1.38818   0.06851
N     0.86447  -2.49837  -0.34241
C    -1.54171  -1.73524  -0.47696
F    -1.69876  -2.43949   0.62649
F    -1.67767  -2.46904  -1.56033
C    -1.36498  -0.41119  -0.52413
F    -1.36840   0.16826  -1.74032
C    -1.13733   0.44806   0.65165
O    -0.96806   0.02419   1.77761
O    -1.13721   1.73773   0.32181
C    -0.87369   2.66401   1.39123
H     3.39305   3.07045   0.66637
H     2.98080   3.90362  -0.86028
H     1.77710   3.79481   0.45639
H     1.75079   2.01185  -1.56907
H     1.09480  -0.23168  -1.64262
H     1.70596  -1.32955   1.02983
H     0.72153  -3.12352   0.41337
H    -1.67499   2.61485   2.14827
H    -0.85093   3.65976   0.93699
H     0.08762   2.43369   1.86598
26

C     2.59150   3.26231  -0.05883
N     2.14195   2.01201  -0.63053
C     2.01582   0.88204   0.09728
O     2.35648   0.79821   1.29534
C     1.44428  -0.25719  -0.60913
N     1.36248  -1.38851   0.06738
N     0.83330  -2.48770  -0.34457
C    -1.50892  -1.74340  -0.47508
F    -1.69765  -2.43988   0.62686
F    -1.67178  -2.46806  -1.55943
C    -1.35720  -0.41078  -0.52256
F    -1.37000   0.16659  -1.74106
C    -1.13601   0.44707   0.65011
O    -0.96652   0.02474   1.77833
O    -1.13808   1.73947   0.32172
C    -0.87437   2.66388   1.39152
H     3.39315   3.07021   0.66615
H     2.98065   3.90337  -0.86054
H     1.77706   3.79443   0.45630
H     1.75062   2.01150  -1.56913
H     1.09360  -0.23141  -1.64248
H     1.70455  -1.33171   1.02957
H     0.71313  -3.12294   0.41068
H    -1.67502   2.61493   2.14859
H    -0.85112   3.65992   0.93743
H     0.08746   2.43382   1.86614
26

C     2.59166   3.26173  -0.05926
N     2.14127   2.01112  -0.63058
C     2.01515   0.88262   0.09804
O     2.35628   0.79686   1.29479
C     1.43878  -0.25763  -0.60808
N     1.35806  -1.38884   0.06625
N     0.80213  -2.47702  -0.34672
C    -1.47613  -1.75156  -0.47320
F    -1.69655  -2.44027   0.62723
F    -1.66589  -2.46708  -1.55854
C    -1.34943  -0.41037  -0.52098
F    -1.37159   0.16493  -1.74180
C    -1.13470   0.44607   0.64857
O    -0.96498   0.02529   1.77904
O    -1.13894   1.74121   0.32163
C    -0.87504   2.66374   1.39181
H     3.39325   3.06997   0.66593
H     2.98050   3.90312  -0.86080
H     1.77702   3.79405   0.45622
H     1.75046   2.01116  -1.56920
H     1.09240  -0.23114  -1.64233
H     1.70314  -1.33386   1.02931
H     0.70472  -3.12237   0.40798
H    -1.67505   2.61502   2.14891
H    -0.85131   3.66008   0.93787
H     0.08730   2.43395   1.86629
26

C     2.59181   3.26115  -0.05970
N     2.14059   2.01024  -0.63062
C     2.01448   0.88321   0.09879
O     2.35608   0.79551   1.29425
C     1.43329  -0.25807  -0.60703
N     1.35365  -1.38917   0.06511
N     0.77096  -2.46635  -0.34887
C    -1.44334  -1.75971  -0.47133
F    -1.69544  -2.44066   0.62760
F    -1.65999  -2.46610  -1.55765
C    -1.34166  -0.40995  -0.51941
F    -1.37319   0.16327  -1.74254
C    -1.13339   0.44507   0.64703
O    -0.96344   0.02583   1.77976
O    -1.13981   1.74295   0.32154
C    -0.87572   2.66361   1.39211
H     3.39335   3.06973   0.66570
H     2.98036   3.90287  -0.86105
H     1.77699   3.79367   0.45613
H     1.75030   2.01081  -1.56926
H     1.09120  -0.23087  -1.64219
H     1.70173  -1.33601   1.02905
H     0.69631  -3.12179   0.40529
H    -1.67508   2.61510   2.14922
H    -0.85149   3.66024   0.93831
H     0.08714   2.43408   1.86644
26

C     2.59197   3.26057  -0.06013
N     2.13992   2.00935  -0.63067
C     2.01380   0.88379   0.09955
O     2.35588   0.79415   1.29370
C     1.42779  -0.25851  -0.60598
N     1.34923  -1.38949   0.06398
N     0.73980  -2.45568  -0.35102
C    -1.41055  -1.76787  -0.46945
F    -1.69433  -2.44105   0.62797
F    -1.65410  -2.46512  -1.55675
C    -1.33389  -0.40954  -0.51784
F    -1.37479   0.16160  -1.74328
C    -1.13207   0.44407   0.64550
O    -0.96190   0.02638   1.78047
O    -1.14068   1.74469   0.32145
C    -0.87640   2.66347   1.39240
H     3.39345   3.06949   0.66548
H     2.98021   3.90263  -0.86131
H     1.77695   3.79329   0.45604
H     1.75014   2.01047  -1.56932
H     1.08999  -0.23060  -1.64204
H     1.70032  -1.33816   1.02879
H     0.68790  -3.12122   0.40260
H    -1.67511   2.61518   2.14954
H    -0.85168   3.66040   0.93875
H     0.08698   2.43422   1.86660
26

C     2.59213   3.25999  -0.06056
N     2.13924   2.00847  -0.63072
C     2.01313   0.88437   0.10031
O     2.35568   0.79280   1.29315
C     1.42230  -0.25896  -0.60493
N     1.34482  -1.38982   0.06285
N     0.70863  -2.44500  -0.35317
C    -1.37776  -1.77603  -0.46758
F    -1.69323  -2.44143   0.62834
F    -1.64821  -2.46414  -1.55586
C    -1.32611  -0.40913  -0.51626
F    -1.37638   0.15994  -1.74402
C    -1.13076   0.44307   0.64396
O    -0.96035   0.02692   1.78119
O    -1.14155   1.74642   0.32136
C    -0.87707   2.66333   1.39269
H     3.39354   3.06926   0.66526
H     2.98006   3.90238  -0.86157
H     1.77692   3.79291   0.45596
H     1.74998   2.01012  -1.56939
H     1.08879  -0.23033  -1.64189
H     1.69891  -1.34031   1.02853
H     0.67950  -3.12065   0.39990
H    -1.67514   2.61526   2.14986
H    -0.85186   3.66056   0.93919
H     0.08682   2.43435   1.86675
26

C     2.59229   3.25940  -0.06099
N     2.13856   2.00758  -0.63077
C     2.01246   0.88495   0.10106
O     2.35548   0.79145   1.29261
C     1.41680  -0.25940  -0.60388
N     1.34041  -1.39015   0.06171
N     0.67746  -2.43433  -0.35532
C    -1.34497  -1.78418  -0.46570
F    -1.69212  -2.44182   0.62871
F    -1.64232  -2.46317  -1.55497
C    -1.31834  -0.40872  -0.51469
F    -1.37798   0.15828  -1.74476
C    -1.12945   0.44208   0.64242
O    -0.95881   0.02747   1.78190
O    -1.14242   1.74816   0.32128
C    -0.87775   2.66320   1.39298
H     3.39364   3.06902   0.66504
H     2.97991   3.90213  -0.86183
H     1.77688   3.79253   0.45587
H     1.74982   2.00978  -1.56945
H     1.08759  -0.23006  -1.64175
H     1.69749  -1.34247   1.02827
H     0.67109  -3.12007   0.39721
H    -1.67516   2.61535   2.15018
H    -0.85205   3.66072   0.93963
H     0.08667   2.43448   1.86690
26

C     2.59245   3.25882  -0.06143
N     2.13788   2.00669  -0.63081
C     2.01179   0.88553   0.10182
O     2.35528   0.79009   1.29206
C     1.41130  -0.25984  -0.60283
N     1.33599  -1.39048   0.06058
N     0.64629  -2.42366  -0.35748
C    -1.31218  -1.79234  -0.46383
F    -1.69101  -2.44221   0.62908
F    -1.63642  -2.46219  -1.55407
C    -1.31057  -0.40830  -0.51312
F    -1.37958   0.15661  -1.74550
C    -1.12814   0.44108   0.64088
O    -0.95727   0.02802   1.78262
O    -1.14329   1.74990   0.32119
C    -0.87843   2.66306   1.39328
H     3.39374   3.06878   0.66481
H     2.97976   3.90188  -0.86208
H     1.77684   3.79215   0.45579
H     1.74965   2.00944  -1.56952
H     1.08639  -0.22979  -1.64160
H     1.69608  -1.34462   1.02801
H     0.66268  -3.11950   0.39452
H    -1.67519   2.61543   2.15049
H    -0.85223   3.66088   0.94007
H     0.08651   2.43461   1.86706
26

C     2.59260   3.25824  -0.06186
N     2.13720   2.00581  -0.63086
C     2.01111   0.88611   0.10257
O     2.35508   0.78874   1.29151
C     1.40581  -0.26028  -0.60177
N     1.33158  -1.39080   0.05944
N     0.61512  -2.41298  -0.35963
C    -1.27939  -1.80050  -0.46195
F    -1.68990  -2.44260   0.62945
F    -1.63053  -2.46121  -1.55318
C    -1.30279  -0.40789  -0.51154
F    -1.38117   0.15495  -1.74624
C    -1.12682   0.44008   0.63935
O    -0.95573   0.02856   1.78333
O    -1.14416   1.75164   0.32110
C    -0.87910   2.66293   1.39357
H     3.39384   3.06854   0.66459
H     2.97961   3.90163  -0.86234
H     1.77681   3.79177   0.45570
H     1.74949   2.00909  -1.56958
H     1.08519  -0.22951  -1.64146
H     1.69467  -1.34677   1.02775
H     0.65427  -3.11892   0.39183
H    -1.67522   2.61551   2.15081
H    -0.85242   3.66104   0.94050
H     0.08635   2.43474   1.86721
26

C     2.59276   3.25766  -0.06229
N     2.13652   2.00492  -0.63091
C     2.01044   0.88669   0.10333
O     2.35488   0.78739   1.29097
C     1.40031  -0.26072  -0.60072
N     1.32717  -1.39113   0.05831
N     0.58395  -2.40231  -0.36178
C    -1.24660  -1.80865  -0.46007
F    -1.68880  -2.44299   0.62982
F    -1.62464  -2.46023  -1.55228
C    -1.29502  -0.40748  -0.50997
F    -1.38277   0.15329  -1.74697
C    -1.12551   0.43908   0.63781
O    -0.95419   0.02911   1.78405
O    -1.14502   1.75338   0.32101
C    -0.87978   2.66279   1.39386
H     3.39394   3.06831   0.66437
H     2.97946   3.90138  -0.86260
H     1.77677   3.79140   0.45562
H     1.74933   2.00875  -1.56964
H     1.08399  -0.22924  -1.64131
H     1.69326  -1.34892   1.02750
H     0.64586  -3.11835   0.38913
H    -1.67525   2.61559   2.15113
H    -0.85260   3.66121   0.94094
H     0.08619   2.43487   1.86736
26

C     2.59292   3.25708  -0.06272
N     2.13584   2.00404  -0.63096
C     2.00977   0.88727   0.10409
O     2.35468   0.78604   1.29042
C     1.39482  -0.26117  -0.59967
N     1.32275  -1.39146   0.05718
N     0.55279  -2.39163  -0.36393
C    -1.21381  -1.81681  -0.45820
F    -1.68769  -2.44338   0.63019
F    -1.61875  -2.45925  -1.55139
C    -1.28725  -0.40707  -0.50840
F    -1.38436   0.15162  -1.74771
C    -1.12420   0.43808   0.63627
O    -0.95265   0.02966   1.78476
O    -1.14589   1.75512   0.32092
C    -0.88046   2.66266   1.39415
H     3.39404   3.06807   0.66415
H     2.97931   3.90113  -0.86285
H     1.77674   3.79102   0.45553
H     1.74917   2.00840  -1.56971
H     1.08279  -0.22897  -1.64117
H     1.69185  -1.35107   1.02724
H     0.63746  -3.11778   0.38644
H    -1.67528   2.61568   2.15145
H    -0.85279   3.66137   0.94138
H     0.08603   2.43500   1.86752
26

C     2.59308   3.25650  -0.06316
N     2.13516   2.00315  -0.63100
C     2.00909   0.88785   0.10484
O     2.35448   0.78468   1.28988
C     1.38932  -0.26161  -0.59862
N     1.31834  -1.39179   0.05604
N     0.52162  -2.38096  -0.36608
C    -1.18102  -1.82497  -0.45632
F    -1.68658  -2.44377   0.63056
F    -1.61285  -2.45827  -1.55050
C    -1.27948  -0.40665  -0.50682
F    -1.38596   0.14996  -1.74845
C    -1.12289   0.43709   0.63474
O    -0.95110   0.03020   1.78548
O    -1.14676   1.75685   0.32083
C    -0.88114   2.66252   1.39444
H     3.39414   3.06783   0.66393
H     2.97916   3.90088  -0.86311
H     1.77670   3.79064   0.45545
H     1.74901   2.00806  -1.56977
H     1.08159  -0.22870  -1.64102
H     1.69044  -1.35323   1.02698
H     0.62905  -3.11720   0.38375
H    -1.67531   2.61576   2.15176
H    -0.85297   3.66153   0.94182
H     0.08587   2.43513   1.86767
26

C     2.59324   3.25592  -0.06359
N     2.13448   2.00226  -0.63105
C     2.00842   0.88844   0.10560
O     2.35428   0.78333   1.28933
C     1.38383  -0.26205  -0.59757
N     1.31392  -1.39212   0.05491
N     0.49045  -2.37029  -0.36824
C    -1.14823  -1.83312  -0.45445
F    -1.68548  -2.44416   0.63093
F    -1.60696  -2.45729  -1.54960
C    -1.27170  -0.40624  -0.50525
F    -1.38756   0.14830  -1.74919
C    -1.12157   0.43609   0.63320
O    -0.94956   0.03075   1.78619
O    -1.14763   1.75859   0.32074
C    -0.88181   2.66238   1.39474
H     3.39423   3.06759   0.66370
H     2.97901   3.90063  -0.86337
H     1.77666   3.79026   0.45536
H     1.74885   2.00771  -1.56983
H     1.08039  -0.22843  -1.64087
H     1.68903  -1.35538   1.02672
H     0.62064  -3.11663   0.38105
H    -1.67533   2.61584   2.15208
H    -0.85316   3.66169   0.94226
H     0.08571   2.43526   1.86782
26

C     2.59339   3.25534  -0.06402
N     2.13380   2.00138  -0.63110
C     2.00775   0.88902   0.10636
O     2.35408   0.78198   1.28878
C     1.37833  -0.26249  -0.59652
N     1.30951  -1.39244   0.05378
N     0.45928  -2.35961  -0.37039
C    -1.11544  -1.84128  -0.45257
F    -1.68437  -2.44455   0.63130
F    -1.60107  -2.45632  -1.54871
C    -1.26393  -0.40583  -0.50368
F    -1.38915   0.14664  -1.74993
C    -1.12026   0.43509   0.63166
O    -0.94802   0.03129   1.78691
O    -1.14850   1.76033   0.32066
C    -0.88249   2.66225   1.39503
H     3.39433   3.06735   0.66348
H     2.97886   3.90038  -0.86363
H     1.77663   3.78988   0.45528
H     1.74868   2.00737  -1.56990
H     1.07919  -0.22816  -1.64073
H     1.68762  -1.35753   1.02646
H     0.61223  -3.11606   0.37836
H    -1.67536   2.61592   2.15240
H    -0.85334   3.66185   0.94270
H     0.08555   2.43539   1.86798
26

C     2.59355   3.25476  -0.06446
N     2.13313   2.00049  -0.63114
C     2.00707   0.88960   0.10711
O     2.35388   0.78062   1.28824
C     1.37284  -0.26294  -0.59547
N     1.30510  -1.39277   0.05264
N     0.42811  -2.34894  -0.37254
C    -1.08265  -1.84944  -0.45069
F    -1.68326  -2.44494   0.63167
F    -1.59517  -2.45534  -1.54782
C    -1.25616  -0.40542  -0.50210
F    -1.39075   0.14497  -1.75067
C    -1.11895   0.43409   0.63012
O    -0.94648   0.03184   1.78762
O    -1.14937   1.76207   0.32057
C    -0.88317   2.66211   1.39532
H     3.39443   3.06712   0.66326
H     2.97871   3.90013  -0.86388
H     1.77659   3.78950   0.45519
H     1.74852   2.00703  -1.56996
H     1.07798  -0.22789  -1.64058
H     1.68621  -1.35968   1.02620
H     0.60383  -3.11548   0.37567
H    -1.67539   2.61601   2.15272
H    -0.85353   3.66201   0.94314
H     0.08539   2.43553   1.86813
26

C     2.59371   3.25417  -0.06489
N     2.13245   1.99960  -0.63119
C     2.00640   0.89018   0.10787
O     2.35368   0.77927   1.28769
C     1.36734  -0.26338  -0.59442
N     1.30068  -1.39310   0.05151
N     0.39694  -2.33827  -0.37469
C    -1.04985  -1.85760  -0.44882
F    -1.68216  -2.44533   0.63204
F    -1.58928  -2.45436  -1.54692
C    -1.24839  -0.40500  -0.50053
F    -1.39234   0.14331  -1.75141
C    -1.11763   0.43310   0.62859
O    -0.94494   0.03239   1.78834
O    -1.15024   1.76381   0.32048
C    -0.88384   2.66198   1.39561
H     3.39453   3.06688   0.66304
H     2.97857   3.89988  -0.86414
H     1.77656   3.78912   0.45510
H     1.74836   2.00668  -1.57003
H     1.07678  -0.22762  -1.64044
H     1.68479  -1.36183   1.02594
H     0.59542  -3.11491   0.37297
H    -1.67542   2.61609   2.15303
H    -0.85372   3.66217   0.94358
H     0.08524   2.43566   1.86828
26

C     2.59387   3.25359  -0.06532
N     2.13177   1.99872  -0.63124
C     2.00573   0.89076   0.10862
O     2.35348   0.77792   1.28714
C     1.36185  -0.26382  -0.59337
N     1.29627  -1.39343   0.05038
N     0.36578  -2.32759  -0.37684
C    -1.01706  -1.86575  -0.44694
F    -1.68105  -2.44571   0.63241
F    -1.58339  -2.45338  -1.54603
C    -1.24061  -0.40459  -0.49896
F    -1.39394   0.14165  -1.75215
C    -1.11632   0.43210   0.62705
O    -0.94340   0.03293   1.78905
O    -1.15110   1.76555   0.32039
C    -0.88452   2.66184   1.39591
H     3.39463   3.06664   0.66281
H     2.97842   3.89963  -0.86440
H     1.77652   3.78874   0.45502
H     1.74820   2.00634  -1.57009
H     1.07558  -0.22734  -1.64029
H     1.68338  -1.36399   1.02568
H     0.58701  -3.11433   0.37028
H    -1.67545   2.61617   2.15335
H    -0.85390   3.66233   0.94401
H     0.08508   2.43579   1.86844
26

C     2.59402   3.25301  -0.06575
N     2.13109   1.99783  -0.63129
C     2.00505   0.89134   0.10938
O     2.35329   0.77657   1.28660
C     1.35635  -0.26426  -0.59232
N     1.29186  -1.39375   0.04924
N     0.33461  -2.31692  -0.37900
C    -0.98427  -1.87391  -0.44507
F    -1.67994  -2.44610   0.63278
F    -1.57750  -2.45240  -1.54514
C    -1.23284  -0.40418  -0.49739
F    -1.39554   0.13998  -1.75289
C    -1.11501   0.43110   0.62551
O    -0.94186   0.03348   1.78976
O    -1.15197   1.76728   0.32030
C    -0.88520   2.66171   1.39620
H     3.39473   3.06640   0.66259
H     2.97827   3.89938  -0.86465
H     1.77648   3.78836   0.45493
H     1.74804   2.00599  -1.57015
H     1.07438  -0.22707  -1.64014
H     1.68197  -1.36614   1.02542
H     0.57860  -3.11376   0.36759
H    -1.67548   2.61625   2.15367
H    -0.85409   3.66249   0.94445
H     0.08492   2.43592   1.86859
26

C     2.59387   3.25359  -0.06532
N     2.13177   1.99872  -0.63124
C     2.00573   0.89076   0.10862
O     2.35348   0.77792   1.28714
C     1.36185  -0.26382  -0.59337
N     1.29627  -1.39343   0.05038
N     0.36578  -2.32759  -0.37684
C    -1.01706  -1.86575  -0.44694
F    -1.68105  -2.44571   0.63241
F    -1.58339  -2.45338  -1.54603
C    -1.24061  -0.40459  -0.49896
F    -1.39394   0.14165  -1.75215
C    -1.11632   0.43210   0.62705
O    -0.94340   0.03293   1.78905
O    -1.15110   1.76555   0.32039
C    -0.88452   2.66184   1.39591
H     3.39463   3.06664   0.66281
H     2.97842   3.89963  -0.86440
H     1.77652   3.78874   0.45502
H     1.74820   2.00634  -1.57009
H     1.07558  -0.22734  -1.64029
H     1.68338  -1.36399   1.02568
H     0.58701  -3.11433   0.37028
H    -1.67545   2.61617   2.15335
H    -0.85390   3.66233   0.94401
H     0.08508   2.43579   1.86844
26

C     2.59371   3.25417  -0.06489
N     2.13245   1.99960  -0.63119
C     2.00640   0.89018   0.10787
O     2.35368   0.77927   1.28769
C     1.36734  -0.26338  -0.59442
N     1.30068  -1.39310   0.05151
N     0.39694  -2.33827  -0.37469
C    -1.04985  -1.85760  -0.44882
F    -1.68216  -2.44533   0.63204
F    -1.58928  -2.45436  -1.54692
C    -1.24839  -0.40500  -0.50053
F    -1.39234   0.14331  -1.75141
C    -1.11763   0.43310   0.62859
O    -0.94494   0.03239   1.78834
O    -1.15024   1.76381   0.32048
C    -0.88384   2.66198   1.39561
H     3.39453   3.06688   0.66304
H     2.97857   3.89988  -0.86414
H     1.77656   3.78912   0.45510
H     1.74836   2.00668  -1.57003
H     1.07678  -0.22762  -1.64044
H     1.68479  -1.36183   1.02594
H     0.59542  -3.11491   0.37297
H    -1.67542   2.61609   2.15303
H    -0.85372   3.66217   0.94358
H     0.08524   2.43566   1.86828
26

C     2.59355   3.25476  -0.06446
N     2.13313   2.00049  -0.63114
C     2.00707   0.88960   0.10711
O     2.35388   0.78062   1.28824
C     1.37284  -0.26294  -0.59547
N     1.30510  -1.39277   0.05264
N     0.42811  -2.34894  -0.37254
C    -1.08265  -1.84944  -0.45069
F    -1.68326  -2.44494   0.63167
F    -1.59517  -2.45534  -1.54782
C    -1.25616  -0.40542  -0.50210
F    -1.39075   0.14497  -1.75067
C    -1.11895   0.43409   0.63012
O    -0.94648   0.03184   1.78762
O    -1.14937   1.76207   0.32057
C    -0.88317   2.66211   1.39532
H     3.39443   3.06712   0.66326
H     2.97871   3.90013  -0.86388
H     1.77659   3.78950   0.45519
H     1.74852   2.00703  -1.56996
H     1.07798  -0.22789  -1.64058
H     1.68621  -1.35968   1.02620
H     0.60383  -3.11548   0.37567
H    -1.67539   2.61601   2.15272
H    -0.85353   3.66201   0.94314
H     0.08539   2.43553   1.86813
26

C     2.59339   3.25534  -0.06402
N     2.13380   2.00138  -0.63110
C     2.00775   0.88902   0.10636
O     2.35408   0.78198   1.28878
C     1.37833  -0.26249  -0.59652
N     1.30951  -1.39244   0.05378
N     0.45928  -2.35961  -0.37039
C    -1.11544  -1.84128  -0.45257
F    -1.68437  -2.44455   0.63130
F    -1.60107  -2.45632  -1.54871
C    -1.26393  -0.40583  -0.50368
F    -1.38915   0.14664  -1.74993
C    -1.12026   0.43509   0.63166
O    -0.94802   0.03129   1.78691
O    -1.14850   1.76033   0.32066
C    -0.88249   2.66225   1.39503
H     3.39433   3.06735   0.66348
H     2.97886   3.90038  -0.86363
H     1.77663   3.78988   0.45528
H     1.74868   2.00737  -1.56990
H     1.07919  -0.22816  -1.64073
H     1.68762  -1.35753   1.02646
H     0.61223  -3.11606   0.37836
H    -1.67536   2.61592   2.15240
H    -0.85334   3.66185   0.94270
H     0.08555   2.43539   1.86798
26

C     2.59324   3.25592  -0.06359
N     2.13448   2.00226  -0.63105
C     2.00842   0.88844   0.10560
O     2.35428   0.78333   1.28933
C     1.38383  -0.26205  -0.59757
N     1.31392  -1.39212   0.05491
N     0.49045  -2.37029  -0.36824
C    -1.14823  -1.83312  -0.45445
F    -1.68548  -2.44416   0.63093
F    -1.60696  -2.45729  -1.54960
C    -1.27170  -0.40624  -0.50525
F    -1.38756   0.14830  -1.74919
C    -1.12157   0.43609   0.63320
O    -0.94956   0.03075   1.78619
O    -1.14763   1.75859   0.32074
C    -0.88181   2.66238   1.39474
H     3.39423   3.06759   0.66370
H     2.97901   3.90063  -0.86337
H     1.77666   3.79026   0.45536
H     1.74885   2.00771  -1.56983
H     1.08039  -0.22843  -1.64087
H     1.68903  -1.35538   1.02672
H     0.62064  -3.11663   0.38105
H    -1.67533   2.61584   2.15208
H    -0.85316   3.66169   0.94226
H     0.08571   2.43526   1.86782
26

C     2.59308   3.25650  -0.06316
N     2.13516   2.00315  -0.63100
C     2.00909   0.88785   0.10484
O     2.35448   0.78468   1.28988
C     1.38932  -0.26161  -0.59862
N     1.31834  -1.39179   0.05604
N     0.52162  -2.38096  -0.36608
C    -1.18102  -1.82497  -0.45632
F    -1.68658  -2.44377   0.63056
F    -1.61285  -2.45827  -1.55050
C    -1.27948  -0.40665  -0.50682
F    -1.38596   0.14996  -1.74845
C    -1.12289   0.43709   0.63474
O    -0.95110   0.03020   1.78548
O    -1.14676   1.75685   0.32083
C    -0.88114   2.66252   1.39444
H     3.39414   3.06783   0.66393
H     2.97916   3.90088  -0.86311
H     1.77670   3.79064   0.45545
H     1.74901   2.00806  -1.56977
H     1.08159  -0.22870  -1.64102
H     1.69044  -1.35323   1.02698
H     0.62905  -3.11720   0.38375
H    -1.67531   2.61576   2.15176
H    -0.85297   3.66153   0.94182
H     0.08587   2.43513   1.86767
26

C     2.59292   3.25708  -0.06272
N     2.13584   2.00404  -0.63096
C     2.00977   0.88727   0.10409
O     2.35468   0.78604   1.29042
C     1.39482  -0.26117  -0.59967
N     1.32275  -1.39146   0.05718
N     0.55279  -2.39163  -0.36393
C    -1.21381  -1.81681  -0.45820
F    -1.68769  -2.44338   0.63019
F    -1.61875  -2.45925  -1.55139
C    -1.28725  -0.40707  -0.50840
F    -1.38436   0.15162  -1.74771
C    -1.12420   0.43808   0.63627
O    -0.95265   0.02966   1.78476
O    -1.14589   1.75512   0.32092
C    -0.88046   2.66266   1.39415
H     3.39404   3.06807   0.66415
H     2.97931   3.90113  -0.86285
H     1.77674   3.79102   0.45553
H     1.74917   2.00840  -1.56971
H     1.08279  -0.22897  -1.64117
H     1.69185  -1.35107   1.02724
H     0.63746  -3.11778   0.38644
H    -1.67528   2.61568   2.15145
H    -0.85279   3.66137   0.94138
H     0.08603   2.43500   1.86752
26

C     2.59276   3.25766  -0.06229
N     2.13652   2.00492  -0.63091
C     2.01044   0.88669   0.10333
O     2.35488   0.78739   1.29097
C     1.40031  -0.26072  -0.60072
N     1.32717  -1.39113   0.05831
N     0.58395  -2.40231  -0.36178
C    -1.24660  -1.80865  -0.46007
F    -1.68880  -2.44299   0.62982
F    -1.62464  -2.46023  -1.55228
C    -1.29502  -0.40748  -0.50997
F    -1.38277   0.15329  -1.74697
C    -1.12551   0.43908   0.63781
O    -0.95419   0.02911   1.78405
O    -1.14502   1.75338   0.32101
C    -0.87978   2.66279   1.39386
H     3.39394   3.06831   0.66437
H     2.97946   3.90138  -0.86260
H     1.77677   3.79140   0.45562
H     1.74933   2.00875  -1.56964
H     1.08399  -0.22924  -1.64131
H     1.69326  -1.34892   1.02750
H     0.64586  -3.11835   0.38913
H    -1.67525   2.61559   2.15113
H    -0.85260   3.66121   0.94094
H     0.08619   2.43487   1.86736
26

C     2.59260   3.25824  -0.06186
N     2.13720   2.00581  -0.63086
C     2.01111   0.88611   0.10257
O     2.35508   0.78874   1.29151
C     1.40581  -0.26028  -0.60177
N     1.33158  -1.39080   0.05944
N     0.61512  -2.41298  -0.35963
C    -1.27939  -1.80050  -0.46195
F    -1.68990  -2.44260   0.62945
F    -1.63053  -2.46121  -1.55318
C    -1.30279  -0.40789  -0.51154
F    -1.38117   0.15495  -1.74624
C    -1.12682   0.44008   0.63935
O    -0.95573   0.02856   1.78333
O    -1.14416   1.75164   0.32110
C    -0.87910   2.66293   1.39357
H     3.39384   3.06854   0.66459
H     2.97961   3.90163  -0.86234
H     1.77681   3.79177   0.45570
H     1.74949   2.00909  -1.56958
H     1.08519  -0.22951  -1.64146
H     1.69467  -1.34677   1.02775
H     0.65427  -3.11892   0.39183
H    -1.67522   2.61551   2.15081
H    -0.85242   3.66104   0.94050
H     0.08635   2.43474   1.86721
26

C     2.59245   3.25882  -0.06143
N     2.13788   2.00669  -0.63081
C     2.01179   0.88553   0.10182
O     2.35528   0.79009   1.29206
C     1.41130  -0.25984  -0.60283
N     1.33599  -1.39048   0.06058
N     0.64629  -2.42366  -0.35748
C    -1.31218  -1.79234  -0.46383
F    -1.69101  -2.44221   0.62908
F    -1.63642  -2.46219  -1.55407
C    -1.31057  -0.40830  -0.51312
F    -1.37958   0.15661  -1.74550
C    -1.12814   0.44108   0.64088
O    -0.95727   0.02802   1.78262
O    -1.14329   1.74990   0.32119
C    -0.87843   2.66306   1.39328
H     3.39374   3.06878   0.66481
H     2.97976   3.90188  -0.86208
H     1.77684   3.79215   0.45579
H     1.74965   2.00944  -1.56952
H     1.08639  -0.22979  -1.64160
H     1.69608  -1.34462   1.02801
H     0.66268  -3.11950   0.39452
H    -1.67519   2.61543   2.15049
H    -0.85223   3.66088   0.94007
H     0.08651   2.43461   1.86706
26

C     2.59229   3.25940  -0.06099
N     2.13856   2.00758  -0.63077
C     2.01246   0.88495   0.10106
O     2.35548   0.79145   1.29261
C     1.41680  -0.25940  -0.60388
N     1.34041  -1.39015   0.06171
N     0.67746  -2.43433  -0.35532
C    -1.34497  -1.78418  -0.46570
F    -1.69212  -2.44182   0.62871
F    -1.64232  -2.46317  -1.55497
C    -1.31834  -0.40872  -0.51469
F    -1.37798   0.15828  -1.74476
C    -1.12945   0.44208   0.64242
O    -0.95881   0.02747   1.78190
O    -1.14242   1.74816   0.32128
C    -0.87775   2.66320   1.39298
H     3.39364   3.06902   0.66504
H     2.97991   3.90213  -0.86183
H     1.77688   3.79253   0.45587
H     1.74982   2.00978  -1.56945
H     1.08759  -0.23006  -1.64175
H     1.69749  -1.34247   1.02827
H     0.67109  -3.12007   0.39721
H    -1.67516   2.61535   2.15018
H    -0.85205   3.66072   0.93963
H     0.08667   2.43448   1.86690
26

C     2.59213   3.25999  -0.06056
N     2.13924   2.00847  -0.63072
C     2.01313   0.88437   0.10031
O     2.35568   0.79280   1.29315
C     1.42230  -0.25896  -0.60493
N     1.34482  -1.38982   0.06285
N     0.70863  -2.44500  -0.35317
C    -1.37776  -1.77603  -0.46758
F    -1.69323  -2.44143   0.62834
F    -1.64821  -2.46414  -1.55586
C    -1.32611  -0.40913  -0.51626
F    -1.37638   0.15994  -1.74402
C    -1.13076   0.44307   0.64396
O    -0.96035   0.02692   1.78119
O    -1.14155   1.74642   0.32136
C    -0.87707   2.66333   1.39269
H     3.39354   3.06926   0.66526
H     2.98006   3.90238  -0.86157
H     1.77692   3.79291   0.45596
H     1.74998   2.01012  -1.56939
H     1.08879  -0.23033  -1.64189
H     1.69891  -1.34031   1.02853
H     0.67950  -3.12065   0.39990
H    -1.67514   2.61526   2.14986
H    -0.85186   3.66056   0.93919
H     0.08682   2.43435   1.86675
26

C     2.59197   3.26057  -0.06013
N     2.13992   2.00935  -0.63067
C     2.01380   0.88379   0.09955
O     2.35588   0.79415   1.29370
C     1.42779  -0.25851  -0.60598
N     1.34923  -1.38949   0.06398
N     0.73980  -2.45568  -0.35102
C    -1.41055  -1.76787  -0.46945
F    -1.69433  -2.44105   0.62797
F    -1.65410  -2.46512  -1.55675
C    -1.33389  -0.40954  -0.51784
F    -1.37479   0.16160  -1.74328
C    -1.13207   0.44407   0.64550
O    -0.96190   0.02638   1.78047
O    -1.14068   1.74469   0.32145
C    -0.87640   2.66347   1.39240
H     3.39345   3.06949   0.66548
H     2.98021   3.90263  -0.86131
H     1.77695   3.79329   0.45604
H     1.75014   2.01047  -1.56932
H     1.08999  -0.23060  -1.64204
H     1.70032  -1.33816   1.02879
H     0.68790  -3.12122   0.40260
H    -1.67511   2.61518   2.14954
H    -0.85168   3.66040   0.93875
H     0.08698   2.43422   1.86660
26

C     2.59181   3.26115  -0.05970
N     2.14059   2.01024  -0.63062
C     2.01448   0.88321   0.09879
O     2.35608   0.79551   1.29425
C     1.43329  -0.25807  -0.60703
N     1.35365  -1.38917   0.06511
N     0.77096  -2.46635  -0.34887
C    -1.44334  -1.75971  -0.47133
F    -1.69544  -2.44066   0.62760
F    -1.65999  -2.46610  -1.55765
C    -1.34166  -0.40995  -0.51941
F    -1.37319   0.16327  -1.74254
C    -1.13339   0.44507   0.64703
O    -0.96344   0.02583   1.77976
O    -1.13981   1.74295   0.32154
C    -0.87572   2.66361   1.39211
H     3.39335   3.06973   0.66570
H     2.98036   3.90287  -0.86105
H     1.77699   3.79367   0.45613
H     1.75030   2.01081  -1.56926
H     1.09120  -0.23087  -1.64219
H     1.70173  -1.33601   1.02905
H     0.69631  -3.12179   0.40529
H    -1.67508   2.61510   2.14922
H    -0.85149   3.66024   0.93831
H     0.08714   2.43408   1.86644
26

C     2.59166   3.26173  -0.05926
N     2.14127   2.01112  -0.63058
C     2.01515   0.88262   0.09804
O     2.35628   0.79686   1.29479
C     1.43878  -0.25763  -0.60808
N     1.35806  -1.38884   0.06625
N     0.80213  -2.47702  -0.34672
C    -1.47613  -1.75156  -0.47320
F    -1.69655  -2.44027   0.62723
F    -1.66589  -2.46708  -1.55854
C    -1.34943  -0.41037  -0.52098
F    -1.37159   0.16493  -1.74180
C    -1.13470   0.44607   0.64857
O    -0.96498   0.02529   1.77904
O    -1.13894   1.74121   0.32163
C    -0.87504   2.66374   1.39181
H     3.39325   3.06997   0.66593
H     2.98050   3.90312  -0.86080
H     1.77702   3.79405   0.45622
H     1.75046   2.01116  -1.56920
H     1.09240  -0.23114  -1.64233
H     1.70314  -1.33386   1.02931
H     0.70472  -3.12237   0.40798
H    -1.67505   2.61502   2.14891
H    -0.85131   3.66008   0.93787
H     0.08730   2.43395   1.86629
26

C     2.59150   3.26231  -0.05883
N     2.14195   2.01201  -0.63053
C     2.01582   0.88204   0.09728
O     2.35648   0.79821   1.29534
C     1.44428  -0.25719  -0.60913
N     1.36248  -1.38851   0.06738
N     0.83330  -2.48770  -0.34457
C    -1.50892  -1.74340  -0.47508
F    -1.69765  -2.43988   0.62686
F    -1.67178  -2.46806  -1.55943
C    -1.35720  -0.41078  -0.52256
F    -1.37000   0.16659  -1.74106
C    -1.13601   0.44707   0.65011
O    -0.96652   0.02474   1.77833
O    -1.13808   1.73947   0.32172
C    -0.87437   2.66388   1.39152
H     3.39315   3.07021   0.66615
H     2.98065   3.90337  -0.86054
H     1.77706   3.79443   0.45630
H     1.75062   2.01150  -1.56913
H     1.09360  -0.23141  -1.64248
H     1.70455  -1.33171   1.02957
H     0.71313  -3.12294   0.41068
H    -1.67502   2.61493   2.14859
H    -0.85112   3.65992   0.93743
H     0.08746   2.43382   1.86614
26

C     2.59134   3.26289  -0.05840
N     2.14263   2.01290  -0.63048
C     2.01650   0.88146   0.09652
O     2.35668   0.79956   1.29588
C     1.44977  -0.25674  -0.61018
N     1.36689  -1.38818   0.06851
N     0.86447  -2.49837  -0.34241
C    -1.54171  -1.73524  -0.47696
F    -1.69876  -2.43949   0.62649
F    -1.67767  -2.46904  -1.56033
C    -1.36498  -0.41119  -0.52413
F    -1.36840   0.16826  -1.74032
C    -1.13733   0.44806   0.65165
O    -0.96806   0.02419   1.77761
O    -1.13721   1.73773   0.32181
C    -0.87369   2.66401   1.39123
H     3.39305   3.07045   0.66637
H     2.98080   3.90362  -0.86028
H     1.77710   3.79481   0.45639
H     1.75079   2.01185  -1.56907
H     1.09480  -0.23168  -1.64262
H     1.70596  -1.32955   1.02983
H     0.72153  -3.12352   0.41337
H    -1.67499   2.61485   2.14827
H    -0.85093   3.65976   0.93699
H     0.08762   2.43369   1.86598
26

C     2.59118   3.26347  -0.05797
N     2.14331   2.01378  -0.63044
C     2.01717   0.88088   0.09577
O     2.35688   0.80092   1.29643
C     1.45527  -0.25630  -0.61123
N     1.37130  -1.38786   0.06965
N     0.89564  -2.50905  -0.34026
C    -1.57450  -1.72709  -0.47883
F    -1.69987  -2.43910   0.62612
F    -1.68357  -2.47002  -1.56122
C    -1.37275  -0.41160  -0.52570
F    -1.36681   0.16992  -1.73959
C    -1.13864   0.44906   0.65318
O    -0.96960   0.02365   1.77690
O    -1.13634   1.73600   0.32190
C    -0.87301   2.66415   1.39094
H     3.39295   3.07068   0.66659
H     2.98095   3.90387  -0.86003
H     1.77713   3.79518   0.45647
H     1.75095   2.01219  -1.56901
H     1.09600  -0.23196  -1.64277
H     1.70737  -1.32740   1.03009
H     0.72994  -3.12409   0.41606
H    -1.67497   2.61477   2.14795
H    -0.85075   3.65960   0.93656
H     0.08778   2.43356   1.86583
26

C     2.59102   3.26405  -0.05753
N     2.14399   2.01467  -0.63039
C     2.01784   0.88030   0.09501
O     2.35708   0.80227   1.29698
C     1.46076  -0.25586  -0.61228
N     1.37572  -1.38753   0.07078
N     0.92681  -2.51972  -0.33811
C    -1.60729  -1.71893  -0.48071
F    -1.70097  -2.43871   0.62575
F    -1.68946  -2.47099  -1.56211
C    -1.38052  -0.41202  -0.52728
F    -1.36521   0.17158  -1.73885
C    -1.13995   0.45006   0.65472
O    -0.97115   0.02310   1.77618
O    -1.13547   1.73426   0.32198
C    -0.87233   2.66428   1.39064
H     3.39286   3.07092   0.66681
H     2.98110   3.90412  -0.85977
H     1.77717   3.79556   0.45656
H     1.75111   2.01253  -1.56894
H     1.09720  -0.23223  -1.64292
H     1.70878  -1.32525   1.03035
H     0.73835  -3.12466   0.41876
H    -1.67494   2.61468   2.14763
H    -0.85056   3.65944   0.93612
H     0.08794   2.43343   1.86568
