14

N 3.339216322 -3.025866226 -1.273244664
C 1.154730565 -2.659474654 -0.827330696
O 2.461027106 2.766452598 0.466911698
C 0.587148263 2.454839236 -1.430130029
C -1.649667072 1.003179066 -0.479460556
C -2.837055941 -0.660020259 -2.294166066
C -1.258308854 -2.096761193 -0.284969320
H 4.647742532 -1.804477442 -0.559184776
H 1.580221205 1.648064093 -3.074147878
H -0.158085039 4.290886386 -2.054121394
H 1.536873458 2.957087962 2.022466535
H -2.171451843 -0.843466198 -4.242628280
H -4.818889282 -1.140396558 -2.059363437
H -2.152645534 -3.085026842 1.261268128

