10

O -2.430432308 -1.840722370 0.871448109
C -0.697769485 -0.519489850 -0.607105774
C -0.186406005 2.180741964 0.265707833
O 2.489211899 1.598790920 0.569209036
C 2.114992515 -0.878867174 0.002891186
O 3.587047743 -2.561740438 0.062973895
H -2.288855935 -3.612314137 0.505019669
H -1.078899276 -0.687639004 -2.634448028
H -1.048043035 2.639707061 2.076497376
H -0.460846112 3.681533010 -1.112193303

