10

O -2.282892772 -2.180001078 1.212650218
C -0.693092980 -0.587848085 -0.086838830
C -0.369412148 2.230488172 0.443681181
O 2.412729202 1.868800923 0.200199778
C 1.985331281 -0.590421703 -0.105807315
O 3.365148637 -2.273383784 -1.099784001
H -3.574079157 -2.770337837 0.091093605
H 1.038376405 -2.157507800 -1.995874063
H -0.840430145 2.819014820 2.359608188
H -0.972674974 3.600591845 -0.967017985

