15

C 1.063734640 1.811574857 0.663810596
C 2.556871804 -0.320366120 -0.563132754
C 1.583772322 -2.963325796 -0.769541812
O -2.181518206 -1.521095889 3.479960025
C -3.117627812 -0.307335570 1.805997765
C -1.776175430 1.669274908 0.268723023
C 1.650675789 -1.715736073 -2.859258031
H 1.464583799 1.825798466 2.691093797
H 1.750919108 3.610124228 -0.089689161
H 4.590358182 -0.066754084 -0.326121073
H 1.148808844 -4.666795147 0.250543669
H -2.682324202 3.468761583 0.756872276
H -5.142756479 -0.574835355 1.321287832
H -2.261761458 1.342964503 -1.718618076
H 1.325162754 -1.654965051 -4.866366799

