12

C 2.804668000 0.463266416 0.352070150
O 4.025091606 -0.894897135 2.313014572
C 0.867992670 -1.089785176 -1.000490666
C -1.546065691 -0.495726639 -0.982012206
C -3.735329431 0.976408714 -0.382508460
O -3.764509221 -1.338861700 -1.888142156
H 1.928319359 2.196183653 1.080087347
H 4.313017894 1.025132127 -0.938280353
H 1.472313743 -2.779749013 -1.988817504
H 2.740780782 -1.631045692 3.359933635
H -4.154986656 2.679191924 -1.444139476
H -4.627658560 0.802337197 1.455153461

