12

C -3.752105739 -0.731242431 1.101309255
C -1.217510461 0.368868058 0.676705464
C -0.160789124 2.310856675 -0.438328362
C 2.490714420 1.887839365 -0.309863363
C 3.306728358 -0.645120676 0.576575774
O 3.575187803 -0.875371181 -1.785641994
H -3.938290797 -2.519625699 0.085038261
H -4.083701557 -1.107655258 3.102704663
H -5.183821078 0.574842555 0.406234633
H 3.977573971 3.232514335 -0.724331003
H 0.525451331 -1.071391508 1.477288333
H 4.489492690 -1.626739478 1.962950272

