14

C 2.467390097 -0.712258355 -1.110688930
C -0.071587644 0.096308890 -0.015990636
C -1.046566535 -1.690955169 2.022781117
C -2.118899958 0.814434033 -1.862809565
O -2.003967628 3.261870871 -1.179596999
C -0.164176628 2.891013329 0.543468377
H 2.380020916 -2.664503404 -1.769141170
H 3.932775348 -0.583124885 0.337628712
H 3.001497263 0.479394964 -2.705410230
H -1.450613092 -3.541698719 1.200730770
H 0.367297336 -1.940493031 3.502250648
H -3.983548189 0.013021781 -2.181107172
H -2.766791634 -0.958782747 2.890257892
H 1.333701330 4.293573784 0.625990374

