10

O 1.443037085 -1.063520515 -1.891122387
C -0.931020800 0.084256954 -1.920620255
H -1.188912895 1.492462570 -3.393608177
C -3.197201193 -1.404767183 -1.111798879
H -4.989543589 -1.041552903 -2.027479392
H -2.872428968 -3.352682492 -0.579112410
C -2.086925017 0.596788020 0.584936773
H -1.028892626 -0.048486385 2.210551335
H -3.112222722 2.345326489 0.848072783
H 1.544953946 -2.201461450 -3.297945913

