29

C     3.86912  -0.13540  -0.29594
O     2.52600   0.33351  -0.50079
C     1.66131   0.11251   0.48381
O     1.95190  -0.37401   1.55736
C     0.24505   0.43295   0.08995
C     0.08478   1.47659  -0.91347
N    -0.08907   2.21766  -1.79294
N    -0.60281   0.56031   1.20913
N    -1.92236   0.31235   0.69178
C    -2.77597   0.13679   1.88293
C    -1.96466  -0.78191  -0.32657
C    -2.91779  -0.35180  -1.46720
C    -0.55393  -1.09726  -0.79458
C     0.11586  -2.33871  -0.24158
H     3.86247  -1.22271  -0.11462
H     4.33210   0.37591   0.55655
H     4.40678   0.09128  -1.22037
H    -0.29762  -0.06815   1.97718
H    -2.88893   1.07440   2.52784
H    -3.74815  -0.13652   1.54477
H    -2.37427  -0.64174   2.58396
H    -2.41705  -1.70226   0.17035
H    -3.28923  -1.12511  -2.19264
H    -2.44488   0.44311  -2.08067
H    -3.81629   0.08744  -0.99794
H    -0.33172  -0.93681  -1.89497
H     0.08356  -2.28593   0.85967
H     1.17703  -2.37310  -0.55279
H    -0.32681  -3.32434  -0.51702
29

C     3.86860  -0.13581  -0.29590
O     2.52592   0.33395  -0.50021
C     1.66175   0.11611   0.48658
O     1.95252  -0.37498   1.55871
C     0.25171   0.44961   0.09940
C     0.08444   1.47759  -0.91219
N    -0.08998   2.21624  -1.79389
N    -0.60357   0.55592   1.20727
N    -1.91745   0.32825   0.70555
C    -2.77393   0.14012   1.88875
C    -1.96627  -0.80220  -0.34749
C    -2.92004  -0.35132  -1.47085
C    -0.56420  -1.11382  -0.80599
C     0.11671  -2.34045  -0.24160
H     3.86234  -1.22284  -0.11467
H     4.33217   0.37567   0.55653
H     4.40662   0.09113  -1.22038
H    -0.29688  -0.06349   1.98037
H    -2.89151   1.07451   2.53009
H    -3.74624  -0.13695   1.54433
H    -2.37288  -0.64044   2.58536
H    -2.41774  -1.70118   0.17091
H    -3.29418  -1.12219  -2.19435
H    -2.44460   0.44275  -2.08161
H    -3.81437   0.08920  -0.99620
H    -0.33000  -0.93578  -1.89462
H     0.08324  -2.28439   0.85950
H     1.17744  -2.37129  -0.55214
H    -0.32334  -3.32668  -0.51503
29

C     3.86808  -0.13621  -0.29586
O     2.52585   0.33439  -0.49962
C     1.66219   0.11972   0.48936
O     1.95314  -0.37596   1.56005
C     0.25838   0.46628   0.10885
C     0.08409   1.47860  -0.91091
N    -0.09090   2.21482  -1.79484
N    -0.60434   0.55154   1.20541
N    -1.91255   0.34414   0.71932
C    -2.77188   0.14344   1.89457
C    -1.96788  -0.82249  -0.36840
C    -2.92229  -0.35085  -1.47449
C    -0.57446  -1.13038  -0.81740
C     0.11755  -2.34219  -0.24162
H     3.86222  -1.22298  -0.11472
H     4.33224   0.37543   0.55652
H     4.40647   0.09097  -1.22039
H    -0.29615  -0.05883   1.98355
H    -2.89409   1.07463   2.53233
H    -3.74434  -0.13738   1.54389
H    -2.37150  -0.63914   2.58677
H    -2.41844  -1.70010   0.17148
H    -3.29912  -1.11927  -2.19605
H    -2.44431   0.44240  -2.08254
H    -3.81245   0.09095  -0.99447
H    -0.32827  -0.93474  -1.89428
H     0.08292  -2.28285   0.85933
H     1.17784  -2.36948  -0.55149
H    -0.31988  -3.32902  -0.51304
29

C     3.86755  -0.13662  -0.29582
O     2.52577   0.33484  -0.49903
C     1.66263   0.12332   0.49214
O     1.95376  -0.37693   1.56140
C     0.26505   0.48294   0.11830
C     0.08374   1.47961  -0.90962
N    -0.09181   2.21340  -1.79578
N    -0.60511   0.54715   1.20355
N    -1.90764   0.36003   0.73309
C    -2.76984   0.14677   1.90039
C    -1.96949  -0.84278  -0.38931
C    -2.92454  -0.35038  -1.47813
C    -0.58472  -1.14694  -0.82881
C     0.11840  -2.34393  -0.24164
H     3.86209  -1.22311  -0.11476
H     4.33230   0.37520   0.55650
H     4.40631   0.09082  -1.22040
H    -0.29541  -0.05417   1.98673
H    -2.89667   1.07474   2.53458
H    -3.74243  -0.13782   1.54345
H    -2.37011  -0.63783   2.58817
H    -2.41913  -1.69902   0.17205
H    -3.30407  -1.11635  -2.19776
H    -2.44402   0.44204  -2.08348
H    -3.81053   0.09270  -0.99273
H    -0.32654  -0.93371  -1.89393
H     0.08260  -2.28131   0.85916
H     1.17825  -2.36767  -0.55085
H    -0.31642  -3.33136  -0.51105
29

C     3.86703  -0.13703  -0.29578
O     2.52569   0.33528  -0.49845
C     1.66307   0.12693   0.49492
O     1.95437  -0.37791   1.56274
C     0.27172   0.49961   0.12775
C     0.08340   1.48062  -0.90834
N    -0.09273   2.21198  -1.79673
N    -0.60588   0.54277   1.20169
N    -1.90273   0.37593   0.74686
C    -2.76779   0.15010   1.90621
C    -1.97111  -0.86308  -0.41022
C    -2.92679  -0.34990  -1.48178
C    -0.59499  -1.16350  -0.84021
C     0.11925  -2.34567  -0.24166
H     3.86197  -1.22325  -0.11481
H     4.33237   0.37496   0.55648
H     4.40616   0.09067  -1.22042
H    -0.29467  -0.04951   1.98991
H    -2.89925   1.07486   2.53683
H    -3.74053  -0.13825   1.54300
H    -2.36873  -0.63653   2.58958
H    -2.41983  -1.69794   0.17262
H    -3.30901  -1.11342  -2.19946
H    -2.44374   0.44168  -2.08441
H    -3.80860   0.09446  -0.99099
H    -0.32482  -0.93267  -1.89358
H     0.08228  -2.27977   0.85899
H     1.17866  -2.36586  -0.55020
H    -0.31296  -3.33370  -0.50906
29

C     3.86651  -0.13743  -0.29574
O     2.52561   0.33572  -0.49786
C     1.66351   0.13053   0.49770
O     1.95499  -0.37889   1.56409
C     0.27838   0.51627   0.13720
C     0.08305   1.48163  -0.90706
N    -0.09364   2.21056  -1.79768
N    -0.60665   0.53839   1.19983
N    -1.89783   0.39182   0.76063
C    -2.76575   0.15343   1.91203
C    -1.97272  -0.88337  -0.43113
C    -2.92904  -0.34943  -1.48542
C    -0.60525  -1.18007  -0.85162
C     0.12010  -2.34741  -0.24169
H     3.86184  -1.22338  -0.11485
H     4.33244   0.37472   0.55646
H     4.40600   0.09051  -1.22043
H    -0.29394  -0.04485   1.99309
H    -2.90183   1.07497   2.53907
H    -3.73862  -0.13868   1.54256
H    -2.36734  -0.63523   2.59098
H    -2.42052  -1.69686   0.17319
H    -3.31396  -1.11050  -2.20117
H    -2.44345   0.44133  -2.08535
H    -3.80668   0.09621  -0.98926
H    -0.32309  -0.93164  -1.89324
H     0.08196  -2.27823   0.85883
H     1.17907  -2.36405  -0.54955
H    -0.30949  -3.33604  -0.50707
29

C     3.86599  -0.13784  -0.29570
O     2.52554   0.33617  -0.49727
C     1.66395   0.13414   0.50047
O     1.95561  -0.37986   1.56543
C     0.28505   0.53294   0.14664
C     0.08271   1.48263  -0.90577
N    -0.09456   2.20914  -1.79862
N    -0.60742   0.53400   1.19797
N    -1.89292   0.40771   0.77440
C    -2.76370   0.15676   1.91785
C    -1.97433  -0.90366  -0.45205
C    -2.93129  -0.34895  -1.48906
C    -0.61552  -1.19663  -0.86303
C     0.12095  -2.34915  -0.24171
H     3.86172  -1.22352  -0.11490
H     4.33251   0.37448   0.55644
H     4.40584   0.09036  -1.22044
H    -0.29320  -0.04019   1.99627
H    -2.90441   1.07508   2.54132
H    -3.73671  -0.13912   1.54212
H    -2.36596  -0.63392   2.59239
H    -2.42122  -1.69578   0.17376
H    -3.31891  -1.10758  -2.20287
H    -2.44316   0.44097  -2.08628
H    -3.80476   0.09796  -0.98752
H    -0.32136  -0.93061  -1.89289
H     0.08164  -2.27669   0.85866
H     1.17948  -2.36224  -0.54891
H    -0.30603  -3.33838  -0.50508
29

C     3.86546  -0.13825  -0.29566
O     2.52546   0.33661  -0.49669
C     1.66439   0.13775   0.50325
O     1.95623  -0.38084   1.56678
C     0.29172   0.54960   0.15609
C     0.08236   1.48364  -0.90449
N    -0.09547   2.20772  -1.79957
N    -0.60819   0.52962   1.19611
N    -1.88802   0.42361   0.78817
C    -2.76166   0.16009   1.92367
C    -1.97594  -0.92395  -0.47296
C    -2.93353  -0.34848  -1.49271
C    -0.62578  -1.21319  -0.87444
C     0.12180  -2.35090  -0.24173
H     3.86160  -1.22365  -0.11494
H     4.33257   0.37425   0.55643
H     4.40569   0.09021  -1.22045
H    -0.29246  -0.03553   1.99945
H    -2.90698   1.07520   2.54357
H    -3.73481  -0.13955   1.54167
H    -2.36457  -0.63262   2.59379
H    -2.42191  -1.69470   0.17433
H    -3.32385  -1.10466  -2.20458
H    -2.44288   0.44061  -2.08722
H    -3.80284   0.09972  -0.98579
H    -0.31964  -0.92957  -1.89255
H     0.08131  -2.27515   0.85849
H     1.17989  -2.36043  -0.54826
H    -0.30257  -3.34072  -0.50309
29

C     3.86494  -0.13865  -0.29562
O     2.52538   0.33706  -0.49610
C     1.66482   0.14135   0.50603
O     1.95684  -0.38181   1.56812
C     0.29838   0.56626   0.16554
C     0.08202   1.48465  -0.90321
N    -0.09639   2.20630  -1.80052
N    -0.60896   0.52523   1.19425
N    -1.88311   0.43950   0.80194
C    -2.75962   0.16342   1.92950
C    -1.97756  -0.94424  -0.49387
C    -2.93578  -0.34800  -1.49635
C    -0.63605  -1.22975  -0.88585
C     0.12265  -2.35264  -0.24175
H     3.86147  -1.22379  -0.11499
H     4.33264   0.37401   0.55641
H     4.40553   0.09006  -1.22047
H    -0.29173  -0.03087   2.00263
H    -2.90956   1.07531   2.54582
H    -3.73290  -0.13999   1.54123
H    -2.36319  -0.63131   2.59520
H    -2.42261  -1.69362   0.17490
H    -3.32880  -1.10174  -2.20628
H    -2.44259   0.44026  -2.08815
H    -3.80091   0.10147  -0.98405
H    -0.31791  -0.92854  -1.89220
H     0.08099  -2.27361   0.85832
H     1.18030  -2.35862  -0.54761
H    -0.29910  -3.34306  -0.50110
29

C     3.86442  -0.13906  -0.29558
O     2.52530   0.33750  -0.49551
C     1.66526   0.14496   0.50881
O     1.95746  -0.38279   1.56947
C     0.30505   0.58293   0.17499
C     0.08167   1.48566  -0.90193
N    -0.09730   2.20488  -1.80147
N    -0.60973   0.52085   1.19239
N    -1.87820   0.45539   0.81571
C    -2.75757   0.16675   1.93532
C    -1.97917  -0.96453  -0.51478
C    -2.93803  -0.34753  -1.49999
C    -0.64631  -1.24631  -0.89725
C     0.12349  -2.35438  -0.24178
H     3.86135  -1.22392  -0.11503
H     4.33271   0.37377   0.55639
H     4.40538   0.08990  -1.22048
H    -0.29099  -0.02621   2.00581
H    -2.91214   1.07543   2.54806
H    -3.73100  -0.14042   1.54079
H    -2.36181  -0.63001   2.59660
H    -2.42330  -1.69254   0.17547
H    -3.33374  -1.09882  -2.20799
H    -2.44230   0.43990  -2.08909
H    -3.79899   0.10322  -0.98231
H    -0.31618  -0.92751  -1.89185
H     0.08067  -2.27207   0.85815
H     1.18071  -2.35681  -0.54697
H    -0.29564  -3.34540  -0.49911
29

C     3.86390  -0.13947  -0.29554
O     2.52523   0.33794  -0.49493
C     1.66570   0.14856   0.51159
O     1.95808  -0.38377   1.57081
C     0.31172   0.59959   0.18444
C     0.08132   1.48667  -0.90064
N    -0.09822   2.20346  -1.80241
N    -0.61050   0.51647   1.19053
N    -1.87330   0.47129   0.82948
C    -2.75553   0.17008   1.94114
C    -1.98078  -0.98482  -0.53569
C    -2.94028  -0.34706  -1.50364
C    -0.65658  -1.26287  -0.90866
C     0.12434  -2.35612  -0.24180
H     3.86122  -1.22406  -0.11508
H     4.33277   0.37354   0.55637
H     4.40522   0.08975  -1.22049
H    -0.29025  -0.02155   2.00899
H    -2.91472   1.07554   2.55031
H    -3.72909  -0.14085   1.54035
H    -2.36042  -0.62871   2.59801
H    -2.42400  -1.69146   0.17604
H    -3.33869  -1.09590  -2.20969
H    -2.44202   0.43954  -2.09002
H    -3.79707   0.10498  -0.98058
H    -0.31446  -0.92647  -1.89151
H     0.08035  -2.27053   0.85798
H     1.18112  -2.35500  -0.54632
H    -0.29218  -3.34774  -0.49712
29

C     3.86338  -0.13987  -0.29549
O     2.52515   0.33839  -0.49434
C     1.66614   0.15217   0.51437
O     1.95869  -0.38474   1.57216
C     0.31839   0.61626   0.19388
C     0.08098   1.48767  -0.89936
N    -0.09913   2.20203  -1.80336
N    -0.61126   0.51208   1.18867
N    -1.86839   0.48718   0.84325
C    -2.75348   0.17341   1.94696
C    -1.98239  -1.00511  -0.55661
C    -2.94253  -0.34658  -1.50728
C    -0.66684  -1.27944  -0.92007
C     0.12519  -2.35786  -0.24182
H     3.86110  -1.22419  -0.11512
H     4.33284   0.37330   0.55636
H     4.40506   0.08960  -1.22050
H    -0.28952  -0.01689   2.01217
H    -2.91730   1.07565   2.55256
H    -3.72719  -0.14129   1.53990
H    -2.35904  -0.62740   2.59942
H    -2.42469  -1.69038   0.17661
H    -3.34364  -1.09298  -2.21140
H    -2.44173   0.43919  -2.09096
H    -3.79515   0.10673  -0.97884
H    -0.31273  -0.92544  -1.89116
H     0.08003  -2.26899   0.85781
H     1.18153  -2.35319  -0.54567
H    -0.28871  -3.35008  -0.49513
29

C     3.86285  -0.14028  -0.29545
O     2.52507   0.33883  -0.49375
C     1.66658   0.15577   0.51714
O     1.95931  -0.38572   1.57350
C     0.32505   0.63292   0.20333
C     0.08063   1.48868  -0.89808
N    -0.10005   2.20061  -1.80431
N    -0.61203   0.50770   1.18681
N    -1.86349   0.50307   0.85702
C    -2.75144   0.17674   1.95278
C    -1.98401  -1.02540  -0.57752
C    -2.94478  -0.34611  -1.51092
C    -0.67711  -1.29600  -0.93148
C     0.12604  -2.35960  -0.24184
H     3.86097  -1.22433  -0.11517
H     4.33291   0.37306   0.55634
H     4.40491   0.08944  -1.22052
H    -0.28878  -0.01223   2.01536
H    -2.91988   1.07577   2.55480
H    -3.72528  -0.14172   1.53946
H    -2.35765  -0.62610   2.60082
H    -2.42539  -1.68930   0.17718
H    -3.34858  -1.09006  -2.21310
H    -2.44144   0.43883  -2.09189
H    -3.79322   0.10848  -0.97711
H    -0.31100  -0.92441  -1.89082
H     0.07971  -2.26745   0.85764
H     1.18194  -2.35138  -0.54503
H    -0.28525  -3.35242  -0.49314
29

C     3.86233  -0.14069  -0.29541
O     2.52499   0.33927  -0.49317
C     1.66702   0.15938   0.51992
O     1.95993  -0.38669   1.57485
C     0.33172   0.64959   0.21278
C     0.08029   1.48969  -0.89679
N    -0.10096   2.19919  -1.80525
N    -0.61280   0.50331   1.18495
N    -1.85858   0.51897   0.87078
C    -2.74939   0.18007   1.95860
C    -1.98562  -1.04570  -0.59843
C    -2.94703  -0.34563  -1.51456
C    -0.68737  -1.31256  -0.94289
C     0.12689  -2.36134  -0.24187
H     3.86085  -1.22446  -0.11521
H     4.33298   0.37282   0.55632
H     4.40475   0.08929  -1.22053
H    -0.28804  -0.00757   2.01854
H    -2.92246   1.07588   2.55705
H    -3.72337  -0.14215   1.53902
H    -2.35627  -0.62479   2.60223
H    -2.42608  -1.68822   0.17775
H    -3.35353  -1.08714  -2.21481
H    -2.44116   0.43847  -2.09283
H    -3.79130   0.11024  -0.97537
H    -0.30927  -0.92337  -1.89047
H     0.07939  -2.26591   0.85747
H     1.18235  -2.34957  -0.54438
H    -0.28179  -3.35476  -0.49115
29

C     3.86181  -0.14109  -0.29537
O     2.52492   0.33972  -0.49258
C     1.66746   0.16298   0.52270
O     1.96055  -0.38767   1.57619
C     0.33839   0.66625   0.22223
C     0.07994   1.49070  -0.89551
N    -0.10188   2.19777  -1.80620
N    -0.61357   0.49893   1.18309
N    -1.85367   0.53486   0.88455
C    -2.74735   0.18340   1.96442
C    -1.98723  -1.06599  -0.61934
C    -2.94928  -0.34516  -1.51821
C    -0.69764  -1.32912  -0.95429
C     0.12774  -2.36309  -0.24189
H     3.86073  -1.22459  -0.11526
H     4.33304   0.37259   0.55630
H     4.40460   0.08914  -1.22054
H    -0.28731  -0.00291   2.02172
H    -2.92504   1.07600   2.55930
H    -3.72147  -0.14259   1.53857
H    -2.35488  -0.62349   2.60363
H    -2.42678  -1.68714   0.17832
H    -3.35847  -1.08421  -2.21651
H    -2.44087   0.43812  -2.09376
H    -3.78938   0.11199  -0.97364
H    -0.30755  -0.92234  -1.89013
H     0.07907  -2.26437   0.85731
H     1.18276  -2.34776  -0.54373
H    -0.27833  -3.35710  -0.48916
29

C     3.86129  -0.14150  -0.29533
O     2.52484   0.34016  -0.49199
C     1.66790   0.16659   0.52548
O     1.96116  -0.38865   1.57754
C     0.34506   0.68292   0.23168
C     0.07959   1.49171  -0.89423
N    -0.10279   2.19635  -1.80715
N    -0.61434   0.49455   1.18123
N    -1.84877   0.55075   0.89832
C    -2.74531   0.18673   1.97025
C    -1.98884  -1.08628  -0.64025
C    -2.95153  -0.34469  -1.52185
C    -0.70790  -1.34568  -0.96570
C     0.12858  -2.36483  -0.24191
H     3.86060  -1.22473  -0.11530
H     4.33311   0.37235   0.55628
H     4.40444   0.08899  -1.22055
H    -0.28657   0.00175   2.02490
H    -2.92761   1.07611   2.56154
H    -3.71956  -0.14302   1.53813
H    -2.35350  -0.62219   2.60504
H    -2.42747  -1.68606   0.17889
H    -3.36342  -1.08129  -2.21821
H    -2.44058   0.43776  -2.09470
H    -3.78746   0.11374  -0.97190
H    -0.30582  -0.92131  -1.88978
H     0.07875  -2.26283   0.85714
H     1.18317  -2.34595  -0.54309
H    -0.27486  -3.35944  -0.48717
29

C     3.86076  -0.14191  -0.29529
O     2.52476   0.34061  -0.49141
C     1.66834   0.17020   0.52826
O     1.96178  -0.38962   1.57888
C     0.35172   0.69958   0.24112
C     0.07925   1.49271  -0.89294
N    -0.10371   2.19493  -1.80809
N    -0.61511   0.49016   1.17937
N    -1.84386   0.56665   0.91209
C    -2.74326   0.19006   1.97607
C    -1.99046  -1.10657  -0.66117
C    -2.95378  -0.34421  -1.52549
C    -0.71817  -1.36224  -0.97711
C     0.12943  -2.36657  -0.24193
H     3.86048  -1.22486  -0.11535
H     4.33318   0.37211   0.55627
H     4.40428   0.08883  -1.22057
H    -0.28583   0.00641   2.02808
H    -2.93019   1.07622   2.56379
H    -3.71766  -0.14345   1.53769
H    -2.35211  -0.62088   2.60644
H    -2.42817  -1.68498   0.17946
H    -3.36836  -1.07837  -2.21992
H    -2.44030   0.43740  -2.09563
H    -3.78553   0.11550  -0.97016
H    -0.30409  -0.92027  -1.88943
H     0.07843  -2.26129   0.85697
H     1.18358  -2.34414  -0.54244
H    -0.27140  -3.36178  -0.48518
29

C     3.86024  -0.14231  -0.29525
O     2.52468   0.34105  -0.49082
C     1.66878   0.17380   0.53103
O     1.96240  -0.39060   1.58023
C     0.35839   0.71625   0.25057
C     0.07890   1.49372  -0.89166
N    -0.10462   2.19351  -1.80904
N    -0.61588   0.48578   1.17751
N    -1.83895   0.58254   0.92586
C    -2.74122   0.19338   1.98189
C    -1.99207  -1.12686  -0.68208
C    -2.95603  -0.34374  -1.52914
C    -0.72843  -1.37881  -0.98852
C     0.13028  -2.36831  -0.24196
H     3.86035  -1.22500  -0.11540
H     4.33325   0.37187   0.55625
H     4.40413   0.08868  -1.22058
H    -0.28510   0.01107   2.03126
H    -2.93277   1.07634   2.56604
H    -3.71575  -0.14389   1.53725
H    -2.35073  -0.61958   2.60785
H    -2.42886  -1.68390   0.18003
H    -3.37331  -1.07545  -2.22162
H    -2.44001   0.43705  -2.09657
H    -3.78361   0.11725  -0.96843
H    -0.30237  -0.91924  -1.88909
H     0.07811  -2.25975   0.85680
H     1.18399  -2.34233  -0.54180
H    -0.26794  -3.36412  -0.48319
29

C     3.85972  -0.14272  -0.29521
O     2.52461   0.34149  -0.49023
C     1.66921   0.17741   0.53381
O     1.96302  -0.39157   1.58157
C     0.36506   0.73291   0.26002
C     0.07856   1.49473  -0.89038
N    -0.10554   2.19209  -1.80999
N    -0.61665   0.48139   1.17565
N    -1.83405   0.59843   0.93963
C    -2.73917   0.19671   1.98771
C    -1.99368  -1.14715  -0.70299
C    -2.95828  -0.34326  -1.53278
C    -0.73869  -1.39537  -0.99993
C     0.13113  -2.37005  -0.24198
H     3.86023  -1.22513  -0.11544
H     4.33331   0.37164   0.55623
H     4.40397   0.08853  -1.22059
H    -0.28436   0.01573   2.03444
H    -2.93535   1.07645   2.56828
H    -3.71384  -0.14432   1.53680
H    -2.34934  -0.61827   2.60925
H    -2.42956  -1.68282   0.18060
H    -3.37826  -1.07253  -2.22333
H    -2.43972   0.43669  -2.09750
H    -3.78169   0.11901  -0.96669
H    -0.30064  -0.91821  -1.88874
H     0.07779  -2.25821   0.85663
H     1.18439  -2.34052  -0.54115
H    -0.26447  -3.36646  -0.48120
29

C     3.85920  -0.14313  -0.29517
O     2.52453   0.34194  -0.48965
C     1.66965   0.18101   0.53659
O     1.96363  -0.39255   1.58291
C     0.37173   0.74958   0.26947
C     0.07821   1.49574  -0.88909
N    -0.10645   2.19067  -1.81093
N    -0.61742   0.47701   1.17379
N    -1.82914   0.61433   0.95340
C    -2.73713   0.20004   1.99353
C    -1.99529  -1.16744  -0.72390
C    -2.96053  -0.34279  -1.53642
C    -0.74896  -1.41193  -1.01133
C     0.13198  -2.37179  -0.24200
H     3.86010  -1.22527  -0.11549
H     4.33338   0.37140   0.55621
H     4.40382   0.08838  -1.22060
H    -0.28362   0.02039   2.03762
H    -2.93793   1.07656   2.57053
H    -3.71194  -0.14476   1.53636
H    -2.34796  -0.61697   2.61066
H    -2.43025  -1.68173   0.18117
H    -3.38320  -1.06961  -2.22503
H    -2.43944   0.43633  -2.09844
H    -3.77977   0.12076  -0.96496
H    -0.29891  -0.91717  -1.88840
H     0.07747  -2.25667   0.85646
H     1.18480  -2.33871  -0.54050
H    -0.26101  -3.36880  -0.47921
29

C     3.85867  -0.14353  -0.29513
O     2.52445   0.34238  -0.48906
C     1.67009   0.18462   0.53937
O     1.96425  -0.39353   1.58426
C     0.37839   0.76624   0.27892
C     0.07787   1.49675  -0.88781
N    -0.10737   2.18925  -1.81188
N    -0.61818   0.47263   1.17193
N    -1.82424   0.63022   0.96717
C    -2.73508   0.20337   1.99935
C    -1.99691  -1.18773  -0.74481
C    -2.96278  -0.34232  -1.54007
C    -0.75922  -1.42849  -1.02274
C     0.13283  -2.37354  -0.24202
H     3.85998  -1.22540  -0.11553
H     4.33345   0.37116   0.55619
H     4.40366   0.08822  -1.22062
H    -0.28289   0.02506   2.04080
H    -2.94051   1.07668   2.57278
H    -3.71003  -0.14519   1.53592
H    -2.34657  -0.61567   2.61206
H    -2.43095  -1.68065   0.18174
H    -3.38815  -1.06669  -2.22674
H    -2.43915   0.43598  -2.09937
H    -3.77784   0.12251  -0.96322
H    -0.29719  -0.91614  -1.88805
H     0.07715  -2.25513   0.85629
H     1.18521  -2.33690  -0.53986
H    -0.25755  -3.37114  -0.47723
29

C     3.85920  -0.14313  -0.29517
O     2.52453   0.34194  -0.48965
C     1.66965   0.18101   0.53659
O     1.96363  -0.39255   1.58291
C     0.37173   0.74958   0.26947
C     0.07821   1.49574  -0.88909
N    -0.10645   2.19067  -1.81093
N    -0.61742   0.47701   1.17379
N    -1.82914   0.61433   0.95340
C    -2.73713   0.20004   1.99353
C    -1.99529  -1.16744  -0.72390
C    -2.96053  -0.34279  -1.53642
C    -0.74896  -1.41193  -1.01133
C     0.13198  -2.37179  -0.24200
H     3.86010  -1.22527  -0.11549
H     4.33338   0.37140   0.55621
H     4.40382   0.08838  -1.22060
H    -0.28362   0.02039   2.03762
H    -2.93793   1.07656   2.57053
H    -3.71194  -0.14476   1.53636
H    -2.34796  -0.61697   2.61066
H    -2.43025  -1.68173   0.18117
H    -3.38320  -1.06961  -2.22503
H    -2.43944   0.43633  -2.09844
H    -3.77977   0.12076  -0.96496
H    -0.29891  -0.91717  -1.88840
H     0.07747  -2.25667   0.85646
H     1.18480  -2.33871  -0.54050
H    -0.26101  -3.36880  -0.47921
29

C     3.85972  -0.14272  -0.29521
O     2.52461   0.34149  -0.49023
C     1.66921   0.17741   0.53381
O     1.96302  -0.39157   1.58157
C     0.36506   0.73291   0.26002
C     0.07856   1.49473  -0.89038
N    -0.10554   2.19209  -1.80999
N    -0.61665   0.48139   1.17565
N    -1.83405   0.59843   0.93963
C    -2.73917   0.19671   1.98771
C    -1.99368  -1.14715  -0.70299
C    -2.95828  -0.34326  -1.53278
C    -0.73869  -1.39537  -0.99993
C     0.13113  -2.37005  -0.24198
H     3.86023  -1.22513  -0.11544
H     4.33331   0.37164   0.55623
H     4.40397   0.08853  -1.22059
H    -0.28436   0.01573   2.03444
H    -2.93535   1.07645   2.56828
H    -3.71384  -0.14432   1.53680
H    -2.34934  -0.61827   2.60925
H    -2.42956  -1.68282   0.18060
H    -3.37826  -1.07253  -2.22333
H    -2.43972   0.43669  -2.09750
H    -3.78169   0.11901  -0.96669
H    -0.30064  -0.91821  -1.88874
H     0.07779  -2.25821   0.85663
H     1.18439  -2.34052  -0.54115
H    -0.26447  -3.36646  -0.48120
29

C     3.86024  -0.14231  -0.29525
O     2.52468   0.34105  -0.49082
C     1.66878   0.17380   0.53103
O     1.96240  -0.39060   1.58023
C     0.35839   0.71625   0.25057
C     0.07890   1.49372  -0.89166
N    -0.10462   2.19351  -1.80904
N    -0.61588   0.48578   1.17751
N    -1.83895   0.58254   0.92586
C    -2.74122   0.19338   1.98189
C    -1.99207  -1.12686  -0.68208
C    -2.95603  -0.34374  -1.52914
C    -0.72843  -1.37881  -0.98852
C     0.13028  -2.36831  -0.24196
H     3.86035  -1.22500  -0.11540
H     4.33325   0.37187   0.55625
H     4.40413   0.08868  -1.22058
H    -0.28510   0.01107   2.03126
H    -2.93277   1.07634   2.56604
H    -3.71575  -0.14389   1.53725
H    -2.35073  -0.61958   2.60785
H    -2.42886  -1.68390   0.18003
H    -3.37331  -1.07545  -2.22162
H    -2.44001   0.43705  -2.09657
H    -3.78361   0.11725  -0.96843
H    -0.30237  -0.91924  -1.88909
H     0.07811  -2.25975   0.85680
H     1.18399  -2.34233  -0.54180
H    -0.26794  -3.36412  -0.48319
29

C     3.86076  -0.14191  -0.29529
O     2.52476   0.34061  -0.49141
C     1.66834   0.17020   0.52826
O     1.96178  -0.38962   1.57888
C     0.35172   0.69958   0.24112
C     0.07925   1.49271  -0.89294
N    -0.10371   2.19493  -1.80809
N    -0.61511   0.49016   1.17937
N    -1.84386   0.56665   0.91209
C    -2.74326   0.19006   1.97607
C    -1.99046  -1.10657  -0.66117
C    -2.95378  -0.34421  -1.52549
C    -0.71817  -1.36224  -0.97711
C     0.12943  -2.36657  -0.24193
H     3.86048  -1.22486  -0.11535
H     4.33318   0.37211   0.55627
H     4.40428   0.08883  -1.22057
H    -0.28583   0.00641   2.02808
H    -2.93019   1.07622   2.56379
H    -3.71766  -0.14345   1.53769
H    -2.35211  -0.62088   2.60644
H    -2.42817  -1.68498   0.17946
H    -3.36836  -1.07837  -2.21992
H    -2.44030   0.43740  -2.09563
H    -3.78553   0.11550  -0.97016
H    -0.30409  -0.92027  -1.88943
H     0.07843  -2.26129   0.85697
H     1.18358  -2.34414  -0.54244
H    -0.27140  -3.36178  -0.48518
29

C     3.86129  -0.14150  -0.29533
O     2.52484   0.34016  -0.49199
C     1.66790   0.16659   0.52548
O     1.96116  -0.38865   1.57754
C     0.34506   0.68292   0.23168
C     0.07959   1.49171  -0.89423
N    -0.10279   2.19635  -1.80715
N    -0.61434   0.49455   1.18123
N    -1.84877   0.55075   0.89832
C    -2.74531   0.18673   1.97025
C    -1.98884  -1.08628  -0.64025
C    -2.95153  -0.34469  -1.52185
C    -0.70790  -1.34568  -0.96570
C     0.12858  -2.36483  -0.24191
H     3.86060  -1.22473  -0.11530
H     4.33311   0.37235   0.55628
H     4.40444   0.08899  -1.22055
H    -0.28657   0.00175   2.02490
H    -2.92761   1.07611   2.56154
H    -3.71956  -0.14302   1.53813
H    -2.35350  -0.62219   2.60504
H    -2.42747  -1.68606   0.17889
H    -3.36342  -1.08129  -2.21821
H    -2.44058   0.43776  -2.09470
H    -3.78746   0.11374  -0.97190
H    -0.30582  -0.92131  -1.88978
H     0.07875  -2.26283   0.85714
H     1.18317  -2.34595  -0.54309
H    -0.27486  -3.35944  -0.48717
29

C     3.86181  -0.14109  -0.29537
O     2.52492   0.33972  -0.49258
C     1.66746   0.16298   0.52270
O     1.96055  -0.38767   1.57619
C     0.33839   0.66625   0.22223
C     0.07994   1.49070  -0.89551
N    -0.10188   2.19777  -1.80620
N    -0.61357   0.49893   1.18309
N    -1.85367   0.53486   0.88455
C    -2.74735   0.18340   1.96442
C    -1.98723  -1.06599  -0.61934
C    -2.94928  -0.34516  -1.51821
C    -0.69764  -1.32912  -0.95429
C     0.12774  -2.36309  -0.24189
H     3.86073  -1.22459  -0.11526
H     4.33304   0.37259   0.55630
H     4.40460   0.08914  -1.22054
H    -0.28731  -0.00291   2.02172
H    -2.92504   1.07600   2.55930
H    -3.72147  -0.14259   1.53857
H    -2.35488  -0.62349   2.60363
H    -2.42678  -1.68714   0.17832
H    -3.35847  -1.08421  -2.21651
H    -2.44087   0.43812  -2.09376
H    -3.78938   0.11199  -0.97364
H    -0.30755  -0.92234  -1.89013
H     0.07907  -2.26437   0.85731
H     1.18276  -2.34776  -0.54373
H    -0.27833  -3.35710  -0.48916
29

C     3.86233  -0.14069  -0.29541
O     2.52499   0.33927  -0.49317
C     1.66702   0.15938   0.51992
O     1.95993  -0.38669   1.57485
C     0.33172   0.64959   0.21278
C     0.08029   1.48969  -0.89679
N    -0.10096   2.19919  -1.80525
N    -0.61280   0.50331   1.18495
N    -1.85858   0.51897   0.87078
C    -2.74939   0.18007   1.95860
C    -1.98562  -1.04570  -0.59843
C    -2.94703  -0.34563  -1.51456
C    -0.68737  -1.31256  -0.94289
C     0.12689  -2.36134  -0.24187
H     3.86085  -1.22446  -0.11521
H     4.33298   0.37282   0.55632
H     4.40475   0.08929  -1.22053
H    -0.28804  -0.00757   2.01854
H    -2.92246   1.07588   2.55705
H    -3.72337  -0.14215   1.53902
H    -2.35627  -0.62479   2.60223
H    -2.42608  -1.68822   0.17775
H    -3.35353  -1.08714  -2.21481
H    -2.44116   0.43847  -2.09283
H    -3.79130   0.11024  -0.97537
H    -0.30927  -0.92337  -1.89047
H     0.07939  -2.26591   0.85747
H     1.18235  -2.34957  -0.54438
H    -0.28179  -3.35476  -0.49115
29

C     3.86285  -0.14028  -0.29545
O     2.52507   0.33883  -0.49375
C     1.66658   0.15577   0.51714
O     1.95931  -0.38572   1.57350
C     0.32505   0.63292   0.20333
C     0.08063   1.48868  -0.89808
N    -0.10005   2.20061  -1.80431
N    -0.61203   0.50770   1.18681
N    -1.86349   0.50307   0.85702
C    -2.75144   0.17674   1.95278
C    -1.98401  -1.02540  -0.57752
C    -2.94478  -0.34611  -1.51092
C    -0.67711  -1.29600  -0.93148
C     0.12604  -2.35960  -0.24184
H     3.86097  -1.22433  -0.11517
H     4.33291   0.37306   0.55634
H     4.40491   0.08944  -1.22052
H    -0.28878  -0.01223   2.01536
H    -2.91988   1.07577   2.55480
H    -3.72528  -0.14172   1.53946
H    -2.35765  -0.62610   2.60082
H    -2.42539  -1.68930   0.17718
H    -3.34858  -1.09006  -2.21310
H    -2.44144   0.43883  -2.09189
H    -3.79322   0.10848  -0.97711
H    -0.31100  -0.92441  -1.89082
H     0.07971  -2.26745   0.85764
H     1.18194  -2.35138  -0.54503
H    -0.28525  -3.35242  -0.49314
29

C     3.86338  -0.13987  -0.29549
O     2.52515   0.33839  -0.49434
C     1.66614   0.15217   0.51437
O     1.95869  -0.38474   1.57216
C     0.31839   0.61626   0.19388
C     0.08098   1.48767  -0.89936
N    -0.09913   2.20203  -1.80336
N    -0.61126   0.51208   1.18867
N    -1.86839   0.48718   0.84325
C    -2.75348   0.17341   1.94696
C    -1.98239  -1.00511  -0.55661
C    -2.94253  -0.34658  -1.50728
C    -0.66684  -1.27944  -0.92007
C     0.12519  -2.35786  -0.24182
H     3.86110  -1.22419  -0.11512
H     4.33284   0.37330   0.55636
H     4.40506   0.08960  -1.22050
H    -0.28952  -0.01689   2.01217
H    -2.91730   1.07565   2.55256
H    -3.72719  -0.14129   1.53990
H    -2.35904  -0.62740   2.59942
H    -2.42469  -1.69038   0.17661
H    -3.34364  -1.09298  -2.21140
H    -2.44173   0.43919  -2.09096
H    -3.79515   0.10673  -0.97884
H    -0.31273  -0.92544  -1.89116
H     0.08003  -2.26899   0.85781
H     1.18153  -2.35319  -0.54567
H    -0.28871  -3.35008  -0.49513
29

C     3.86390  -0.13947  -0.29554
O     2.52523   0.33794  -0.49493
C     1.66570   0.14856   0.51159
O     1.95808  -0.38377   1.57081
C     0.31172   0.59959   0.18444
C     0.08132   1.48667  -0.90064
N    -0.09822   2.20346  -1.80241
N    -0.61050   0.51647   1.19053
N    -1.87330   0.47129   0.82948
C    -2.75553   0.17008   1.94114
C    -1.98078  -0.98482  -0.53569
C    -2.94028  -0.34706  -1.50364
C    -0.65658  -1.26287  -0.90866
C     0.12434  -2.35612  -0.24180
H     3.86122  -1.22406  -0.11508
H     4.33277   0.37354   0.55637
H     4.40522   0.08975  -1.22049
H    -0.29025  -0.02155   2.00899
H    -2.91472   1.07554   2.55031
H    -3.72909  -0.14085   1.54035
H    -2.36042  -0.62871   2.59801
H    -2.42400  -1.69146   0.17604
H    -3.33869  -1.09590  -2.20969
H    -2.44202   0.43954  -2.09002
H    -3.79707   0.10498  -0.98058
H    -0.31446  -0.92647  -1.89151
H     0.08035  -2.27053   0.85798
H     1.18112  -2.35500  -0.54632
H    -0.29218  -3.34774  -0.49712
29

C     3.86442  -0.13906  -0.29558
O     2.52530   0.33750  -0.49551
C     1.66526   0.14496   0.50881
O     1.95746  -0.38279   1.56947
C     0.30505   0.58293   0.17499
C     0.08167   1.48566  -0.90193
N    -0.09730   2.20488  -1.80147
N    -0.60973   0.52085   1.19239
N    -1.87820   0.45539   0.81571
C    -2.75757   0.16675   1.93532
C    -1.97917  -0.96453  -0.51478
C    -2.93803  -0.34753  -1.49999
C    -0.64631  -1.24631  -0.89725
C     0.12349  -2.35438  -0.24178
H     3.86135  -1.22392  -0.11503
H     4.33271   0.37377   0.55639
H     4.40538   0.08990  -1.22048
H    -0.29099  -0.02621   2.00581
H    -2.91214   1.07543   2.54806
H    -3.73100  -0.14042   1.54079
H    -2.36181  -0.63001   2.59660
H    -2.42330  -1.69254   0.17547
H    -3.33374  -1.09882  -2.20799
H    -2.44230   0.43990  -2.08909
H    -3.79899   0.10322  -0.98231
H    -0.31618  -0.92751  -1.89185
H     0.08067  -2.27207   0.85815
H     1.18071  -2.35681  -0.54697
H    -0.29564  -3.34540  -0.49911
29

C     3.86494  -0.13865  -0.29562
O     2.52538   0.33706  -0.49610
C     1.66482   0.14135   0.50603
O     1.95684  -0.38181   1.56812
C     0.29838   0.56626   0.16554
C     0.08202   1.48465  -0.90321
N    -0.09639   2.20630  -1.80052
N    -0.60896   0.52523   1.19425
N    -1.88311   0.43950   0.80194
C    -2.75962   0.16342   1.92950
C    -1.97756  -0.94424  -0.49387
C    -2.93578  -0.34800  -1.49635
C    -0.63605  -1.22975  -0.88585
C     0.12265  -2.35264  -0.24175
H     3.86147  -1.22379  -0.11499
H     4.33264   0.37401   0.55641
H     4.40553   0.09006  -1.22047
H    -0.29173  -0.03087   2.00263
H    -2.90956   1.07531   2.54582
H    -3.73290  -0.13999   1.54123
H    -2.36319  -0.63131   2.59520
H    -2.42261  -1.69362   0.17490
H    -3.32880  -1.10174  -2.20628
H    -2.44259   0.44026  -2.08815
H    -3.80091   0.10147  -0.98405
H    -0.31791  -0.92854  -1.89220
H     0.08099  -2.27361   0.85832
H     1.18030  -2.35862  -0.54761
H    -0.29910  -3.34306  -0.50110
29

C     3.86546  -0.13825  -0.29566
O     2.52546   0.33661  -0.49669
C     1.66439   0.13775   0.50325
O     1.95623  -0.38084   1.56678
C     0.29172   0.54960   0.15609
C     0.08236   1.48364  -0.90449
N    -0.09547   2.20772  -1.79957
N    -0.60819   0.52962   1.19611
N    -1.88802   0.42361   0.78817
C    -2.76166   0.16009   1.92367
C    -1.97594  -0.92395  -0.47296
C    -2.93353  -0.34848  -1.49271
C    -0.62578  -1.21319  -0.87444
C     0.12180  -2.35090  -0.24173
H     3.86160  -1.22365  -0.11494
H     4.33257   0.37425   0.55643
H     4.40569   0.09021  -1.22045
H    -0.29246  -0.03553   1.99945
H    -2.90698   1.07520   2.54357
H    -3.73481  -0.13955   1.54167
H    -2.36457  -0.63262   2.59379
H    -2.42191  -1.69470   0.17433
H    -3.32385  -1.10466  -2.20458
H    -2.44288   0.44061  -2.08722
H    -3.80284   0.09972  -0.98579
H    -0.31964  -0.92957  -1.89255
H     0.08131  -2.27515   0.85849
H     1.17989  -2.36043  -0.54826
H    -0.30257  -3.34072  -0.50309
29

C     3.86599  -0.13784  -0.29570
O     2.52554   0.33617  -0.49727
C     1.66395   0.13414   0.50047
O     1.95561  -0.37986   1.56543
C     0.28505   0.53294   0.14664
C     0.08271   1.48263  -0.90577
N    -0.09456   2.20914  -1.79862
N    -0.60742   0.53400   1.19797
N    -1.89292   0.40771   0.77440
C    -2.76370   0.15676   1.91785
C    -1.97433  -0.90366  -0.45205
C    -2.93129  -0.34895  -1.48906
C    -0.61552  -1.19663  -0.86303
C     0.12095  -2.34915  -0.24171
H     3.86172  -1.22352  -0.11490
H     4.33251   0.37448   0.55644
H     4.40584   0.09036  -1.22044
H    -0.29320  -0.04019   1.99627
H    -2.90441   1.07508   2.54132
H    -3.73671  -0.13912   1.54212
H    -2.36596  -0.63392   2.59239
H    -2.42122  -1.69578   0.17376
H    -3.31891  -1.10758  -2.20287
H    -2.44316   0.44097  -2.08628
H    -3.80476   0.09796  -0.98752
H    -0.32136  -0.93061  -1.89289
H     0.08164  -2.27669   0.85866
H     1.17948  -2.36224  -0.54891
H    -0.30603  -3.33838  -0.50508
29

C     3.86651  -0.13743  -0.29574
O     2.52561   0.33572  -0.49786
C     1.66351   0.13053   0.49770
O     1.95499  -0.37889   1.56409
C     0.27838   0.51627   0.13720
C     0.08305   1.48163  -0.90706
N    -0.09364   2.21056  -1.79768
N    -0.60665   0.53839   1.19983
N    -1.89783   0.39182   0.76063
C    -2.76575   0.15343   1.91203
C    -1.97272  -0.88337  -0.43113
C    -2.92904  -0.34943  -1.48542
C    -0.60525  -1.18007  -0.85162
C     0.12010  -2.34741  -0.24169
H     3.86184  -1.22338  -0.11485
H     4.33244   0.37472   0.55646
H     4.40600   0.09051  -1.22043
H    -0.29394  -0.04485   1.99309
H    -2.90183   1.07497   2.53907
H    -3.73862  -0.13868   1.54256
H    -2.36734  -0.63523   2.59098
H    -2.42052  -1.69686   0.17319
H    -3.31396  -1.11050  -2.20117
H    -2.44345   0.44133  -2.08535
H    -3.80668   0.09621  -0.98926
H    -0.32309  -0.93164  -1.89324
H     0.08196  -2.27823   0.85883
H     1.17907  -2.36405  -0.54955
H    -0.30949  -3.33604  -0.50707
29

C     3.86703  -0.13703  -0.29578
O     2.52569   0.33528  -0.49845
C     1.66307   0.12693   0.49492
O     1.95437  -0.37791   1.56274
C     0.27172   0.49961   0.12775
C     0.08340   1.48062  -0.90834
N    -0.09273   2.21198  -1.79673
N    -0.60588   0.54277   1.20169
N    -1.90273   0.37593   0.74686
C    -2.76779   0.15010   1.90621
C    -1.97111  -0.86308  -0.41022
C    -2.92679  -0.34990  -1.48178
C    -0.59499  -1.16350  -0.84021
C     0.11925  -2.34567  -0.24166
H     3.86197  -1.22325  -0.11481
H     4.33237   0.37496   0.55648
H     4.40616   0.09067  -1.22042
H    -0.29467  -0.04951   1.98991
H    -2.89925   1.07486   2.53683
H    -3.74053  -0.13825   1.54300
H    -2.36873  -0.63653   2.58958
H    -2.41983  -1.69794   0.17262
H    -3.30901  -1.11342  -2.19946
H    -2.44374   0.44168  -2.08441
H    -3.80860   0.09446  -0.99099
H    -0.32482  -0.93267  -1.89358
H     0.08228  -2.27977   0.85899
H     1.17866  -2.36586  -0.55020
H    -0.31296  -3.33370  -0.50906
29

C     3.86755  -0.13662  -0.29582
O     2.52577   0.33484  -0.49903
C     1.66263   0.12332   0.49214
O     1.95376  -0.37693   1.56140
C     0.26505   0.48294   0.11830
C     0.08374   1.47961  -0.90962
N    -0.09181   2.21340  -1.79578
N    -0.60511   0.54715   1.20355
N    -1.90764   0.36003   0.73309
C    -2.76984   0.14677   1.90039
C    -1.96949  -0.84278  -0.38931
C    -2.92454  -0.35038  -1.47813
C    -0.58472  -1.14694  -0.82881
C     0.11840  -2.34393  -0.24164
H     3.86209  -1.22311  -0.11476
H     4.33230   0.37520   0.55650
H     4.40631   0.09082  -1.22040
H    -0.29541  -0.05417   1.98673
H    -2.89667   1.07474   2.53458
H    -3.74243  -0.13782   1.54345
H    -2.37011  -0.63783   2.58817
H    -2.41913  -1.69902   0.17205
H    -3.30407  -1.11635  -2.19776
H    -2.44402   0.44204  -2.08348
H    -3.81053   0.09270  -0.99273
H    -0.32654  -0.93371  -1.89393
H     0.08260  -2.28131   0.85916
H     1.17825  -2.36767  -0.55085
H    -0.31642  -3.33136  -0.51105
29

C     3.86808  -0.13621  -0.29586
O     2.52585   0.33439  -0.49962
C     1.66219   0.11972   0.48936
O     1.95314  -0.37596   1.56005
C     0.25838   0.46628   0.10885
C     0.08409   1.47860  -0.91091
N    -0.09090   2.21482  -1.79484
N    -0.60434   0.55154   1.20541
N    -1.91255   0.34414   0.71932
C    -2.77188   0.14344   1.89457
C    -1.96788  -0.82249  -0.36840
C    -2.92229  -0.35085  -1.47449
C    -0.57446  -1.13038  -0.81740
C     0.11755  -2.34219  -0.24162
H     3.86222  -1.22298  -0.11472
H     4.33224   0.37543   0.55652
H     4.40647   0.09097  -1.22039
H    -0.29615  -0.05883   1.98355
H    -2.89409   1.07463   2.53233
H    -3.74434  -0.13738   1.54389
H    -2.37150  -0.63914   2.58677
H    -2.41844  -1.70010   0.17148
H    -3.29912  -1.11927  -2.19605
H    -2.44431   0.44240  -2.08254
H    -3.81245   0.09095  -0.99447
H    -0.32827  -0.93474  -1.89428
H     0.08292  -2.28285   0.85933
H     1.17784  -2.36948  -0.55149
H    -0.31988  -3.32902  -0.51304
29

C     3.86860  -0.13581  -0.29590
O     2.52592   0.33395  -0.50021
C     1.66175   0.11611   0.48658
O     1.95252  -0.37498   1.55871
C     0.25171   0.44961   0.09940
C     0.08444   1.47759  -0.91219
N    -0.08998   2.21624  -1.79389
N    -0.60357   0.55592   1.20727
N    -1.91745   0.32825   0.70555
C    -2.77393   0.14012   1.88875
C    -1.96627  -0.80220  -0.34749
C    -2.92004  -0.35132  -1.47085
C    -0.56420  -1.11382  -0.80599
C     0.11671  -2.34045  -0.24160
H     3.86234  -1.22284  -0.11467
H     4.33217   0.37567   0.55653
H     4.40662   0.09113  -1.22038
H    -0.29688  -0.06349   1.98037
H    -2.89151   1.07451   2.53009
H    -3.74624  -0.13695   1.54433
H    -2.37288  -0.64044   2.58536
H    -2.41774  -1.70118   0.17091
H    -3.29418  -1.12219  -2.19435
H    -2.44460   0.44275  -2.08161
H    -3.81437   0.08920  -0.99620
H    -0.33000  -0.93578  -1.89462
H     0.08324  -2.28439   0.85950
H     1.17744  -2.37129  -0.55214
H    -0.32334  -3.32668  -0.51503
