13

C -2.016410794 1.652503626 3.386909854
C 0.057232718 0.968701315 2.138622500
C 1.865493146 2.828593728 1.012874872
H 1.189762082 4.735336780 1.387364847
H 3.752640191 2.606169827 1.806102304
H 2.045922137 2.555824688 -1.020117588
N 0.592505353 -1.623932763 1.856151361
C 2.569736757 -2.781942362 0.675475366
O 4.311034343 -1.785507370 -0.400355582
H 2.395314016 -4.859316798 0.819176490
H -0.672758487 -2.804193074 2.645550680
H -2.469559692 3.627036615 3.634541493
H -3.306575423 0.279110149 4.190062014

