18

C -2.635444519 -0.438018220 -2.970619024
C -2.314501333 0.139713707 0.722865199
C 0.187384676 0.549754589 1.782816815
C 1.470658248 3.078794488 1.672380389
N 1.722411833 -1.619073218 2.232171295
C 3.001301695 -2.788829582 0.359138614
O 2.830244253 -2.220825530 -1.858528995
H -1.513845879 0.814895863 -4.165833117
H -2.234137574 -2.403687373 -3.409434217
H -4.634769543 0.007064647 -3.127753739
H -3.518509361 1.793220684 0.719126792
H -3.239588638 -1.615915467 1.224289797
H -0.638030121 0.042669241 -0.885466835
H 0.087670839 4.577996558 1.350607557
H 2.412270471 3.510160569 3.462515283
H 2.905992035 3.227547643 0.180603677
H 1.982777014 -2.264921420 4.005255586
H 4.208958387 -4.357800133 1.016967868

