9

N -3.327022505 -0.053138229 -1.069285238
C -1.140694587 -0.403381279 -0.163045400
C 1.033776585 1.258105047 -0.346905623
N 3.163305572 0.598306321 0.695485260
N 4.988906902 0.024048541 1.593361567
O -0.634735346 -2.527644922 1.147088192
H -2.181244215 -3.492071884 1.159598387
H -3.465238246 1.606453060 -2.012006145
H 1.014021974 3.047834916 -1.315175532

