13

N 4.610057746 -1.858493487 2.683728212
C 3.071053206 -0.538444446 1.917577985
C 1.116513406 1.102073234 0.861159269
C 0.646185385 0.994217984 -2.000900319
C -2.193220260 0.446561804 -1.603120887
C -2.214419056 -1.798065771 0.082227823
N -1.491171036 0.339051033 1.696552783
H 1.462433707 3.022461336 1.515889618
H 1.636425326 -0.515586243 -2.994630716
H 1.030014556 2.779441725 -2.941305819
H -2.752958234 1.815221253 0.486228063
H -0.745504137 -3.215710323 -0.124297851
H -4.033552647 -2.566784948 0.623413789

