15

C 4.167192340 0.993793023 -1.485778325
O 1.522920306 0.889435581 -1.550078486
C 0.552149420 -1.289442584 -0.381206949
C -2.303364667 -1.259622894 -0.551072408
C -3.488781890 -3.578799391 0.671875305
H -5.544007602 -3.528023357 0.522882853
H -3.011501454 -3.699865092 2.677496386
H -2.839236099 -5.319037407 -0.230426797
H -2.839919084 -1.143235248 -2.542557412
H -2.999022704 0.463795634 0.350403808
H 1.311283207 -2.993371913 -1.306316553
H 1.155908092 -1.359750449 1.610441800
H 5.017036760 -0.623201950 -2.472069985
H 4.748773356 2.729657590 -2.427196738
H 4.882671054 1.015529409 0.462998850

