19

C 4.776946414 0.559581637 -1.435989654
O 2.175143555 1.066073554 -1.270388456
C 0.759367546 -1.072431916 -0.533766145
C -2.027601620 -0.501871669 -0.439999976
C -3.558219102 -2.794700168 0.345039405
C -1.935931780 2.982177289 1.858765551
O -1.486771489 4.705382693 0.056398536
H 5.164718045 -0.920908233 -2.833828270
H 5.713315478 2.294816566 -2.024484573
H 5.545726516 -0.040531167 0.393794736
H 1.099400273 -2.609803486 -1.901984570
H 1.419900677 -1.755924747 1.316057940
H -2.667461525 0.312581110 -2.224460948
H -5.576312073 -2.376753352 0.364892660
H -3.027981132 -3.429494454 2.237415757
H -3.256560949 -4.376552471 -0.953352109
H -3.127691283 1.129670775 1.149372587
H -0.191960005 2.291615937 2.740191698
H 0.218554763 4.524983542 -0.576053340

