12

C -2.132129420 2.191091691 0.363295482
C -2.191458695 -0.447729712 1.181575108
O -0.839918086 -2.881298436 -1.686032149
C 0.194933111 -1.892722399 0.618613884
C 2.549148909 -0.558165079 0.066310282
C 4.475792780 0.584174155 -0.250695905
H -0.740054318 2.713526453 -1.075947316
H -1.497666138 3.081371299 2.148293495
H -3.995939898 2.965428041 -0.037274451
H -2.288663145 -3.883840739 -1.214854829
H 0.578566279 -3.390668576 1.987301642
H 6.197209219 1.580436464 -0.553993717

