12

N 3.783838757 -0.040299827 0.087375267
C 1.217217289 -0.196298476 -0.414415371
C -0.327929825 2.001031674 -0.192151963
N -2.752795906 1.516263538 -0.246774289
C -3.501627114 -1.465170786 1.013518305
O -5.276688664 -2.587876900 0.426980764
N -0.060511903 -2.278140243 -0.627263539
H 4.849175564 -1.422248133 -0.665388461
H 4.557031804 1.682412605 -0.138448838
H 0.438063252 3.734474651 0.599973607
H -3.872896296 2.926758386 0.420712524
H 0.947123024 -3.870904600 -0.264119877

