16

C 3.318337985 0.315324048 1.003939510
C 1.752583182 0.573089399 -1.395384145
C -1.131234675 0.442483794 -1.130447566
C -1.980143435 -2.258301275 0.156032872
C -2.415358114 1.917711003 0.832924134
O -2.487982519 0.717225690 -3.158604614
H 3.123707060 -1.548781851 1.866963977
H 2.789313579 1.726227606 2.415344678
H 5.319802557 0.585408543 0.589189696
H 2.263835432 -0.879056940 -2.773677928
H 2.121380942 2.389855201 -2.303654456
H -1.312580277 -3.603185796 -1.246267860
H -1.079126743 -2.570859481 1.978986885
H -4.024768199 -2.421284087 0.306233501
H -3.733989993 3.346196290 0.180745274
H -2.602317563 1.293428904 2.778502380

