15

O -6.018868149 -1.500951767 0.289030455
C -3.871711192 -0.253801935 -0.363077521
C -1.662101678 -1.275634619 -0.955831996
C 0.640970781 0.241114710 -1.610795972
C 2.796390206 -0.166418712 0.246942872
C 2.916590696 1.250054398 2.692787578
C 4.534769432 1.933694760 1.008812906
H -5.702168003 -3.288345632 0.270006525
H 2.112595775 1.471369277 4.546954008
H -4.172885178 1.773796548 -0.354370740
H -1.465649491 -3.324935794 -0.927350970
H 1.290480629 -0.255067050 -3.514303718
H 0.157251027 2.250614568 -1.651463030
H 3.552573488 -2.087751338 0.205828818
H 6.064087273 3.148751828 0.442691399

