16

C 3.003271356 -1.643634972 -0.205930693
C 1.036774333 -0.110345549 1.134995173
N 1.475596178 2.548434593 1.648972408
C -0.992852601 3.086940039 0.983707706
O -2.157004207 5.029217595 0.863361952
C -1.715762095 0.316326982 0.362129578
C -2.411757241 -0.309048569 -2.343953357
H 3.147836558 -0.876137692 -2.113617531
H 2.510078330 -3.641897214 -0.320112103
H 4.836327278 -1.416183510 0.703127974
H 0.862437687 -1.482950558 3.290916018
H 1.274308901 0.208412168 3.505956382
H -3.092750663 -0.475365614 1.681356551
H -1.065067313 0.500372020 -3.678899317
H -4.258110749 0.500904356 -2.765452952
H -2.515711301 -2.346061687 -2.660552592

