13

C 3.115409840 -0.138945723 0.037341366
C 1.027413877 0.347590025 -1.570146867
C -0.520968750 -1.855191191 -1.537331490
N -2.463167353 -1.336989246 -0.109828142
C -2.130843178 1.145695275 0.884922121
C -0.526637380 2.403404065 -0.822801551
H 0.294490724 0.144550348 2.425259277
H 4.239600731 -1.845147504 -0.169209554
H 4.077066275 1.444201553 0.909831017
H -0.072557886 -3.758376436 -2.130933696
H -3.742047879 -2.588295474 0.529383530
H -3.683988463 1.900288012 1.987387265
H 0.314678725 4.196296674 -0.320863874

