14

C -3.111680144 0.313151448 0.408064719
C -0.372765788 -0.388097967 0.019695841
N 0.290902134 -3.182812818 -0.127012745
C 1.500187940 1.148460889 1.443769430
C 3.262451490 2.543345711 0.350317089
C 0.292239720 -1.788708452 -2.280400885
O 0.498607299 -1.928398765 -4.517558562
H -3.418976182 2.279854130 -0.124882343
H -3.630081531 0.101751491 2.396613694
H -4.361054978 -0.866415977 -0.731772404
H -1.000878985 -4.558297542 0.186162231
H 1.329714424 1.093138722 3.491989965
H 4.580218932 3.652086220 1.455639102
H 3.445550928 2.621246591 -1.689732440

