14

C -3.512702686 0.172230603 0.325539435
C -0.719228724 0.154029460 0.077799590
N 0.860840000 -2.323734780 0.565758150
C 1.319335708 1.158470674 1.591270113
C 3.213389399 1.465767259 -0.284003500
C 1.121732451 -0.762152700 -1.863460594
O 1.149215929 -1.468655630 -4.037606053
H -4.243198864 2.052888669 -0.093911981
H -4.115920083 -0.353379069 2.229779827
H -4.343017977 -1.143228729 -1.027246070
H -0.458220696 -3.741739117 0.466146945
H 1.406897056 1.164752690 3.636580167
H 5.202496580 1.209947683 0.161028684
H 2.817807739 2.966725867 -1.627667655

