15

N -3.943538151 -1.459999248 0.131329900
C -1.636337567 -0.026234425 0.597305503
C 0.472455701 -0.970397136 -1.145358884
C 2.977870357 0.343606180 -0.726125676
O 3.778056479 -0.173324735 1.777455171
C -2.135535198 2.669599183 0.126049759
N -2.478892974 4.781613622 -0.220042715
H -3.638606747 -3.305678502 0.525408718
H -5.368659197 -0.853985906 1.250803335
H -0.953025923 -0.144515653 2.551802519
H -0.127504244 -0.741180217 -3.105958035
H 0.714752794 -2.993194108 -0.796057032
H 2.766394527 2.383511485 -1.029203920
H 4.355597298 -0.363259388 -2.102277171
H 5.216972846 0.853438812 2.164868585

