10

C -4.718459617 1.133764772 0.495676523
C -3.158128138 1.059375590 -1.930718649
C -0.504098995 0.168732550 -1.445895617
O 1.375651417 1.261987603 -2.087012209
H -0.364748190 -1.651992248 -0.401815319
H -4.007683846 -0.285321395 -3.258192708
H -3.078853428 2.898487744 -2.857134867
H -3.974546100 2.532617963 1.815775642
H -6.677554526 1.624046033 0.089794834
H -4.716103960 -0.698825294 1.445887680

