16

C -5.035009454 0.168326372 -0.269237180
C -2.394680447 1.157165685 -0.847620685
C -0.373082185 -0.589587918 0.167097143
O 2.030792744 0.472607049 -0.463314888
C 4.056097061 -0.861949269 0.298177013
O 3.955054388 -2.836146416 1.430613024
N 6.219864862 0.352832088 -0.357865581
H -5.337480057 -0.019666399 1.764384087
H -6.478455986 1.444421744 -1.000543880
H -5.345543178 -1.686183308 -1.121649039
H -2.139832889 1.364317293 -2.887449154
H -2.137807575 3.033175252 -0.021463661
H -0.507279933 -0.794367201 2.217898155
H -0.517431050 -2.477153764 -0.658723076
H 7.851421536 -0.574852797 -0.112808505
H 6.153372146 1.847061608 -1.518556513

