16

C -3.967988751 1.271029924 0.413322485
C -1.794808999 0.542504088 -1.314906700
C -0.355593147 -1.782599894 -0.493326611
O 1.696448225 -2.394040813 -1.510352664
C 4.656438503 -0.359319083 -1.063382244
O 5.868131707 -0.683655631 -2.867307924
N 4.109357612 0.499807861 1.078578741
H -3.287117310 1.819462044 2.282316387
H -5.016809483 2.863915469 -0.365533088
H -5.295089173 -0.291415195 0.656631451
H -2.502351561 0.082992331 -3.205838980
H -0.456721217 2.094553539 -1.558587413
H 0.187667700 -0.929651466 2.318104247
H -1.522060027 -3.323279298 0.282555308
H 5.432973228 1.547268104 1.954345064
H 1.703109623 -0.263730669 2.119111286

