13

C 3.040886601 0.641685777 -0.317584576
C 0.655609166 0.638235856 1.284545736
C -1.480248741 -0.904926479 0.149114925
O -3.520737083 -0.843138538 1.816276987
C -2.800448336 0.856288103 -4.249150216
N -2.205749125 0.083996304 -2.276588835
H 4.531291391 1.713223947 0.617321539
H 3.746788276 -1.274622350 -0.622270920
H 2.709997597 1.499188180 -2.163089087
H -0.047366307 2.556579879 1.577481537
H 1.023535554 -0.168721079 3.147515096
H -0.853606581 -2.849973504 -0.197531900
H -4.867925842 -1.863776216 1.157227385

