13

O 1.576813783 1.832522490 0.614287035
C 2.007713348 0.288560839 -1.562879113
C 0.209338437 -1.945323984 -1.278849440
C -1.992590116 -0.738697533 0.137744877
C -0.735062323 1.339095780 1.625919129
N -1.647791651 2.460736145 3.508486140
H -0.439091811 3.809694217 4.152904782
H 3.998857370 -0.232454058 -1.582272503
H 1.591777466 1.400179268 -3.257004543
H 1.085224984 -3.420651159 -0.134102846
H -0.319139159 -2.763683564 -3.091757499
H -3.027957283 -2.004927042 1.380503138
H -3.348663176 0.120457455 -1.162245572

