13

O 1.908818632 1.217346187 1.529562599
C 2.055301906 0.556192394 -1.041291138
C 0.215759405 -1.680171787 -1.330269890
C -2.046785326 -1.142392544 0.433689859
C -1.437024959 1.208746346 1.834830563
N -1.818526894 3.286020758 2.643331688
H 0.643950917 3.163998988 2.224515088
H 3.981054619 0.024636303 -1.557045906
H 1.469840564 2.139308225 -2.250603891
H 1.148499023 -3.413053818 -0.721290358
H -0.375494741 -1.934989393 -3.287712177
H -2.352360503 -2.670054683 1.779693419
H -3.810609203 -0.826281595 -0.583837349

