11

O -3.241824090 2.899388047 0.657768103
C -1.646858977 0.787269428 1.001716512
C -1.141313699 -0.350975658 -1.586428767
C 0.176334483 -2.858597061 -1.382508912
O 2.207716330 -3.327565121 -2.272901318
H -0.869755009 -4.332992810 -0.310760057
H -2.968458293 -0.661112068 -2.509456743
H -0.019844770 0.925724351 -2.749355036
H -2.545568256 -0.625685807 2.229892115
H 0.146103136 1.341927043 1.881771304
H -3.496993808 3.712210106 2.255427039

