13

O -1.439649865 3.030545150 0.193280848
C -1.495742737 0.414488616 0.523785897
C -2.195343462 -0.869363382 -1.929358236
C 0.326997075 -1.895598524 -1.367255723
O 2.430043175 -1.018868573 -2.207882210
C 3.612360530 0.744554814 0.312894786
O 5.673943620 1.392600616 0.295750189
H -0.322681545 3.784160804 1.413069487
H -2.517695627 -0.254415510 2.179214309
H -3.755255478 -2.194860485 -1.869577033
H -2.274012855 0.439425877 -3.503587705
H 0.362682852 -3.617220754 -0.218459445
H 1.135547729 0.299297772 1.169065574

