16

C 2.938411931 1.446363891 1.316734197
C 1.486361173 0.698505382 -1.085906797
C -1.627421310 -0.849493158 -1.995472062
C -2.084167283 -3.147954987 -0.348690791
C -1.640903694 1.773357924 0.124652326
O -3.503046922 1.017976415 -1.465406284
H 2.572785793 0.116285941 2.851945036
H 2.482784468 3.345521393 1.984563296
H 4.960886005 1.380498413 0.912261564
H 2.245612633 -1.135327462 -1.616459141
H 1.859626756 1.983012606 -2.643329307
H -3.642916116 -4.138973022 -1.273072151
H -0.450084121 -4.405636358 -0.366385695
H -2.659795605 -2.798319730 1.611516525
H -1.160124184 3.758576067 -0.074576586
H -1.765841576 1.089522164 2.059301624

