14

C -2.903342034 -2.060349345 0.534241751
C -1.468189491 0.849940891 -0.907302318
C 0.691078475 2.481214502 0.031770869
O 2.245742741 1.248718324 1.837762568
C 2.933526932 -1.134339665 1.210053054
N 1.767244735 -2.644101222 -0.201188993
C -0.694094837 -1.954051249 -1.151150631
H -2.147597509 -1.929036226 2.474701807
H -3.157334737 0.873756221 0.459643660
H -2.334930425 1.551639041 -2.630962504
H 0.022803268 4.201120653 0.939353566
H 1.859157140 3.005317136 -1.596561289
H 4.688975392 -1.670958616 2.129868911
H -0.963736418 -2.716131686 -3.036624720

