12

N 4.138144113 -0.217029679 -0.679784243
C 1.784848611 0.344067387 -0.409327340
C 0.024314256 2.233772176 -0.578608515
N -2.442195947 1.290146034 0.091123557
C -2.514400776 -1.122849639 0.709372744
O -4.145037361 -2.565760981 1.356918996
N 0.216883149 -1.941288039 0.436601341
H 5.158915168 1.300164474 -1.239236378
H 0.902288553 -2.614626540 2.103474898
H 0.268104270 4.176013355 -1.107296134
H -4.026162193 2.334359425 0.105449061
H 0.386617424 -3.353090616 -0.859276799

