12

N 3.905389040 -0.452102084 -0.262640108
C 1.526481759 0.304400599 -0.630359647
C -0.152199827 2.191809050 -0.916611846
N -2.554800022 1.299475480 0.006596184
C -2.491546599 -1.079581959 0.889528537
O -4.104830509 -2.405867569 1.763421744
N 0.120933061 -1.920832018 0.298887890
H 5.263865247 0.883821696 -0.275348743
H 2.215852924 -2.113227473 1.254057726
H 0.166928579 4.177911377 -1.198644040
H -4.166961964 2.297380376 0.018428212
H 0.023207575 -3.319308227 -1.017904738

