12

C -3.392332347 -0.582481962 -0.339295242
C -0.869044831 -0.639676337 0.901150239
O -0.853795762 -1.996737913 3.112632963
C 1.153439221 0.485107266 -0.005000593
C 3.724681278 1.302595361 -0.171685398
O 1.818851814 1.919826344 -2.047614840
H -3.320994884 0.521070341 -2.073931676
H -4.008527118 -2.499942916 -0.790073290
H -4.791620194 0.248838531 0.929517144
H 0.812806298 -1.972150158 3.827599504
H 5.178945660 0.013017322 -0.830529889
H 4.374325674 2.904058770 0.935178121

