12

C -2.903126284 -0.825343422 -0.703820804
C -0.911141637 -0.714443030 1.237801074
O -0.830283657 -2.199453729 3.121550807
C 1.171725742 0.996320985 1.607697313
C 3.179147090 1.098303910 -0.334142828
O 1.476995917 3.111066059 -0.020832568
H -2.185079962 -0.151060587 -2.513243697
H -3.684984802 -2.722565806 -0.852785325
H -4.418617491 0.456406937 -0.129506352
H 0.827282470 -0.849967309 3.841271672
H 3.003934140 0.083215450 -2.115701313
H 5.100879468 1.421045171 0.309659064

