18

C 3.980033317 -0.205113633 -2.793556770
C 2.326569313 -1.306075669 -0.765368995
C 2.589505730 -0.600387136 1.932375335
N 0.504065490 0.356752513 0.440459368
C -1.958068523 -0.638316604 1.001720443
C -4.026252049 0.497791146 -0.247390831
O -5.094908576 2.330137097 2.505645354
H 3.000839392 -0.182119388 -4.610720132
H 5.712759200 -1.306051953 -3.011171356
H 4.492499905 1.734306714 -2.318934555
H 1.671364151 -3.226589458 -1.108846579
H 3.998075779 0.778593506 2.497279707
H 2.164009535 -2.032470877 3.340589133
H -2.098842424 -2.648609693 1.449651448
H -3.253918318 0.938264876 2.805873778
H -3.697993658 2.017680784 -1.581633851
H -5.770275679 -0.539911327 -0.493742880
H -4.569987331 4.071784452 2.368739213

