14

C 3.179322248 0.447902735 -0.330681644
C 0.562494121 0.437416720 0.827732055
C -0.903148114 -2.105975611 0.818697690
C -3.163288565 -0.682593227 -0.258350165
O -5.345542838 -1.187249880 -0.519010446
C -1.599707740 1.693641944 -0.709836728
H 3.138284370 -0.333346970 -2.243355847
H 3.940013434 2.362750123 -0.446060157
H 4.491085105 -0.688370328 0.785886413
H 0.625642759 1.218723136 2.736051535
H -1.210522953 -3.071641837 2.611857071
H -0.159405391 -3.463619185 -0.550761435
H -2.409403662 3.453002647 -0.008777362
H -1.145822774 1.919359714 -2.713390997

