13

C 2.874686303 -1.716229764 0.343954627
C 0.809407777 2.349876855 -1.161555708
C 0.670480555 -0.468466187 -1.017676742
N -1.768265546 -1.066348509 0.202361039
C -2.931094136 1.083164143 0.660546416
C -1.478814249 3.148421277 -0.132021823
H 3.011544332 -1.005659463 2.274610537
H 2.672396885 -3.770047271 0.402433638
H 4.620060368 -1.246920080 -0.637109012
H 0.564082454 -1.145982059 -2.976066689
H -2.455900525 -2.788185129 0.614638411
H -4.780196403 1.078582180 1.549300939
H -2.100295661 5.083669694 0.088178892

