12

C -6.321234741 -0.001307955 0.002999789
C -3.572599672 0.000208796 -0.002279104
C -1.300906399 0.001459417 -0.003889491
C 1.300948219 0.002024955 -0.003516402
C 3.572626676 0.001515730 -0.001416142
C 6.321231661 -0.001680722 0.002775592
H -7.052626649 -1.713412409 -0.883631136
H -7.054983610 1.625073704 -1.030801325
H -7.046751207 0.083389929 1.931594273
H 7.055831719 1.638406742 -1.008536874
H 7.050159555 -1.701805919 -0.908598386
H 7.047975674 0.055026689 1.931928074

