14

O 1.413225881 2.848083740 2.394123394
C 2.781561884 2.499924359 0.552367532
C 2.084534740 1.278313212 -1.690655364
C -0.269135702 -0.258661498 -1.605193161
C -0.699190030 -2.424845597 0.307179101
C -2.749094386 -0.661766688 1.369017798
N -2.074361457 1.332377123 -0.430692942
H 4.817767919 2.957895801 0.688711007
H 3.184676939 1.438836621 -3.404945324
H -0.773222149 -0.604377179 -3.590600560
H 0.899131123 -2.708833223 1.565348796
H -1.320379517 -4.227949851 -0.463203847
H -2.628001379 -0.141186409 3.355552910
H -4.716856525 -1.186498562 0.969395317

