13

C 4.061076206 1.399747353 -1.503526368
O 1.519687816 0.725535155 -1.847195098
C 0.811393161 -1.438745763 -0.467074365
C -2.005813739 -1.774280223 -0.788714728
O -3.361646653 0.304706697 0.175318377
H -2.638195752 1.794674847 -0.569454379
H -2.429045117 -2.074016827 -2.797528955
H -2.629680533 -3.442515083 0.251737636
H 1.267886497 -1.182818850 1.543267611
H 1.823990867 -3.115028663 -1.162555600
H 5.336434963 -0.112152505 -2.127550425
H 4.416694865 3.081612674 -2.635326373
H 4.467454893 1.823516962 0.485702001

