16

C 3.945323168 1.441996167 -1.370362319
O 1.370856709 0.803280472 -1.511333979
C 0.801018111 -1.540777443 -0.367710544
C -2.017048936 -1.844125540 -0.346616929
C -2.949786362 0.669040716 2.439428444
O -3.575167507 1.079461111 -0.421519720
H 5.117061249 0.053591820 -2.367591242
H 4.173896862 3.279203099 -2.267987368
H 4.576091525 1.561700358 0.599018861
H 1.559341980 -1.614859167 1.549618508
H 1.612163624 -3.079891058 -1.516337218
H -2.705730123 -2.224017561 -2.271707294
H -2.655566493 -3.322276742 0.911150348
H -4.810743088 0.286602195 3.246583629
H -2.303047948 2.497763401 3.163023096
H -2.156700206 2.030813398 -1.083177446

