14

C -2.789558827 -0.212149272 2.037036701
N -1.850993693 0.625034890 -0.386282564
C -0.232522296 -0.932507542 -1.999881492
C 1.841652229 -2.247095048 -0.462789997
C 2.664339055 -0.108727056 0.574540558
C 0.662009461 1.467634800 -0.834442982
O 0.999003432 3.852084893 -1.781698532
H -4.499676481 -1.320814418 1.731970295
H -3.287239783 1.438662502 3.164884968
H -1.433565664 -1.362808649 3.102035870
H -0.808101825 -1.307372683 -3.923389778
H 2.271126733 -4.217388606 -0.126923115
H 3.992904355 0.322734684 2.068879947
H 2.572396377 3.890391796 -2.684431284

