14

C -2.885805943 0.003136133 1.959143759
N -1.756072637 0.618230610 -0.485055865
C -0.519234907 -1.606522300 -1.723246299
C 1.945380789 -2.025955366 -0.784374046
C 2.741847419 0.082271154 0.556128824
C 0.632400835 1.595430420 -0.507718538
O 1.055803837 3.554742742 -1.939532200
H -4.492339827 -1.227515257 1.595437488
H -3.560106636 1.733190113 2.856714856
H -1.556954935 -0.964893876 3.217237071
H -1.263471208 -2.152549801 -3.543582851
H 3.054079988 -3.688370606 -1.255846352
H 3.762721446 0.309176920 2.303363193
H 2.879965839 3.733425758 -2.020609350

