11

C -2.726515107 -0.387846898 0.712282733
N -0.442543906 -0.118211780 -0.843407730
C 0.144939499 2.223789925 -1.516622888
H 1.860906611 2.545007952 -2.565710979
H -1.103614249 3.736548739 -0.986398619
C 0.817143239 -2.234949362 -1.306377213
H 0.072599253 -3.990174740 -0.604081191
H 2.565299567 -2.134074156 -2.346711790
H -3.549910429 -2.242058077 0.392587182
H -2.216741851 -0.180432978 2.694643705
H -4.079999149 1.063862064 0.184311962

