13

C -2.629767252 -0.260134067 0.754141357
N -0.473619489 -0.068418593 -0.946980463
C 0.673161226 2.223089743 -1.119407880
C 3.142060402 0.334504446 1.438372712
O 3.222049636 0.357226494 3.610282474
C 1.131149240 -2.075846951 -1.017190534
H -3.576932587 -2.060947311 0.457404561
H -2.006863557 -0.130793180 2.723234902
H -3.955504577 1.259160535 0.354034293
H 2.048201657 2.452164990 -2.610212707
H -0.473381100 3.857812162 -0.666714009
H 0.348924342 -3.890351620 -0.477267019
H 2.512294809 -2.091843370 -2.520278675

