12

C -1.332484460 1.109583213 0.988138830
C -0.444147660 -1.365433838 -0.242814009
O 0.042308379 -0.112820165 -2.583963201
C -0.383852811 2.329004206 -1.460315475
C 3.001797824 -2.121167894 2.968311933
C 1.920134709 -2.554468450 0.826093870
H -3.371621875 1.201115292 1.231547800
H -0.396073046 1.670337671 2.728958826
H -1.876502936 -2.835413939 -0.471050727
H -1.744788628 3.435274162 -2.544258147
H 1.380988646 3.386386948 -1.275067305
H 2.906377558 -3.982248624 -0.296156782

