12

C -1.754915803 0.778352774 1.047554824
C -0.861438797 -1.619479944 -0.357708129
O -0.686815102 -0.092029398 -2.632985664
C -0.184933569 1.889534128 -1.056538752
C 3.273129141 0.118498319 0.402404593
C 1.887461949 -1.938262644 0.470261653
H -3.757808309 1.159998536 0.728459809
H -1.214641063 1.038449386 3.008370442
H -2.027662790 -3.295998985 -0.583365163
H -0.178220241 3.785848065 -1.851281971
H 2.753298347 2.066732727 -0.333697722
H 2.603991048 -3.747713883 1.096331414

