12

C -2.757445502 1.119881162 0.295403953
C -0.342782732 -0.320039443 0.256565433
C 2.072799787 0.663270097 0.231020512
C 3.457272011 -1.591798064 0.228697490
H 5.497090086 -1.839720532 0.219357216
O 2.255770365 -3.788344658 0.239673832
C -0.359239846 -3.139411988 0.260207993
H -1.214107952 -3.977442143 1.942931023
H -1.236798045 -3.967910100 -1.415562508
H -4.076040059 0.446113467 -1.146537318
H -2.377699878 3.117945002 -0.000724615
H -3.701037213 0.894124615 2.122736367

