14

C -3.488452057 0.610170815 -0.896466609
C -0.818163237 -0.030608329 -0.304320758
C 1.328510290 1.235319486 -0.912071854
C 3.311020267 -0.253531742 0.009537353
O 2.633694368 -2.418427369 0.974581065
C -0.101795294 -2.405741581 1.056771453
H -4.466334965 -0.978925243 -1.787011214
H -3.572825740 2.228692989 -2.163764059
H -4.547993830 1.086633453 0.815456507
H 2.227446053 3.401342240 -0.667769308
H 3.612678741 4.070186613 0.819929451
H 5.313787710 0.163283127 -0.029580677
H -0.642514460 -2.547363553 3.051412677
H -0.763805454 -4.094811143 0.071031933

