13

N -3.260533663 -0.342659144 0.576497766
C -1.224100484 0.996425884 -0.689946246
C 1.317262999 0.136578349 0.391903063
N 1.637550242 -2.529623749 -0.052923613
C 4.902285693 2.687039314 -1.767447597
N 3.302127423 1.521665698 -0.811581359
H -3.776873812 0.519230447 2.199907793
H -4.806182405 -0.474549593 -0.530627915
H -1.340058917 3.058318417 -0.545188859
H -1.233261876 0.499803156 -2.691452127
H 1.399848812 0.665228042 2.400156344
H 0.016598693 -3.405579271 0.467697049
H 3.089727990 -3.245161799 0.958778287

