13

N -3.361737152 0.411502150 1.108537287
C -1.284989633 1.065231587 -0.564339136
C 1.064105877 -0.115195815 0.553491976
N 1.425752346 -2.597277323 0.150199363
C 3.508456698 1.734158976 -1.916355710
N 4.528999096 1.944082282 0.045104493
H -4.824649810 1.617484979 0.912904600
H -3.988928862 -1.366463928 0.814857502
H -1.043189481 3.105248726 -0.583732431
H -1.504133821 0.448558810 -2.528700069
H 1.463504973 0.501276953 2.457406788
H 1.192838631 -3.224147327 -1.633128604
H 2.848361794 -3.437744318 1.089522769

