14

C 1.919560062 0.816087241 0.075501286
C 1.857045503 -2.046028528 0.398693019
C -0.601877979 -3.351298343 1.008405387
O -2.614826964 -1.957846443 0.942618219
C -2.713377108 0.746732667 0.369274670
C -0.516545827 1.636939974 -1.210123106
H 2.062089254 1.741135296 1.919454389
H 3.574605597 1.397075431 -1.010344019
H 3.205544428 -2.720160034 1.810923071
H 2.448407402 -3.012119470 -1.342569871
H -0.639677906 0.813955441 -3.103653854
H -2.778085998 1.717697817 2.189477430
H -4.527583824 0.991966281 -0.569966098
H -0.629823041 3.686696913 -1.425339460

