14

C 2.322244618 -2.105653696 -0.350767278
C 1.208910393 0.308983676 0.568330200
O 3.036551682 2.620931290 0.030607441
C -1.233835408 1.266371182 -0.016231160
O -1.479207634 3.544747131 -0.530197643
C -3.481949604 -0.464517207 0.038612566
H 1.011962947 -3.642621168 0.066682785
H 4.099300603 -2.544179723 0.592955467
H 2.655729482 -2.081486291 -2.393758525
H 2.521767893 1.979813810 1.972397410
H 1.646636329 3.840150876 -0.444651404
H -3.934658555 -1.020982969 -1.897835091
H -5.101195506 0.550693461 0.800778929
H -3.140764428 -2.162618772 1.150263725

