11

C -2.218812273 -0.762717728 0.127476200
C 0.549245043 0.649077384 1.831935503
C 2.575307046 -0.202815744 -0.052906625
O 1.321094173 0.902566645 -2.211999904
C -0.690779067 1.546156152 -0.557173351
H -4.074665964 -0.344359859 0.886884243
H -2.092755843 -2.284333462 -1.242377802
H -1.167980909 -1.441489815 2.020852822
H 2.985192630 -2.214093211 -0.272565838
H 4.320935960 0.819801970 0.369091612
H -1.655904755 3.317887380 -0.916471968

