17

C 5.228884716 -1.060825067 0.144100896
C 2.797869144 -0.546366839 -0.062484947
C -5.102204204 -0.387349806 0.673970123
C -3.493730440 1.044458111 -0.600241532
C -0.743063272 1.334264468 -0.059503129
C 0.617928311 -0.483984088 1.787296600
C 1.171039015 0.538732591 -2.147922391
H 6.029745280 -1.718657401 1.911056616
H 6.502906567 -0.840716268 -1.444615970
H 1.984482265 2.016243345 -3.330821422
H -4.512765631 -1.505078891 2.287638007
H -7.079824873 -0.487074981 0.156351480
H -4.188903120 2.138583969 -2.197553988
H -0.359351491 3.292769632 0.480156316
H -0.331374909 -2.316398127 1.885350596
H 0.996850467 0.179528328 3.700003816
H 0.386319093 -0.942913904 -3.355246926

