12

N -3.680243668 -1.527545902 1.896117632
C -1.544722039 -0.967098128 0.980862383
N 0.768165922 -1.929466233 0.854975235
C 2.219213065 -0.286107729 -0.479752236
O 4.638129060 -0.846999608 -0.866825216
C 1.069198273 1.839494993 -1.334484829
N -1.529794846 1.604396679 -0.450092682
H -3.597483170 -3.213586989 2.801492259
H -2.859230819 1.500026709 -1.836282194
H 4.931264378 -2.452592446 -0.060269583
H 1.713214536 3.444077470 -2.392711088
H -2.096076696 2.960382019 0.791096917

