14

N 3.196986104 -3.693718134 -0.495305721
C 2.218118063 -1.200731280 -0.469593049
O 1.901965748 0.515931401 -2.217003295
C 0.279078080 2.559765693 -1.511669236
C -2.463481652 1.979441609 -1.886172967
C -3.386207178 -0.156488579 -2.793165767
C 1.977625318 -2.139476146 1.746958865
H 5.111878411 -3.640534589 -0.282398121
H 0.850780061 4.143766558 -2.702006134
H 0.657650524 3.074038973 0.456630303
H -3.726461135 3.505893133 -1.345305552
H -2.172890284 -1.710441590 -3.346074630
H -5.403308289 -0.419331984 -3.007539775
H 0.899580802 -2.660052740 3.377821065

