11

C -3.454960743 0.175555349 -1.904307573
C -1.410687355 0.024690066 0.000228033
O 0.702099641 -0.576751915 -1.181834907
C 2.845478148 0.060221339 2.964138095
O 2.628482258 -0.205255702 5.159213575
C 2.854577727 -0.641647624 0.322485750
O 3.670614664 1.803501984 1.324650279
H -5.139240228 -0.747251567 -1.153092532
H -2.976315490 -0.524505882 -3.788562298
H -3.943037128 2.187928422 -2.010284491
H 4.332870431 -1.725388228 -0.588734650

