11

N -3.219781379 0.200386086 0.021765412
C -0.462209417 0.295565033 0.006695734
C 1.317501898 -1.587262287 -0.058484170
N 3.490658048 -0.272058579 -0.034685980
N 3.143058990 2.274282840 0.040375435
C 0.644708924 2.714679979 0.068977177
H -3.979945293 -0.644844833 1.574085000
H -4.000236625 -0.564217570 -1.561946968
H 1.268037278 -3.624993179 -0.116460476
H 5.248985260 -0.989323216 -0.066725039
H -3.607418990 2.118804621 0.074324913

