14

C 4.688717066 -0.322437940 0.516155958
C 1.926803723 0.081117325 0.199036179
C 0.700561726 2.332788080 0.061572493
H 1.672937613 4.134478309 0.182593388
C -1.983588027 2.102643835 -0.252218949
C -2.422817581 -0.687448349 -0.335150676
H -3.813243992 -1.179567330 1.115977649
H -3.371276716 -1.130044242 -2.121378409
C 0.109966073 -2.060977377 -0.018932391
H 0.602518067 -3.284640805 -1.612909140
H 0.190638066 -3.256644116 1.668012665
H 5.440621441 -1.370045015 -1.098190470
H 5.709867295 1.456030691 0.685325336
H 5.058785932 -1.473462829 2.190735478

