14

C -1.765439574 1.223345217 1.123641358
C -0.934884836 0.540134825 -1.615381468
C 1.734182578 1.471008471 -0.797506641
C 0.922383561 0.188223827 1.723935330
C 0.630906194 -2.545082634 0.835811805
C -0.585165789 -2.314311189 -1.349585839
H -3.374492879 0.205813776 1.911257040
H -1.944407618 3.255433500 1.436755995
H -1.897297558 1.269960603 -3.278802364
H 1.873555303 3.525356953 -0.657898966
H 3.360446790 0.678849717 -1.783653813
H 1.876020470 0.550066942 3.508675339
H 1.287188726 -4.220419122 1.799236778
H -1.199231896 -3.746650232 -2.667534638

