14

C -2.362362426 1.330895597 0.700662996
C -0.668461194 0.701628211 -1.556631338
C 1.909332449 1.534234947 -0.658995045
C 1.803561171 -0.156561504 1.656204731
C 0.753347729 -2.484238442 0.950377302
C -0.727872709 -2.081932682 -1.154252030
H -2.984854407 -0.148170062 1.949620408
H -3.714107504 2.882988890 0.490517949
H -1.371615359 1.396067659 -3.364710239
H 1.959090620 3.544927694 -0.234189072
H 3.499638102 1.041957833 -1.906455057
H 2.975421234 0.094287469 3.316536642
H 0.833403690 -4.200434853 2.057432761
H -1.964558013 -3.395574456 -2.108016912

