11

C -2.453637710 -0.501204614 -0.377645552
C 0.341303946 -0.173948685 0.049198925
C 1.145491865 2.027737604 1.622627321
O 3.311456699 2.565914257 2.032167274
C 2.258230316 -1.327219173 -1.548235928
N 1.956472234 -2.548360308 0.426533542
H -3.445964267 -0.762780769 1.413960795
H -2.824423519 -2.145260882 -1.558937484
H -3.258338916 1.154587986 -1.312778490
H -0.418515320 3.181435151 2.410959587
H 3.363241053 -1.348038153 -3.265256372

