11

C -2.838496120 -0.630391962 -0.242903752
C -0.151209535 -0.104404288 0.361940889
C 1.091429597 2.066482527 1.047678979
O 3.469996538 2.198467217 0.846134075
C 3.031429617 -1.280423696 -0.801586295
N 1.542124402 -2.518985006 0.360895511
H -3.605863538 -2.131984365 0.949084559
H -3.107558822 -1.183657208 -2.214497310
H -3.932874162 1.090646003 0.066259259
H 0.014318020 3.660267997 1.805289779
H 4.468621232 -1.084626696 -2.227413456

