14

O 4.631766296 0.227274867 0.810696608
C 2.997178785 -1.065589047 1.710642676
C 0.270288416 -0.343800330 1.881070045
H -0.342535178 -0.553748601 3.844775130
C -1.550266401 -1.797371354 0.086299540
H -2.633355634 -3.351489243 0.891229536
H -0.567883960 -2.471378988 -1.597600733
C -2.928012636 0.727741656 -0.397154178
H -3.471397581 1.139885293 -2.339482284
H -4.587553413 0.926762661 0.809041869
C -0.620197551 2.146582688 0.682031203
H -0.973698072 3.728293206 1.949754843
H 0.695867551 2.750127972 -0.783779047
H 3.451033722 -2.982052945 2.443533892

