16

O 4.878071819 0.465026205 0.521491826
C 3.047991101 -1.054483429 1.163300001
C 0.508764747 -0.356957322 0.375131007
C -1.945043057 -1.774488396 0.151782405
C -3.173257928 0.743846110 -0.706844158
C -0.820874427 2.152014782 0.326466648
H 3.592021956 0.592516672 -2.167268613
H 3.349590937 -3.120691076 1.023638752
H 2.360550840 -0.752788559 3.199749167
H 2.249428122 0.228248926 -2.895193138
H -2.636887986 -2.387894573 1.999228081
H -1.961377812 -3.392979333 -1.120342104
H -3.309784820 0.867720662 -2.756051205
H -4.990214517 1.224323698 0.126827041
H -1.133792476 2.815336241 2.259819859
H 0.036848998 3.670563754 -0.756480460

