12

C -0.883247238 0.196431059 -1.420426210
C 1.175308001 -1.385446642 -0.274524199
C -0.116453314 2.950718715 -1.511736340
O -0.098210125 4.215951205 -3.389097552
C 1.233332703 -2.262566235 2.078997635
O -0.535222803 -1.971095653 3.899715591
H -1.339352443 -0.414841013 -3.335203697
H -1.933531979 -0.999510691 3.270050759
H -2.638339882 0.091018432 -0.320292667
H 2.789330038 -1.810964929 -1.457062784
H 0.487727447 3.750876907 0.333217543
H 2.807304017 -3.376331072 2.764754887

