12

C -2.430926093 -0.523475774 -0.694726384
C 0.410616341 -0.176278453 -0.563780816
C 1.223006125 2.553824281 -0.215356874
O 3.374287617 3.245412509 -0.371771924
C 1.646539707 -1.734362405 1.515977225
O 0.520691565 -3.201709588 2.818155146
H -2.909399098 -2.506602085 -0.962865406
H -3.327773615 0.092795833 1.056888446
H -3.231818727 0.558695242 -2.256441161
H 1.341076043 -0.800832257 -2.309108886
H -0.316378534 3.903018152 0.240815151
H 3.700078669 -1.410485457 1.742215521

