25

C     2.76407   1.30340   1.43759
N     2.02942   0.51293   0.45238
C     1.30372  -0.55425   0.83384
O     1.40196  -1.05609   1.96400
C     0.42397  -1.19583  -0.26348
C     1.12343  -2.35369  -0.95175
C    -1.08893  -1.86578   0.65598
C    -2.04767  -0.84739   0.72018
C    -0.99168   0.62331  -0.80460
C    -0.68880   1.57800   0.20924
N    -0.52167   2.35578   1.06628
C    -1.87568   1.00898  -1.85038
N    -2.64076   1.29120  -2.68615
O    -0.09188  -0.32996  -1.20694
H     3.40994   0.66155   2.07844
H     2.07344   1.84644   2.13737
H     3.41219   2.06441   0.96759
H     1.95346   0.96158  -0.46123
H     1.30461  -3.11536  -0.18979
H     0.46564  -2.76189  -1.74543
H     2.11109  -2.11611  -1.42048
H    -1.41029  -2.75372   0.02696
H    -0.58443  -2.16140   1.59229
H    -2.10377  -0.18611   1.63309
H    -2.97279  -0.82555   0.11563
25

C     2.76613   1.30625   1.44212
N     2.03385   0.51902   0.45407
C     1.30897  -0.55035   0.82950
O     1.40032  -1.05612   1.95704
C     0.44110  -1.18749  -0.27594
C     1.12454  -2.35466  -0.95432
C    -1.11279  -1.87834   0.67032
C    -2.06006  -0.85603   0.73332
C    -0.98175   0.63191  -0.81333
C    -0.68668   1.57830   0.20732
N    -0.52280   2.35319   1.06746
C    -1.87228   1.01016  -1.85370
N    -2.64160   1.29034  -2.68621
O    -0.09460  -0.33411  -1.20453
H     3.41000   0.66184   2.07972
H     2.07366   1.84695   2.13851
H     3.41321   2.06540   0.96972
H     1.95579   0.96362  -0.46074
H     1.30210  -3.11471  -0.18909
H     0.46542  -2.76105  -1.74622
H     2.11264  -2.12037  -1.42046
H    -1.41508  -2.75533   0.02860
H    -0.58742  -2.16389   1.59324
H    -2.10509  -0.18766   1.63593
H    -2.97423  -0.82452   0.11748
25

C     2.76818   1.30910   1.44665
N     2.03827   0.52511   0.45576
C     1.31421  -0.54646   0.82517
O     1.39867  -1.05615   1.95007
C     0.45824  -1.17914  -0.28840
C     1.12565  -2.35564  -0.95688
C    -1.13666  -1.89089   0.68466
C    -2.07246  -0.86467   0.74646
C    -0.97183   0.64050  -0.82206
C    -0.68456   1.57859   0.20541
N    -0.52394   2.35061   1.06863
C    -1.86889   1.01134  -1.85701
N    -2.64244   1.28948  -2.68628
O    -0.09732  -0.33827  -1.20213
H     3.41007   0.66213   2.08099
H     2.07389   1.84746   2.13966
H     3.41423   2.06640   0.97185
H     1.95812   0.96566  -0.46025
H     1.29959  -3.11406  -0.18839
H     0.46519  -2.76020  -1.74701
H     2.11420  -2.12463  -1.42044
H    -1.41987  -2.75694   0.03024
H    -0.59040  -2.16639   1.59418
H    -2.10640  -0.18921   1.63877
H    -2.97566  -0.82348   0.11934
25

C     2.77023   1.31195   1.45117
N     2.04270   0.53120   0.45745
C     1.31946  -0.54257   0.82083
O     1.39703  -1.05618   1.94311
C     0.47537  -1.17080  -0.30086
C     1.12676  -2.35661  -0.95945
C    -1.16053  -1.90344   0.69900
C    -2.08485  -0.87332   0.75960
C    -0.96190   0.64910  -0.83078
C    -0.68245   1.57889   0.20349
N    -0.52507   2.34803   1.06981
C    -1.86550   1.01252  -1.86032
N    -2.64328   1.28863  -2.68634
O    -0.10004  -0.34242  -1.19972
H     3.41013   0.66241   2.08227
H     2.07411   1.84797   2.14080
H     3.41524   2.06739   0.97398
H     1.96046   0.96770  -0.45976
H     1.29708  -3.11341  -0.18769
H     0.46496  -2.75936  -1.74779
H     2.11575  -2.12889  -1.42042
H    -1.42466  -2.75854   0.03188
H    -0.59339  -2.16888   1.59513
H    -2.10772  -0.19076   1.64162
H    -2.97710  -0.82244   0.12119
25

C     2.77228   1.31480   1.45570
N     2.04713   0.53729   0.45914
C     1.32470  -0.53867   0.81650
O     1.39539  -1.05620   1.93614
C     0.49251  -1.16245  -0.31332
C     1.12787  -2.35758  -0.96201
C    -1.18439  -1.91599   0.71334
C    -2.09724  -0.88196   0.77274
C    -0.95197   0.65770  -0.83951
C    -0.68033   1.57918   0.20157
N    -0.52621   2.34545   1.07098
C    -1.86211   1.01369  -1.86364
N    -2.64412   1.28777  -2.68640
O    -0.10276  -0.34658  -1.19732
H     3.41020   0.66270   2.08354
H     2.07434   1.84847   2.14195
H     3.41626   2.06838   0.97611
H     1.96279   0.96974  -0.45927
H     1.29457  -3.11276  -0.18699
H     0.46474  -2.75852  -1.74858
H     2.11731  -2.13315  -1.42040
H    -1.42945  -2.76015   0.03352
H    -0.59637  -2.17137   1.59607
H    -2.10903  -0.19231   1.64446
H    -2.97854  -0.82140   0.12304
25

C     2.77433   1.31765   1.46023
N     2.05156   0.54338   0.46082
C     1.32995  -0.53478   0.81216
O     1.39375  -1.05623   1.92918
C     0.50965  -1.15411  -0.32578
C     1.12897  -2.35855  -0.96458
C    -1.20826  -1.92855   0.72768
C    -2.10963  -0.89060   0.78588
C    -0.94204   0.66630  -0.84823
C    -0.67821   1.57948   0.19966
N    -0.52735   2.34287   1.07216
C    -1.85872   1.01487  -1.86695
N    -2.64496   1.28691  -2.68646
O    -0.10548  -0.35073  -1.19492
H     3.41026   0.66299   2.08481
H     2.07456   1.84898   2.14309
H     3.41728   2.06938   0.97824
H     1.96512   0.97178  -0.45878
H     1.29205  -3.11211  -0.18629
H     0.46451  -2.75768  -1.74937
H     2.11886  -2.13741  -1.42039
H    -1.43424  -2.76176   0.03516
H    -0.59936  -2.17387   1.59702
H    -2.11035  -0.19386   1.64730
H    -2.97997  -0.82036   0.12489
25

C     2.77639   1.32050   1.46476
N     2.05599   0.54947   0.46251
C     1.33519  -0.53088   0.80783
O     1.39210  -1.05626   1.92221
C     0.52678  -1.14577  -0.33824
C     1.13008  -2.35952  -0.96714
C    -1.23213  -1.94110   0.74202
C    -2.12202  -0.89924   0.79902
C    -0.93211   0.67490  -0.85696
C    -0.67609   1.57977   0.19774
N    -0.52848   2.34029   1.07333
C    -1.85532   1.01605  -1.87026
N    -2.64580   1.28606  -2.68653
O    -0.10820  -0.35489  -1.19251
H     3.41032   0.66327   2.08609
H     2.07479   1.84949   2.14424
H     3.41830   2.07037   0.98037
H     1.96745   0.97382  -0.45830
H     1.28954  -3.11146  -0.18559
H     0.46429  -2.75683  -1.75015
H     2.12041  -2.14167  -1.42037
H    -1.43903  -2.76337   0.03681
H    -0.60234  -2.17636   1.59796
H    -2.11166  -0.19541   1.65014
H    -2.98141  -0.81933   0.12675
25

C     2.77844   1.32335   1.46928
N     2.06042   0.55556   0.46420
C     1.34044  -0.52699   0.80349
O     1.39046  -1.05629   1.91525
C     0.54392  -1.13742  -0.35070
C     1.13119  -2.36050  -0.96971
C    -1.25600  -1.95365   0.75636
C    -2.13441  -0.90788   0.81216
C    -0.92218   0.68350  -0.86569
C    -0.67397   1.58006   0.19582
N    -0.52962   2.33770   1.07451
C    -1.85193   1.01723  -1.87358
N    -2.64664   1.28520  -2.68659
O    -0.11092  -0.35904  -1.19011
H     3.41039   0.66356   2.08736
H     2.07501   1.84999   2.14538
H     3.41932   2.07137   0.98250
H     1.96978   0.97586  -0.45781
H     1.28703  -3.11081  -0.18490
H     0.46406  -2.75599  -1.75094
H     2.12197  -2.14593  -1.42035
H    -1.44382  -2.76497   0.03845
H    -0.60533  -2.17886   1.59891
H    -2.11298  -0.19696   1.65298
H    -2.98284  -0.81829   0.12860
25

C     2.78049   1.32620   1.47381
N     2.06485   0.56165   0.46589
C     1.34568  -0.52310   0.79915
O     1.38882  -1.05631   1.90828
C     0.56105  -1.12908  -0.36316
C     1.13230  -2.36147  -0.97227
C    -1.27986  -1.96621   0.77070
C    -2.14680  -0.91652   0.82530
C    -0.91225   0.69210  -0.87441
C    -0.67185   1.58036   0.19391
N    -0.53075   2.33512   1.07568
C    -1.84854   1.01841  -1.87689
N    -2.64748   1.28434  -2.68665
O    -0.11364  -0.36319  -1.18771
H     3.41045   0.66385   2.08864
H     2.07524   1.85050   2.14653
H     3.42033   2.07236   0.98463
H     1.97211   0.97790  -0.45732
H     1.28452  -3.11016  -0.18420
H     0.46384  -2.75515  -1.75172
H     2.12352  -2.15019  -1.42033
H    -1.44861  -2.76658   0.04009
H    -0.60831  -2.18135   1.59985
H    -2.11429  -0.19851   1.65582
H    -2.98428  -0.81725   0.13045
25

C     2.78254   1.32905   1.47834
N     2.06928   0.56774   0.46757
C     1.35093  -0.51920   0.79482
O     1.38718  -1.05634   1.90132
C     0.57819  -1.12073  -0.37562
C     1.13341  -2.36244  -0.97483
C    -1.30373  -1.97876   0.78504
C    -2.15919  -0.92516   0.83844
C    -0.90232   0.70070  -0.88314
C    -0.66973   1.58065   0.19199
N    -0.53189   2.33254   1.07686
C    -1.84515   1.01959  -1.88020
N    -2.64832   1.28349  -2.68671
O    -0.11636  -0.36735  -1.18530
H     3.41052   0.66413   2.08991
H     2.07546   1.85101   2.14767
H     3.42135   2.07335   0.98676
H     1.97444   0.97994  -0.45683
H     1.28201  -3.10950  -0.18350
H     0.46361  -2.75431  -1.75251
H     2.12507  -2.15445  -1.42032
H    -1.45340  -2.76819   0.04173
H    -0.61130  -2.18384   1.60080
H    -2.11561  -0.20006   1.65866
H    -2.98572  -0.81621   0.13231
25

C     2.78459   1.33190   1.48286
N     2.07371   0.57383   0.46926
C     1.35617  -0.51531   0.79048
O     1.38553  -1.05637   1.89436
C     0.59533  -1.11239  -0.38808
C     1.13452  -2.36341  -0.97740
C    -1.32760  -1.99131   0.79938
C    -2.17158  -0.93381   0.85158
C    -0.89239   0.70930  -0.89186
C    -0.66761   1.58095   0.19007
N    -0.53302   2.32996   1.07803
C    -1.84175   1.02076  -1.88351
N    -2.64916   1.28263  -2.68678
O    -0.11909  -0.37150  -1.18290
H     3.41058   0.66442   2.09118
H     2.07568   1.85152   2.14882
H     3.42237   2.07435   0.98889
H     1.97677   0.98198  -0.45634
H     1.27949  -3.10885  -0.18280
H     0.46339  -2.75346  -1.75330
H     2.12663  -2.15871  -1.42030
H    -1.45819  -2.76980   0.04337
H    -0.61428  -2.18634   1.60174
H    -2.11692  -0.20161   1.66151
H    -2.98715  -0.81517   0.13416
25

C     2.78665   1.33475   1.48739
N     2.07814   0.57992   0.47095
C     1.36142  -0.51142   0.78615
O     1.38389  -1.05640   1.88739
C     0.61246  -1.10404  -0.40054
C     1.13563  -2.36439  -0.97996
C    -1.35146  -2.00387   0.81372
C    -2.18397  -0.94245   0.86472
C    -0.88246   0.71789  -0.90059
C    -0.66549   1.58124   0.18816
N    -0.53416   2.32738   1.07921
C    -1.83836   1.02194  -1.88683
N    -2.65000   1.28177  -2.68684
O    -0.12181  -0.37566  -1.18049
H     3.41064   0.66471   2.09246
H     2.07591   1.85202   2.14996
H     3.42339   2.07534   0.99102
H     1.97910   0.98402  -0.45585
H     1.27698  -3.10820  -0.18210
H     0.46316  -2.75262  -1.75408
H     2.12818  -2.16297  -1.42028
H    -1.46298  -2.77141   0.04501
H    -0.61727  -2.18883   1.60269
H    -2.11824  -0.20316   1.66435
H    -2.98859  -0.81414   0.13601
25

C     2.78870   1.33760   1.49192
N     2.08256   0.58601   0.47264
C     1.36666  -0.50752   0.78181
O     1.38225  -1.05642   1.88043
C     0.62960  -1.09570  -0.41300
C     1.13674  -2.36536  -0.98253
C    -1.37533  -2.01642   0.82806
C    -2.19636  -0.95109   0.87786
C    -0.87254   0.72649  -0.90932
C    -0.66337   1.58153   0.18624
N    -0.53529   2.32480   1.08038
C    -1.83497   1.02312  -1.89014
N    -2.65084   1.28092  -2.68690
O    -0.12453  -0.37981  -1.17809
H     3.41071   0.66499   2.09373
H     2.07613   1.85253   2.15111
H     3.42440   2.07633   0.99315
H     1.98143   0.98606  -0.45536
H     1.27447  -3.10755  -0.18140
H     0.46294  -2.75178  -1.75487
H     2.12973  -2.16723  -1.42026
H    -1.46777  -2.77301   0.04665
H    -0.62025  -2.19132   1.60363
H    -2.11955  -0.20471   1.66719
H    -2.99002  -0.81310   0.13787
25

C     2.79075   1.34045   1.49644
N     2.08699   0.59210   0.47433
C     1.37191  -0.50363   0.77748
O     1.38061  -1.05645   1.87346
C     0.64674  -1.08736  -0.42546
C     1.13785  -2.36633  -0.98509
C    -1.39920  -2.02897   0.84240
C    -2.20875  -0.95973   0.89100
C    -0.86261   0.73509  -0.91804
C    -0.66126   1.58183   0.18432
N    -0.53643   2.32221   1.08156
C    -1.83158   1.02430  -1.89345
N    -2.65168   1.28006  -2.68696
O    -0.12725  -0.38397  -1.17569
H     3.41077   0.66528   2.09500
H     2.07636   1.85304   2.15225
H     3.42542   2.07733   0.99528
H     1.98376   0.98810  -0.45487
H     1.27196  -3.10690  -0.18070
H     0.46271  -2.75094  -1.75565
H     2.13129  -2.17149  -1.42024
H    -1.47256  -2.77462   0.04830
H    -0.62324  -2.19382   1.60458
H    -2.12087  -0.20626   1.67003
H    -2.99146  -0.81206   0.13972
25

C     2.79280   1.34330   1.50097
N     2.09142   0.59819   0.47601
C     1.37715  -0.49973   0.77314
O     1.37896  -1.05648   1.86650
C     0.66387  -1.07901  -0.43792
C     1.13895  -2.36730  -0.98766
C    -1.42306  -2.04153   0.85674
C    -2.22114  -0.96837   0.90414
C    -0.85268   0.74369  -0.92677
C    -0.65914   1.58212   0.18241
N    -0.53756   2.31963   1.08273
C    -1.82819   1.02548  -1.89677
N    -2.65252   1.27921  -2.68703
O    -0.12997  -0.38812  -1.17328
H     3.41084   0.66557   2.09628
H     2.07658   1.85354   2.15339
H     3.42644   2.07832   0.99741
H     1.98609   0.99015  -0.45438
H     1.26945  -3.10625  -0.18000
H     0.46249  -2.75010  -1.75644
H     2.13284  -2.17575  -1.42023
H    -1.47735  -2.77623   0.04994
H    -0.62622  -2.19631   1.60552
H    -2.12218  -0.20781   1.67287
H    -2.99289  -0.81102   0.14157
25

C     2.79485   1.34614   1.50550
N     2.09585   0.60428   0.47770
C     1.38240  -0.49584   0.76880
O     1.37732  -1.05651   1.85953
C     0.68101  -1.07067  -0.45038
C     1.14006  -2.36827  -0.99022
C    -1.44693  -2.05408   0.87108
C    -2.23353  -0.97701   0.91728
C    -0.84275   0.75229  -0.93550
C    -0.65702   1.58242   0.18049
N    -0.53870   2.31705   1.08390
C    -1.82479   1.02665  -1.90008
N    -2.65336   1.27835  -2.68709
O    -0.13269  -0.39228  -1.17088
H     3.41090   0.66585   2.09755
H     2.07681   1.85405   2.15454
H     3.42746   2.07931   0.99954
H     1.98842   0.99219  -0.45389
H     1.26693  -3.10560  -0.17930
H     0.46226  -2.74925  -1.75723
H     2.13439  -2.18001  -1.42021
H    -1.48214  -2.77784   0.05158
H    -0.62921  -2.19880   1.60647
H    -2.12350  -0.20936   1.67571
H    -2.99433  -0.80999   0.14343
25

C     2.79691   1.34899   1.51002
N     2.10028   0.61037   0.47939
C     1.38764  -0.49195   0.76447
O     1.37568  -1.05653   1.85257
C     0.69814  -1.06232  -0.46285
C     1.14117  -2.36925  -0.99279
C    -1.47080  -2.06663   0.88543
C    -2.24592  -0.98565   0.93042
C    -0.83282   0.76089  -0.94422
C    -0.65490   1.58271   0.17857
N    -0.53983   2.31447   1.08508
C    -1.82140   1.02783  -1.90339
N    -2.65420   1.27749  -2.68715
O    -0.13541  -0.39643  -1.16848
H     3.41097   0.66614   2.09883
H     2.07703   1.85456   2.15568
H     3.42847   2.08031   1.00167
H     1.99076   0.99423  -0.45340
H     1.26442  -3.10495  -0.17860
H     0.46203  -2.74841  -1.75801
H     2.13595  -2.18427  -1.42019
H    -1.48693  -2.77944   0.05322
H    -0.63219  -2.20130   1.60741
H    -2.12481  -0.21091   1.67856
H    -2.99577  -0.80895   0.14528
25

C     2.79896   1.35184   1.51455
N     2.10471   0.61646   0.48108
C     1.39289  -0.48805   0.76013
O     1.37404  -1.05656   1.84560
C     0.71528  -1.05398  -0.47531
C     1.14228  -2.37022  -0.99535
C    -1.49466  -2.07919   0.89977
C    -2.25831  -0.99430   0.94357
C    -0.82289   0.76949  -0.95295
C    -0.65278   1.58301   0.17666
N    -0.54097   2.31189   1.08625
C    -1.81801   1.02901  -1.90671
N    -2.65504   1.27664  -2.68721
O    -0.13813  -0.40058  -1.16607
H     3.41103   0.66643   2.10010
H     2.07726   1.85506   2.15683
H     3.42949   2.08130   1.00380
H     1.99309   0.99627  -0.45291
H     1.26191  -3.10430  -0.17790
H     0.46181  -2.74757  -1.75880
H     2.13750  -2.18853  -1.42017
H    -1.49172  -2.78105   0.05486
H    -0.63518  -2.20379   1.60836
H    -2.12613  -0.21247   1.68140
H    -2.99720  -0.80791   0.14713
25

C     2.80101   1.35469   1.51908
N     2.10914   0.62255   0.48276
C     1.39813  -0.48416   0.75580
O     1.37239  -1.05659   1.83864
C     0.73242  -1.04564  -0.48777
C     1.14339  -2.37119  -0.99791
C    -1.51853  -2.09174   0.91411
C    -2.27070  -1.00294   0.95671
C    -0.81296   0.77809  -0.96167
C    -0.65066   1.58330   0.17474
N    -0.54210   2.30931   1.08743
C    -1.81462   1.03019  -1.91002
N    -2.65588   1.27578  -2.68727
O    -0.14085  -0.40474  -1.16367
H     3.41109   0.66671   2.10137
H     2.07748   1.85557   2.15797
H     3.43051   2.08229   1.00593
H     1.99542   0.99831  -0.45242
H     1.25940  -3.10365  -0.17720
H     0.46158  -2.74673  -1.75958
H     2.13905  -2.19279  -1.42016
H    -1.49651  -2.78266   0.05650
H    -0.63816  -2.20629   1.60930
H    -2.12745  -0.21402   1.68424
H    -2.99864  -0.80687   0.14898
25

C     2.80306   1.35754   1.52361
N     2.11357   0.62864   0.48445
C     1.40338  -0.48027   0.75146
O     1.37075  -1.05662   1.83167
C     0.74955  -1.03729  -0.50023
C     1.14450  -2.37216  -1.00048
C    -1.54240  -2.10429   0.92845
C    -2.28309  -1.01158   0.96985
C    -0.80303   0.78668  -0.97040
C    -0.64854   1.58359   0.17282
N    -0.54324   2.30672   1.08860
C    -1.81122   1.03137  -1.91333
N    -2.65672   1.27492  -2.68734
O    -0.14357  -0.40889  -1.16126
H     3.41116   0.66700   2.10265
H     2.07771   1.85608   2.15912
H     3.43153   2.08329   1.00806
H     1.99775   1.00035  -0.45193
H     1.25689  -3.10300  -0.17650
H     0.46136  -2.74588  -1.76037
H     2.14061  -2.19705  -1.42014
H    -1.50130  -2.78427   0.05814
H    -0.64115  -2.20878   1.61025
H    -2.12876  -0.21557   1.68708
H    -3.00007  -0.80583   0.15084
25

C     2.80511   1.36039   1.52813
N     2.11800   0.63473   0.48614
C     1.40862  -0.47637   0.74713
O     1.36911  -1.05664   1.82471
C     0.76669  -1.02895  -0.51269
C     1.14561  -2.37314  -1.00304
C    -1.56627  -2.11685   0.94279
C    -2.29548  -1.02022   0.98299
C    -0.79310   0.79528  -0.97913
C    -0.64642   1.58389   0.17091
N    -0.54438   2.30414   1.08978
C    -1.80783   1.03255  -1.91665
N    -2.65756   1.27407  -2.68740
O    -0.14629  -0.41305  -1.15886
H     3.41122   0.66729   2.10392
H     2.07793   1.85659   2.16026
H     3.43254   2.08428   1.01019
H     2.00008   1.00239  -0.45144
H     1.25437  -3.10235  -0.17580
H     0.46113  -2.74504  -1.76116
H     2.14216  -2.20131  -1.42012
H    -1.50609  -2.78588   0.05978
H    -0.64413  -2.21127   1.61119
H    -2.13008  -0.21712   1.68992
H    -3.00151  -0.80480   0.15269
25

C     2.80306   1.35754   1.52361
N     2.11357   0.62864   0.48445
C     1.40338  -0.48027   0.75146
O     1.37075  -1.05662   1.83167
C     0.74955  -1.03729  -0.50023
C     1.14450  -2.37216  -1.00048
C    -1.54240  -2.10429   0.92845
C    -2.28309  -1.01158   0.96985
C    -0.80303   0.78668  -0.97040
C    -0.64854   1.58359   0.17282
N    -0.54324   2.30672   1.08860
C    -1.81122   1.03137  -1.91333
N    -2.65672   1.27492  -2.68734
O    -0.14357  -0.40889  -1.16126
H     3.41116   0.66700   2.10265
H     2.07771   1.85608   2.15912
H     3.43153   2.08329   1.00806
H     1.99775   1.00035  -0.45193
H     1.25689  -3.10300  -0.17650
H     0.46136  -2.74588  -1.76037
H     2.14061  -2.19705  -1.42014
H    -1.50130  -2.78427   0.05814
H    -0.64115  -2.20878   1.61025
H    -2.12876  -0.21557   1.68708
H    -3.00007  -0.80583   0.15084
25

C     2.80101   1.35469   1.51908
N     2.10914   0.62255   0.48276
C     1.39813  -0.48416   0.75580
O     1.37239  -1.05659   1.83864
C     0.73242  -1.04564  -0.48777
C     1.14339  -2.37119  -0.99791
C    -1.51853  -2.09174   0.91411
C    -2.27070  -1.00294   0.95671
C    -0.81296   0.77809  -0.96167
C    -0.65066   1.58330   0.17474
N    -0.54210   2.30931   1.08743
C    -1.81462   1.03019  -1.91002
N    -2.65588   1.27578  -2.68727
O    -0.14085  -0.40474  -1.16367
H     3.41109   0.66671   2.10137
H     2.07748   1.85557   2.15797
H     3.43051   2.08229   1.00593
H     1.99542   0.99831  -0.45242
H     1.25940  -3.10365  -0.17720
H     0.46158  -2.74673  -1.75958
H     2.13905  -2.19279  -1.42016
H    -1.49651  -2.78266   0.05650
H    -0.63816  -2.20629   1.60930
H    -2.12745  -0.21402   1.68424
H    -2.99864  -0.80687   0.14898
25

C     2.79896   1.35184   1.51455
N     2.10471   0.61646   0.48108
C     1.39289  -0.48805   0.76013
O     1.37404  -1.05656   1.84560
C     0.71528  -1.05398  -0.47531
C     1.14228  -2.37022  -0.99535
C    -1.49466  -2.07919   0.89977
C    -2.25831  -0.99430   0.94357
C    -0.82289   0.76949  -0.95295
C    -0.65278   1.58301   0.17666
N    -0.54097   2.31189   1.08625
C    -1.81801   1.02901  -1.90671
N    -2.65504   1.27664  -2.68721
O    -0.13813  -0.40058  -1.16607
H     3.41103   0.66643   2.10010
H     2.07726   1.85506   2.15683
H     3.42949   2.08130   1.00380
H     1.99309   0.99627  -0.45291
H     1.26191  -3.10430  -0.17790
H     0.46181  -2.74757  -1.75880
H     2.13750  -2.18853  -1.42017
H    -1.49172  -2.78105   0.05486
H    -0.63518  -2.20379   1.60836
H    -2.12613  -0.21247   1.68140
H    -2.99720  -0.80791   0.14713
25

C     2.79691   1.34899   1.51002
N     2.10028   0.61037   0.47939
C     1.38764  -0.49195   0.76447
O     1.37568  -1.05653   1.85257
C     0.69814  -1.06232  -0.46285
C     1.14117  -2.36925  -0.99279
C    -1.47080  -2.06663   0.88543
C    -2.24592  -0.98565   0.93042
C    -0.83282   0.76089  -0.94422
C    -0.65490   1.58271   0.17857
N    -0.53983   2.31447   1.08508
C    -1.82140   1.02783  -1.90339
N    -2.65420   1.27749  -2.68715
O    -0.13541  -0.39643  -1.16848
H     3.41097   0.66614   2.09883
H     2.07703   1.85456   2.15568
H     3.42847   2.08031   1.00167
H     1.99076   0.99423  -0.45340
H     1.26442  -3.10495  -0.17860
H     0.46203  -2.74841  -1.75801
H     2.13595  -2.18427  -1.42019
H    -1.48693  -2.77944   0.05322
H    -0.63219  -2.20130   1.60741
H    -2.12481  -0.21091   1.67856
H    -2.99577  -0.80895   0.14528
25

C     2.79485   1.34614   1.50550
N     2.09585   0.60428   0.47770
C     1.38240  -0.49584   0.76880
O     1.37732  -1.05651   1.85953
C     0.68101  -1.07067  -0.45038
C     1.14006  -2.36827  -0.99022
C    -1.44693  -2.05408   0.87108
C    -2.23353  -0.97701   0.91728
C    -0.84275   0.75229  -0.93550
C    -0.65702   1.58242   0.18049
N    -0.53870   2.31705   1.08390
C    -1.82479   1.02665  -1.90008
N    -2.65336   1.27835  -2.68709
O    -0.13269  -0.39228  -1.17088
H     3.41090   0.66585   2.09755
H     2.07681   1.85405   2.15454
H     3.42746   2.07931   0.99954
H     1.98842   0.99219  -0.45389
H     1.26693  -3.10560  -0.17930
H     0.46226  -2.74925  -1.75723
H     2.13439  -2.18001  -1.42021
H    -1.48214  -2.77784   0.05158
H    -0.62921  -2.19880   1.60647
H    -2.12350  -0.20936   1.67571
H    -2.99433  -0.80999   0.14343
25

C     2.79280   1.34330   1.50097
N     2.09142   0.59819   0.47601
C     1.37715  -0.49973   0.77314
O     1.37896  -1.05648   1.86650
C     0.66387  -1.07901  -0.43792
C     1.13895  -2.36730  -0.98766
C    -1.42306  -2.04153   0.85674
C    -2.22114  -0.96837   0.90414
C    -0.85268   0.74369  -0.92677
C    -0.65914   1.58212   0.18241
N    -0.53756   2.31963   1.08273
C    -1.82819   1.02548  -1.89677
N    -2.65252   1.27921  -2.68703
O    -0.12997  -0.38812  -1.17328
H     3.41084   0.66557   2.09628
H     2.07658   1.85354   2.15339
H     3.42644   2.07832   0.99741
H     1.98609   0.99015  -0.45438
H     1.26945  -3.10625  -0.18000
H     0.46249  -2.75010  -1.75644
H     2.13284  -2.17575  -1.42023
H    -1.47735  -2.77623   0.04994
H    -0.62622  -2.19631   1.60552
H    -2.12218  -0.20781   1.67287
H    -2.99289  -0.81102   0.14157
25

C     2.79075   1.34045   1.49644
N     2.08699   0.59210   0.47433
C     1.37191  -0.50363   0.77748
O     1.38061  -1.05645   1.87346
C     0.64674  -1.08736  -0.42546
C     1.13785  -2.36633  -0.98509
C    -1.39920  -2.02897   0.84240
C    -2.20875  -0.95973   0.89100
C    -0.86261   0.73509  -0.91804
C    -0.66126   1.58183   0.18432
N    -0.53643   2.32221   1.08156
C    -1.83158   1.02430  -1.89345
N    -2.65168   1.28006  -2.68696
O    -0.12725  -0.38397  -1.17569
H     3.41077   0.66528   2.09500
H     2.07636   1.85304   2.15225
H     3.42542   2.07733   0.99528
H     1.98376   0.98810  -0.45487
H     1.27196  -3.10690  -0.18070
H     0.46271  -2.75094  -1.75565
H     2.13129  -2.17149  -1.42024
H    -1.47256  -2.77462   0.04830
H    -0.62324  -2.19382   1.60458
H    -2.12087  -0.20626   1.67003
H    -2.99146  -0.81206   0.13972
25

C     2.78870   1.33760   1.49192
N     2.08256   0.58601   0.47264
C     1.36666  -0.50752   0.78181
O     1.38225  -1.05642   1.88043
C     0.62960  -1.09570  -0.41300
C     1.13674  -2.36536  -0.98253
C    -1.37533  -2.01642   0.82806
C    -2.19636  -0.95109   0.87786
C    -0.87254   0.72649  -0.90932
C    -0.66337   1.58153   0.18624
N    -0.53529   2.32480   1.08038
C    -1.83497   1.02312  -1.89014
N    -2.65084   1.28092  -2.68690
O    -0.12453  -0.37981  -1.17809
H     3.41071   0.66499   2.09373
H     2.07613   1.85253   2.15111
H     3.42440   2.07633   0.99315
H     1.98143   0.98606  -0.45536
H     1.27447  -3.10755  -0.18140
H     0.46294  -2.75178  -1.75487
H     2.12973  -2.16723  -1.42026
H    -1.46777  -2.77301   0.04665
H    -0.62025  -2.19132   1.60363
H    -2.11955  -0.20471   1.66719
H    -2.99002  -0.81310   0.13787
25

C     2.78665   1.33475   1.48739
N     2.07814   0.57992   0.47095
C     1.36142  -0.51142   0.78615
O     1.38389  -1.05640   1.88739
C     0.61246  -1.10404  -0.40054
C     1.13563  -2.36439  -0.97996
C    -1.35146  -2.00387   0.81372
C    -2.18397  -0.94245   0.86472
C    -0.88246   0.71789  -0.90059
C    -0.66549   1.58124   0.18816
N    -0.53416   2.32738   1.07921
C    -1.83836   1.02194  -1.88683
N    -2.65000   1.28177  -2.68684
O    -0.12181  -0.37566  -1.18049
H     3.41064   0.66471   2.09246
H     2.07591   1.85202   2.14996
H     3.42339   2.07534   0.99102
H     1.97910   0.98402  -0.45585
H     1.27698  -3.10820  -0.18210
H     0.46316  -2.75262  -1.75408
H     2.12818  -2.16297  -1.42028
H    -1.46298  -2.77141   0.04501
H    -0.61727  -2.18883   1.60269
H    -2.11824  -0.20316   1.66435
H    -2.98859  -0.81414   0.13601
25

C     2.78459   1.33190   1.48286
N     2.07371   0.57383   0.46926
C     1.35617  -0.51531   0.79048
O     1.38553  -1.05637   1.89436
C     0.59533  -1.11239  -0.38808
C     1.13452  -2.36341  -0.97740
C    -1.32760  -1.99131   0.79938
C    -2.17158  -0.93381   0.85158
C    -0.89239   0.70930  -0.89186
C    -0.66761   1.58095   0.19007
N    -0.53302   2.32996   1.07803
C    -1.84175   1.02076  -1.88351
N    -2.64916   1.28263  -2.68678
O    -0.11909  -0.37150  -1.18290
H     3.41058   0.66442   2.09118
H     2.07568   1.85152   2.14882
H     3.42237   2.07435   0.98889
H     1.97677   0.98198  -0.45634
H     1.27949  -3.10885  -0.18280
H     0.46339  -2.75346  -1.75330
H     2.12663  -2.15871  -1.42030
H    -1.45819  -2.76980   0.04337
H    -0.61428  -2.18634   1.60174
H    -2.11692  -0.20161   1.66151
H    -2.98715  -0.81517   0.13416
25

C     2.78254   1.32905   1.47834
N     2.06928   0.56774   0.46757
C     1.35093  -0.51920   0.79482
O     1.38718  -1.05634   1.90132
C     0.57819  -1.12073  -0.37562
C     1.13341  -2.36244  -0.97483
C    -1.30373  -1.97876   0.78504
C    -2.15919  -0.92516   0.83844
C    -0.90232   0.70070  -0.88314
C    -0.66973   1.58065   0.19199
N    -0.53189   2.33254   1.07686
C    -1.84515   1.01959  -1.88020
N    -2.64832   1.28349  -2.68671
O    -0.11636  -0.36735  -1.18530
H     3.41052   0.66413   2.08991
H     2.07546   1.85101   2.14767
H     3.42135   2.07335   0.98676
H     1.97444   0.97994  -0.45683
H     1.28201  -3.10950  -0.18350
H     0.46361  -2.75431  -1.75251
H     2.12507  -2.15445  -1.42032
H    -1.45340  -2.76819   0.04173
H    -0.61130  -2.18384   1.60080
H    -2.11561  -0.20006   1.65866
H    -2.98572  -0.81621   0.13231
25

C     2.78049   1.32620   1.47381
N     2.06485   0.56165   0.46589
C     1.34568  -0.52310   0.79915
O     1.38882  -1.05631   1.90828
C     0.56105  -1.12908  -0.36316
C     1.13230  -2.36147  -0.97227
C    -1.27986  -1.96621   0.77070
C    -2.14680  -0.91652   0.82530
C    -0.91225   0.69210  -0.87441
C    -0.67185   1.58036   0.19391
N    -0.53075   2.33512   1.07568
C    -1.84854   1.01841  -1.87689
N    -2.64748   1.28434  -2.68665
O    -0.11364  -0.36319  -1.18771
H     3.41045   0.66385   2.08864
H     2.07524   1.85050   2.14653
H     3.42033   2.07236   0.98463
H     1.97211   0.97790  -0.45732
H     1.28452  -3.11016  -0.18420
H     0.46384  -2.75515  -1.75172
H     2.12352  -2.15019  -1.42033
H    -1.44861  -2.76658   0.04009
H    -0.60831  -2.18135   1.59985
H    -2.11429  -0.19851   1.65582
H    -2.98428  -0.81725   0.13045
25

C     2.77844   1.32335   1.46928
N     2.06042   0.55556   0.46420
C     1.34044  -0.52699   0.80349
O     1.39046  -1.05629   1.91525
C     0.54392  -1.13742  -0.35070
C     1.13119  -2.36050  -0.96971
C    -1.25600  -1.95365   0.75636
C    -2.13441  -0.90788   0.81216
C    -0.92218   0.68350  -0.86569
C    -0.67397   1.58006   0.19582
N    -0.52962   2.33770   1.07451
C    -1.85193   1.01723  -1.87358
N    -2.64664   1.28520  -2.68659
O    -0.11092  -0.35904  -1.19011
H     3.41039   0.66356   2.08736
H     2.07501   1.84999   2.14538
H     3.41932   2.07137   0.98250
H     1.96978   0.97586  -0.45781
H     1.28703  -3.11081  -0.18490
H     0.46406  -2.75599  -1.75094
H     2.12197  -2.14593  -1.42035
H    -1.44382  -2.76497   0.03845
H    -0.60533  -2.17886   1.59891
H    -2.11298  -0.19696   1.65298
H    -2.98284  -0.81829   0.12860
25

C     2.77639   1.32050   1.46476
N     2.05599   0.54947   0.46251
C     1.33519  -0.53088   0.80783
O     1.39210  -1.05626   1.92221
C     0.52678  -1.14577  -0.33824
C     1.13008  -2.35952  -0.96714
C    -1.23213  -1.94110   0.74202
C    -2.12202  -0.89924   0.79902
C    -0.93211   0.67490  -0.85696
C    -0.67609   1.57977   0.19774
N    -0.52848   2.34029   1.07333
C    -1.85532   1.01605  -1.87026
N    -2.64580   1.28606  -2.68653
O    -0.10820  -0.35489  -1.19251
H     3.41032   0.66327   2.08609
H     2.07479   1.84949   2.14424
H     3.41830   2.07037   0.98037
H     1.96745   0.97382  -0.45830
H     1.28954  -3.11146  -0.18559
H     0.46429  -2.75683  -1.75015
H     2.12041  -2.14167  -1.42037
H    -1.43903  -2.76337   0.03681
H    -0.60234  -2.17636   1.59796
H    -2.11166  -0.19541   1.65014
H    -2.98141  -0.81933   0.12675
25

C     2.77433   1.31765   1.46023
N     2.05156   0.54338   0.46082
C     1.32995  -0.53478   0.81216
O     1.39375  -1.05623   1.92918
C     0.50965  -1.15411  -0.32578
C     1.12897  -2.35855  -0.96458
C    -1.20826  -1.92855   0.72768
C    -2.10963  -0.89060   0.78588
C    -0.94204   0.66630  -0.84823
C    -0.67821   1.57948   0.19966
N    -0.52735   2.34287   1.07216
C    -1.85872   1.01487  -1.86695
N    -2.64496   1.28691  -2.68646
O    -0.10548  -0.35073  -1.19492
H     3.41026   0.66299   2.08481
H     2.07456   1.84898   2.14309
H     3.41728   2.06938   0.97824
H     1.96512   0.97178  -0.45878
H     1.29205  -3.11211  -0.18629
H     0.46451  -2.75768  -1.74937
H     2.11886  -2.13741  -1.42039
H    -1.43424  -2.76176   0.03516
H    -0.59936  -2.17387   1.59702
H    -2.11035  -0.19386   1.64730
H    -2.97997  -0.82036   0.12489
25

C     2.77228   1.31480   1.45570
N     2.04713   0.53729   0.45914
C     1.32470  -0.53867   0.81650
O     1.39539  -1.05620   1.93614
C     0.49251  -1.16245  -0.31332
C     1.12787  -2.35758  -0.96201
C    -1.18439  -1.91599   0.71334
C    -2.09724  -0.88196   0.77274
C    -0.95197   0.65770  -0.83951
C    -0.68033   1.57918   0.20157
N    -0.52621   2.34545   1.07098
C    -1.86211   1.01369  -1.86364
N    -2.64412   1.28777  -2.68640
O    -0.10276  -0.34658  -1.19732
H     3.41020   0.66270   2.08354
H     2.07434   1.84847   2.14195
H     3.41626   2.06838   0.97611
H     1.96279   0.96974  -0.45927
H     1.29457  -3.11276  -0.18699
H     0.46474  -2.75852  -1.74858
H     2.11731  -2.13315  -1.42040
H    -1.42945  -2.76015   0.03352
H    -0.59637  -2.17137   1.59607
H    -2.10903  -0.19231   1.64446
H    -2.97854  -0.82140   0.12304
25

C     2.77023   1.31195   1.45117
N     2.04270   0.53120   0.45745
C     1.31946  -0.54257   0.82083
O     1.39703  -1.05618   1.94311
C     0.47537  -1.17080  -0.30086
C     1.12676  -2.35661  -0.95945
C    -1.16053  -1.90344   0.69900
C    -2.08485  -0.87332   0.75960
C    -0.96190   0.64910  -0.83078
C    -0.68245   1.57889   0.20349
N    -0.52507   2.34803   1.06981
C    -1.86550   1.01252  -1.86032
N    -2.64328   1.28863  -2.68634
O    -0.10004  -0.34242  -1.19972
H     3.41013   0.66241   2.08227
H     2.07411   1.84797   2.14080
H     3.41524   2.06739   0.97398
H     1.96046   0.96770  -0.45976
H     1.29708  -3.11341  -0.18769
H     0.46496  -2.75936  -1.74779
H     2.11575  -2.12889  -1.42042
H    -1.42466  -2.75854   0.03188
H    -0.59339  -2.16888   1.59513
H    -2.10772  -0.19076   1.64162
H    -2.97710  -0.82244   0.12119
25

C     2.76818   1.30910   1.44665
N     2.03827   0.52511   0.45576
C     1.31421  -0.54646   0.82517
O     1.39867  -1.05615   1.95007
C     0.45824  -1.17914  -0.28840
C     1.12565  -2.35564  -0.95688
C    -1.13666  -1.89089   0.68466
C    -2.07246  -0.86467   0.74646
C    -0.97183   0.64050  -0.82206
C    -0.68456   1.57859   0.20541
N    -0.52394   2.35061   1.06863
C    -1.86889   1.01134  -1.85701
N    -2.64244   1.28948  -2.68628
O    -0.09732  -0.33827  -1.20213
H     3.41007   0.66213   2.08099
H     2.07389   1.84746   2.13966
H     3.41423   2.06640   0.97185
H     1.95812   0.96566  -0.46025
H     1.29959  -3.11406  -0.18839
H     0.46519  -2.76020  -1.74701
H     2.11420  -2.12463  -1.42044
H    -1.41987  -2.75694   0.03024
H    -0.59040  -2.16639   1.59418
H    -2.10640  -0.18921   1.63877
H    -2.97566  -0.82348   0.11934
25

C     2.76613   1.30625   1.44212
N     2.03385   0.51902   0.45407
C     1.30897  -0.55035   0.82950
O     1.40032  -1.05612   1.95704
C     0.44110  -1.18749  -0.27594
C     1.12454  -2.35466  -0.95432
C    -1.11279  -1.87834   0.67032
C    -2.06006  -0.85603   0.73332
C    -0.98175   0.63191  -0.81333
C    -0.68668   1.57830   0.20732
N    -0.52280   2.35319   1.06746
C    -1.87228   1.01016  -1.85370
N    -2.64160   1.29034  -2.68621
O    -0.09460  -0.33411  -1.20453
H     3.41000   0.66184   2.07972
H     2.07366   1.84695   2.13851
H     3.41321   2.06540   0.96972
H     1.95579   0.96362  -0.46074
H     1.30210  -3.11471  -0.18909
H     0.46542  -2.76105  -1.74622
H     2.11264  -2.12037  -1.42046
H    -1.41508  -2.75533   0.02860
H    -0.58742  -2.16389   1.59324
H    -2.10509  -0.18766   1.63593
H    -2.97423  -0.82452   0.11748
