12

C -2.825650215 -0.156739667 -1.327563027
O -1.721469030 -2.580305599 -0.839751147
C 0.705304466 -3.072625760 -0.437126950
N 2.225002241 -1.157013808 0.196775877
C 1.848767501 1.437074924 1.099968022
H -3.120220043 0.932421994 0.395285522
H -1.681839791 0.915627979 -2.664407614
H -4.653366980 -0.553193342 -2.182052243
H 4.002027631 -1.785854153 0.422597752
H 3.621362240 2.074696751 1.927862706
H 1.350407870 2.746721004 -0.407286133
H 0.411597203 1.512126436 2.571076384

