12

C -2.870778727 0.589847982 -1.039094804
O -2.269449827 -2.044707666 -0.846406876
C 0.092048144 -2.875426754 -0.702062943
N 2.137772766 -1.552496561 -0.153780980
C 2.455702028 1.003311176 0.875313299
H -2.582077425 1.577366301 0.743916484
H -1.771681529 1.480606919 -2.537469192
H -4.863886061 0.662884290 -1.535402060
H 1.949156159 -3.810522899 0.503633725
H 1.353844639 1.294462206 2.595100189
H 4.447718517 1.250289802 1.324592075
H 1.934980379 2.440999656 -0.505686062

