9

C -2.718444049 -0.194353135 0.923355201
C -2.078565530 -2.795286512 0.193914416
H -1.837641720 -3.024396132 -1.840681949
H -0.566035052 -3.750970335 1.250637624
H -3.870083741 -3.778107274 0.618419564
C -2.001720687 0.407859514 3.537784057
H -0.512640802 -0.739804553 4.423242898
H -1.674879288 2.422049672 3.833129598
H -3.788852919 0.024250723 4.543897980

