18

C 3.507442482 -0.427468427 -0.421826045
O 1.381887230 1.195463291 -0.114507577
C -1.330204959 0.213666231 0.475596974
C -0.319198118 2.379161071 -2.608384132
C -1.560751149 -2.527264766 -0.204204466
C -1.726900084 0.698884990 3.239336813
H 5.065799801 0.727594995 -1.116246879
H 3.126927116 -1.950595866 -1.761982094
H 4.025477394 -1.226643016 1.405185512
H 1.430222267 2.873753610 -3.629778457
H -1.484414264 1.159346033 -3.774015526
H -1.318776689 4.059311410 -2.020833131
H -1.237234232 -2.909285128 -2.211648000
H -0.328835003 -3.802327875 0.894970891
H -3.504146951 -3.097974206 0.194232684
H -0.411870911 -0.384883581 4.446266376
H -1.512276197 2.696157035 3.709729916
H -3.645034386 0.139793189 3.762400476

