19

C -4.643691809 0.619858307 1.424243457
C -1.924355961 1.109243875 0.694825783
C -0.990839324 0.234987595 -1.579533307
C 1.565422476 0.754067204 -2.600230984
C 2.455351748 -1.537240651 -1.203372966
C 3.287146298 -1.522096442 1.263145911
O 4.382101141 0.591359064 2.345893463
H -5.899255345 2.049056947 0.620093464
H -4.900223945 0.649518314 3.469225946
H -5.269876976 -1.222338031 0.738326371
H -0.521246275 -0.469959713 2.567581052
H -1.114346476 2.850335500 1.435788795
H -2.085398855 -1.172073376 -2.597204059
H 1.737317955 0.615525637 -4.642458574
H 2.359341945 2.548666368 -1.969559154
H 2.153536200 -3.350678361 -2.096251118
H 0.868823261 -1.431513668 2.764244944
H 4.001354001 -3.264626772 2.071263780
H 4.568780798 1.862059835 1.068094711

