11

N 3.883649763 0.615119838 -0.474066900
C 1.410182250 0.447037221 -0.199460857
C -0.330568411 2.532877101 -0.275168407
C -2.511371659 1.244337278 0.101782501
C -2.179329261 -1.550192361 0.408218600
O 0.509112740 -1.860327844 0.173733596
H 5.014509951 -0.907071299 -0.410844525
H 4.595387764 2.350865541 -0.759611264
H -4.395488056 2.054679260 0.193325823
H -3.078877409 -2.684892056 -1.064705808
H -2.744496154 -2.281672859 2.255271968

