12

C -4.626452159 0.228654423 0.413724354
C -2.125472123 -0.690618837 -0.445299732
C -0.086924869 0.455403152 0.840103487
C 2.279251270 -0.296312836 0.255840023
C 4.980083261 -0.277127618 0.443931230
O 3.437681862 -1.882377792 -1.234993300
H -5.939197333 0.416258421 -1.168046691
H -5.399180239 -1.336170786 1.541097128
H -4.659614925 1.948973782 1.583461197
H -0.239722663 1.932027530 2.280562664
H 5.911300611 -1.296046931 1.956987846
H 6.064883415 1.157999300 -0.534875414

