12

C -4.780186444 0.275206636 0.653749317
C -2.520604672 -1.380584075 0.576674153
C -0.189194277 -0.635607133 0.709321797
C 2.305463415 -0.576487146 0.130318858
C 4.945098270 -0.180822809 0.611777025
O 3.808203903 -0.688278128 -1.881303842
H -5.809814116 0.019983892 -1.120426235
H -6.078101180 -0.356502654 2.128875558
H -4.411700602 2.302094260 0.907771121
H 0.603029502 1.526876164 1.085410857
H 6.081667471 -1.720783494 1.344499905
H 5.708335049 1.711085061 0.805851653

