15

C -3.293727288 -0.670684022 2.890390437
C -2.345441290 0.281129113 0.391913608
O -3.408478942 1.883994699 -0.829726547
C 0.088703631 -0.845743072 -0.627448430
H -0.372904135 -1.814354455 -2.398788938
C 2.357313381 0.959405450 -0.796164350
H 3.173661234 1.172104292 -2.668615259
H 2.025056196 2.817924543 0.019282142
C 3.651033284 -0.959351044 0.946563778
H 4.225904185 -0.265731984 2.804633966
H 5.214014139 -2.008806649 0.098015748
O 1.399528881 -2.474752168 1.091923174
H -5.097397534 0.210235603 3.330358949
H -3.473480324 -2.725661424 2.844142093
H -1.909225509 -0.250681203 4.361689170

