17

C -3.932091249 -0.858158138 1.005044509
C -1.754803648 0.647742954 -0.040368670
O -1.388911342 2.949059479 0.863115060
C 0.572165871 -0.942759306 -0.706593108
C 2.943110206 0.551767261 -1.405573435
C 3.827026331 -0.157491797 1.258915060
O 1.666094726 -1.782420332 1.620370043
H -5.599542060 0.330354646 1.181878503
H -4.348878320 -2.536312604 -0.116766876
H -3.335609402 -1.442746256 2.892856246
H -2.588689406 1.054288674 -2.628535737
H -2.187105597 2.530194465 -1.594933573
H 0.046412316 -2.522242497 -1.937048627
H 4.038304609 -0.296014183 -2.924603588
H 2.649663158 2.556722459 -1.747560214
H 3.817555496 1.401743432 2.608497251
H 5.591334526 -1.217318446 1.397013448

