10

C -2.458174659 0.447410461 -0.221747720
C -2.161630577 2.907440661 -0.354302181
H -1.384885942 3.791749869 -2.030496359
H -2.683243214 4.125955020 1.207229916
C -2.199821508 -2.021346040 -1.431412851
H -3.503897469 -2.516532444 -2.931119950
H -0.326517103 -2.825855383 -1.629399117
C -3.269250989 -1.749817983 1.240855438
H -2.098368405 -2.371726265 2.802157669
H -5.275706082 -2.069166675 1.501319678

