17

C -4.192553920 -0.143221549 0.416984491
C -1.821344060 0.570300145 -0.536480699
C 0.345305327 1.993885032 1.116038877
C 2.363444408 0.190554729 0.263247712
C 4.833343192 0.552136192 -0.869071476
O 4.535635077 -0.455583564 1.623112999
C 0.191403235 -1.500720843 -0.317977393
H -4.343165546 -0.970465866 2.283831588
H -5.932485990 0.346359832 -0.534434182
H -3.568598347 -3.293755011 -1.471884529
H -1.873419810 1.451569218 -2.394425958
H 0.446482417 3.944689939 0.478647407
H -0.012603812 1.866594214 3.133434199
H 5.496393136 -0.788985866 -2.273871182
H 5.656860931 2.431045940 -0.952049880
H -0.184953052 -2.842742637 1.204729109
H -2.142178171 -3.646103839 -1.905998462

