12

N -3.394815032 1.192894246 -0.254329433
C -0.745763143 0.389856377 -0.094936855
C 1.061125684 2.216809541 -0.489801610
N 3.217298090 0.788328751 -0.199495061
C 2.776703228 -1.715562200 0.331025593
C 0.215750315 -2.061060147 0.417139732
H -4.374613158 0.991651717 1.390904587
H -4.385416288 0.343421554 -1.670032896
H -3.202767324 3.083282587 -0.654955113
H 4.957942209 1.519660982 -0.362116255
H 4.285598951 -3.059541051 0.609808025
H -0.759323818 -3.814598472 0.790789194

