12

N -3.463953988 1.200544916 -0.213579039
C -0.970420436 0.067083444 -0.001042222
C 0.680655993 1.993397747 -0.482155079
N 3.000807456 0.868300544 -0.275582540
C 2.771972734 -1.655767164 0.311539795
C 0.252879465 -2.254082556 0.505955424
H -4.495585904 1.288409546 1.399320010
H -4.554746123 0.582243327 -1.663114174
H -1.996247662 3.041730231 -0.670913529
H 4.662707632 1.746237822 -0.512622737
H 4.408768031 -2.849157785 0.548075510
H -0.515601361 -4.089813838 0.945825916

