19

C -3.454101731 -2.150602759 2.596056749
O -1.283236345 -0.631579673 2.520837958
C 0.197043935 1.686914330 -1.278500805
C -0.008836511 4.259522091 -0.185143782
C 2.428678207 0.296943740 -1.489578885
C 2.387907499 -2.566296341 -1.678377454
O 2.419568896 -3.118129099 0.808354368
H -5.132904165 -0.944323394 2.600423453
H -3.508868923 -3.321387625 4.304289079
H -3.573477336 -3.422623844 0.959881075
H -1.491971260 0.809820682 -2.041478956
H 1.835096315 5.125697109 0.106066850
H -0.913616554 3.994495769 1.652545918
H -1.201355797 5.488220052 -1.328673676
H 4.141143599 1.141270745 -0.735112042
H 1.846736424 1.566808515 -3.400256933
H 0.678564879 -3.161202118 -2.745009158
H 4.040027454 -3.254811384 -2.746566764
H 0.228564926 -1.758678342 2.060266707

