11

C 4.898270762 -1.011011735 0.807444522
C 2.756387236 -0.398539895 0.396221409
C 0.208294268 0.265905196 -0.071774104
C -2.023988974 -1.406273937 0.300810630
N -4.167409073 0.152448893 -0.438209536
N -3.419603060 2.285226357 -1.105075139
C -0.748247245 2.451169520 -0.913167007
H 6.806001139 -1.537736175 1.169033903
H -1.995821396 -3.108726502 -0.871316792
H -2.286115076 -2.016978883 2.258372215
H 0.199484233 4.182177339 -1.423493764

