11

C 5.029476280 -0.948079603 0.805080323
C 2.843934412 -0.445853856 0.492368236
C 0.255909887 0.152335207 0.123896775
C -1.318494761 -0.606662973 -1.869072193
N -3.754287466 0.491277089 -1.471403518
N -3.673046439 1.716190420 0.700890840
C -1.320177410 1.618463196 1.622052995
H 6.971710315 -1.389053978 1.087634195
H -0.846050776 -1.408388957 -3.686901041
H -3.215901412 -1.864311066 -1.115554351
H -0.848923292 2.571982187 3.364309334

