13

C -3.860591439 -0.033203584 -0.138012784
C -1.050607355 0.025038758 0.037181817
C 0.784075734 -0.444753620 -1.741700589
C 3.070814514 -0.118943860 -0.419107050
O 5.397760488 -0.384927442 -1.406176182
N 2.718492955 0.496631534 1.958252961
N 0.178491133 0.572074843 2.198142486
H -4.700799541 1.672278817 0.663067783
H -4.642894364 -1.662427032 0.858499687
H -4.439721404 -0.160084426 -2.107971993
H 0.526923428 -0.943235139 -3.697139729
H 6.593887375 -0.044624465 -0.080573727
H -0.575831543 1.026175615 3.875537283

