26

C     3.20000   0.10748  -0.25656
C     2.12813  -0.92812  -0.42428
O     2.34591  -2.10326  -0.15134
C     0.71334  -0.55792  -0.81011
C    -0.06087  -1.75820  -1.08925
N    -0.72290  -2.69574  -1.27817
C    -0.38493   0.00151   0.93591
C     0.74074   0.49119   1.82826
O     1.08219   1.70838   1.74784
O     1.32402  -0.38479   2.52570
C    -1.26158   0.93778   0.11344
C    -2.81280   0.60178   0.32389
O    -3.13100  -0.51196  -0.17069
O    -3.57650   1.44576   0.83717
N    -1.06155   0.85671  -1.17976
N     0.31481   0.54172  -1.58197
C     1.13345   1.72455  -1.75870
H     4.03077  -0.36367   0.28434
H     3.57429   0.46432  -1.23309
H     2.82913   0.97431   0.30186
H    -0.80922  -0.96984   1.25678
H    -1.10012   1.99730   0.55650
H    -1.54041  -0.05115  -1.49261
H     2.06738   1.45711  -2.28721
H     1.38035   2.22289  -0.81164
H     0.56991   2.41284  -2.39351
26

C     3.20046   0.10755  -0.25714
C     2.12878  -0.92815  -0.42734
O     2.34596  -2.10310  -0.15075
C     0.71896  -0.56194  -0.82231
C    -0.06022  -1.75810  -1.09078
N    -0.72329  -2.69557  -1.27720
C    -0.39316   0.00605   0.94847
C     0.74106   0.49158   1.82917
O     1.08392   1.70832   1.74736
O     1.32519  -0.38500   2.52499
C    -1.26912   0.93891   0.14480
C    -2.81392   0.60197   0.32647
O    -3.12989  -0.51091  -0.17208
O    -3.58109   1.44619   0.83526
N    -1.05373   0.85273  -1.20874
N     0.31431   0.54229  -1.57884
C     1.13503   1.72470  -1.75929
H     4.03063  -0.36384   0.28442
H     3.57493   0.46454  -1.23298
H     2.82921   0.97416   0.30188
H    -0.80883  -0.97017   1.25663
H    -1.10094   1.99826   0.55871
H    -1.53840  -0.05217  -1.48892
H     2.06754   1.45655  -2.28745
H     1.38058   2.22168  -0.81124
H     0.56988   2.41295  -2.39303
26

C     3.20093   0.10763  -0.25772
C     2.12943  -0.92817  -0.43039
O     2.34600  -2.10293  -0.15017
C     0.72458  -0.56595  -0.83451
C    -0.05957  -1.75799  -1.09232
N    -0.72367  -2.69540  -1.27623
C    -0.40138   0.01058   0.96103
C     0.74139   0.49196   1.83008
O     1.08565   1.70826   1.74688
O     1.32636  -0.38521   2.52428
C    -1.27665   0.94003   0.17616
C    -2.81505   0.60216   0.32905
O    -3.12879  -0.50985  -0.17347
O    -3.58567   1.44661   0.83336
N    -1.04591   0.84876  -1.23771
N     0.31382   0.54287  -1.57572
C     1.13660   1.72485  -1.75988
H     4.03048  -0.36400   0.28451
H     3.57557   0.46477  -1.23287
H     2.82929   0.97402   0.30191
H    -0.80843  -0.97051   1.25648
H    -1.10177   1.99921   0.56093
H    -1.53639  -0.05319  -1.48523
H     2.06769   1.45600  -2.28769
H     1.38082   2.22047  -0.81083
H     0.56985   2.41306  -2.39256
26

C     3.20139   0.10770  -0.25830
C     2.13008  -0.92820  -0.43344
O     2.34605  -2.10277  -0.14958
C     0.73020  -0.56997  -0.84672
C    -0.05893  -1.75789  -1.09386
N    -0.72405  -2.69523  -1.27525
C    -0.40960   0.01512   0.97358
C     0.74171   0.49235   1.83100
O     1.08738   1.70820   1.74640
O     1.32753  -0.38542   2.52357
C    -1.28419   0.94116   0.20752
C    -2.81617   0.60235   0.33163
O    -3.12769  -0.50880  -0.17485
O    -3.59026   1.44704   0.83145
N    -1.03810   0.84478  -1.26668
N     0.31332   0.54344  -1.57260
C     1.13817   1.72500  -1.76047
H     4.03034  -0.36417   0.28459
H     3.57620   0.46499  -1.23277
H     2.82937   0.97387   0.30193
H    -0.80804  -0.97084   1.25634
H    -1.10260   2.00017   0.56314
H    -1.53438  -0.05422  -1.48155
H     2.06785   1.45544  -2.28793
H     1.38105   2.21926  -0.81043
H     0.56983   2.41317  -2.39208
26

C     3.20186   0.10777  -0.25888
C     2.13073  -0.92823  -0.43650
O     2.34610  -2.10260  -0.14899
C     0.73582  -0.57399  -0.85892
C    -0.05828  -1.75779  -1.09539
N    -0.72444  -2.69505  -1.27428
C    -0.41783   0.01966   0.98614
C     0.74204   0.49274   1.83191
O     1.08910   1.70814   1.74592
O     1.32870  -0.38563   2.52286
C    -1.29173   0.94229   0.23888
C    -2.81729   0.60254   0.33421
O    -3.12658  -0.50775  -0.17624
O    -3.59485   1.44747   0.82955
N    -1.03028   0.84081  -1.29566
N     0.31283   0.54402  -1.56948
C     1.13975   1.72515  -1.76106
H     4.03020  -0.36433   0.28468
H     3.57684   0.46521  -1.23266
H     2.82945   0.97373   0.30196
H    -0.80764  -0.97118   1.25619
H    -1.10343   2.00113   0.56535
H    -1.53238  -0.05524  -1.47786
H     2.06800   1.45488  -2.28818
H     1.38129   2.21805  -0.81003
H     0.56980   2.41328  -2.39160
26

C     3.20232   0.10785  -0.25946
C     2.13138  -0.92825  -0.43955
O     2.34614  -2.10243  -0.14841
C     0.74144  -0.57800  -0.87112
C    -0.05763  -1.75768  -1.09693
N    -0.72482  -2.69488  -1.27331
C    -0.42605   0.02419   0.99870
C     0.74237   0.49312   1.83282
O     1.09083   1.70808   1.74544
O     1.32987  -0.38584   2.52215
C    -1.29927   0.94341   0.27025
C    -2.81842   0.60273   0.33679
O    -3.12548  -0.50669  -0.17763
O    -3.59943   1.44789   0.82764
N    -1.02247   0.83683  -1.32463
N     0.31234   0.54459  -1.56635
C     1.14132   1.72530  -1.76165
H     4.03005  -0.36449   0.28476
H     3.57748   0.46544  -1.23255
H     2.82953   0.97358   0.30198
H    -0.80725  -0.97151   1.25604
H    -1.10426   2.00208   0.56757
H    -1.53037  -0.05626  -1.47417
H     2.06816   1.45432  -2.28842
H     1.38152   2.21684  -0.80963
H     0.56978   2.41339  -2.39113
26

C     3.20279   0.10792  -0.26004
C     2.13203  -0.92828  -0.44261
O     2.34619  -2.10227  -0.14782
C     0.74706  -0.58202  -0.88333
C    -0.05698  -1.75758  -1.09847
N    -0.72520  -2.69471  -1.27234
C    -0.43428   0.02873   1.01126
C     0.74269   0.49351   1.83373
O     1.09256   1.70802   1.74496
O     1.33104  -0.38605   2.52143
C    -1.30680   0.94454   0.30161
C    -2.81954   0.60292   0.33937
O    -3.12438  -0.50564  -0.17902
O    -3.60402   1.44832   0.82574
N    -1.01465   0.83285  -1.35361
N     0.31184   0.54517  -1.56323
C     1.14289   1.72545  -1.76224
H     4.02991  -0.36466   0.28485
H     3.57812   0.46566  -1.23245
H     2.82961   0.97344   0.30200
H    -0.80686  -0.97185   1.25590
H    -1.10509   2.00304   0.56978
H    -1.52836  -0.05728  -1.47049
H     2.06831   1.45376  -2.28866
H     1.38176   2.21563  -0.80922
H     0.56975   2.41350  -2.39065
26

C     3.20325   0.10799  -0.26062
C     2.13268  -0.92831  -0.44566
O     2.34624  -2.10210  -0.14724
C     0.75267  -0.58603  -0.89553
C    -0.05633  -1.75747  -1.10000
N    -0.72558  -2.69454  -1.27136
C    -0.44250   0.03326   1.02381
C     0.74302   0.49390   1.83465
O     1.09429   1.70796   1.74448
O     1.33221  -0.38626   2.52072
C    -1.31434   0.94566   0.33297
C    -2.82066   0.60311   0.34196
O    -3.12327  -0.50459  -0.18041
O    -3.60861   1.44875   0.82383
N    -1.00683   0.82888  -1.38258
N     0.31135   0.54574  -1.56011
C     1.14447   1.72561  -1.76283
H     4.02976  -0.36482   0.28493
H     3.57876   0.46588  -1.23234
H     2.82969   0.97329   0.30203
H    -0.80646  -0.97218   1.25575
H    -1.10592   2.00400   0.57200
H    -1.52635  -0.05831  -1.46680
H     2.06847   1.45320  -2.28890
H     1.38199   2.21442  -0.80882
H     0.56973   2.41361  -2.39018
26

C     3.20372   0.10807  -0.26119
C     2.13333  -0.92833  -0.44871
O     2.34628  -2.10194  -0.14665
C     0.75829  -0.59005  -0.90773
C    -0.05569  -1.75737  -1.10154
N    -0.72597  -2.69437  -1.27039
C    -0.45072   0.03780   1.03637
C     0.74334   0.49428   1.83556
O     1.09602   1.70790   1.74400
O     1.33338  -0.38647   2.52001
C    -1.32188   0.94679   0.36433
C    -2.82179   0.60330   0.34454
O    -3.12217  -0.50353  -0.18179
O    -3.61319   1.44917   0.82193
N    -0.99902   0.82490  -1.41156
N     0.31085   0.54632  -1.55698
C     1.14604   1.72576  -1.76342
H     4.02962  -0.36499   0.28502
H     3.57940   0.46611  -1.23223
H     2.82977   0.97315   0.30205
H    -0.80607  -0.97252   1.25560
H    -1.10675   2.00495   0.57421
H    -1.52434  -0.05933  -1.46311
H     2.06862   1.45264  -2.28914
H     1.38223   2.21321  -0.80842
H     0.56970   2.41371  -2.38970
26

C     3.20418   0.10814  -0.26177
C     2.13398  -0.92836  -0.45177
O     2.34633  -2.10177  -0.14606
C     0.76391  -0.59407  -0.91994
C    -0.05504  -1.75726  -1.10308
N    -0.72635  -2.69420  -1.26942
C    -0.45895   0.04233   1.04893
C     0.74367   0.49467   1.83647
O     1.09775   1.70784   1.74352
O     1.33455  -0.38668   2.51930
C    -1.32941   0.94792   0.39569
C    -2.82291   0.60349   0.34712
O    -3.12107  -0.50248  -0.18318
O    -3.61778   1.44960   0.82003
N    -0.99120   0.82092  -1.44053
N     0.31036   0.54689  -1.55386
C     1.14761   1.72591  -1.76401
H     4.02947  -0.36515   0.28510
H     3.58003   0.46633  -1.23213
H     2.82985   0.97300   0.30208
H    -0.80568  -0.97285   1.25546
H    -1.10758   2.00591   0.57643
H    -1.52234  -0.06035  -1.45942
H     2.06878   1.45208  -2.28939
H     1.38246   2.21200  -0.80802
H     0.56968   2.41382  -2.38922
26

C     3.20465   0.10821  -0.26235
C     2.13463  -0.92839  -0.45482
O     2.34638  -2.10160  -0.14548
C     0.76953  -0.59808  -0.93214
C    -0.05439  -1.75716  -1.10461
N    -0.72673  -2.69403  -1.26845
C    -0.46717   0.04687   1.06149
C     0.74400   0.49506   1.83738
O     1.09948   1.70778   1.74303
O     1.33572  -0.38689   2.51859
C    -1.33695   0.94904   0.42706
C    -2.82403   0.60368   0.34970
O    -3.11996  -0.50143  -0.18457
O    -3.62237   1.45003   0.81812
N    -0.98339   0.81695  -1.46951
N     0.30987   0.54747  -1.55074
C     1.14919   1.72606  -1.76460
H     4.02933  -0.36531   0.28518
H     3.58067   0.46655  -1.23202
H     2.82993   0.97286   0.30210
H    -0.80528  -0.97319   1.25531
H    -1.10841   2.00687   0.57864
H    -1.52033  -0.06137  -1.45574
H     2.06893   1.45153  -2.28963
H     1.38270   2.21079  -0.80761
H     0.56965   2.41393  -2.38875
26

C     3.20511   0.10829  -0.26293
C     2.13528  -0.92841  -0.45788
O     2.34642  -2.10144  -0.14489
C     0.77515  -0.60210  -0.94434
C    -0.05374  -1.75705  -1.10615
N    -0.72711  -2.69386  -1.26747
C    -0.47540   0.05140   1.07404
C     0.74432   0.49544   1.83829
O     1.10121   1.70772   1.74255
O     1.33689  -0.38710   2.51788
C    -1.34449   0.95017   0.45842
C    -2.82515   0.60387   0.35228
O    -3.11886  -0.50037  -0.18596
O    -3.62695   1.45045   0.81622
N    -0.97557   0.81297  -1.49848
N     0.30937   0.54804  -1.54761
C     1.15076   1.72621  -1.76519
H     4.02919  -0.36548   0.28527
H     3.58131   0.46677  -1.23191
H     2.83000   0.97271   0.30213
H    -0.80489  -0.97352   1.25516
H    -1.10924   2.00782   0.58086
H    -1.51832  -0.06239  -1.45205
H     2.06909   1.45097  -2.28987
H     1.38293   2.20958  -0.80721
H     0.56963   2.41404  -2.38827
26

C     3.20558   0.10836  -0.26351
C     2.13593  -0.92844  -0.46093
O     2.34647  -2.10127  -0.14431
C     0.78077  -0.60612  -0.95655
C    -0.05310  -1.75695  -1.10769
N    -0.72750  -2.69369  -1.26650
C    -0.48362   0.05594   1.08660
C     0.74465   0.49583   1.83921
O     1.10294   1.70766   1.74207
O     1.33807  -0.38731   2.51717
C    -1.35203   0.95129   0.48978
C    -2.82628   0.60405   0.35486
O    -3.11776  -0.49932  -0.18735
O    -3.63154   1.45088   0.81431
N    -0.96776   0.80899  -1.52745
N     0.30888   0.54862  -1.54449
C     1.15233   1.72636  -1.76577
H     4.02904  -0.36564   0.28535
H     3.58195   0.46700  -1.23181
H     2.83008   0.97256   0.30215
H    -0.80450  -0.97386   1.25502
H    -1.11007   2.00878   0.58307
H    -1.51631  -0.06342  -1.44836
H     2.06924   1.45041  -2.29011
H     1.38317   2.20837  -0.80681
H     0.56960   2.41415  -2.38780
26

C     3.20604   0.10843  -0.26409
C     2.13658  -0.92847  -0.46398
O     2.34652  -2.10111  -0.14372
C     0.78639  -0.61013  -0.96875
C    -0.05245  -1.75684  -1.10922
N    -0.72788  -2.69351  -1.26553
C    -0.49185   0.06048   1.09916
C     0.74497   0.49621   1.84012
O     1.10467   1.70760   1.74159
O     1.33924  -0.38752   2.51646
C    -1.35956   0.95242   0.52114
C    -2.82740   0.60424   0.35744
O    -3.11665  -0.49827  -0.18873
O    -3.63613   1.45130   0.81241
N    -0.95994   0.80502  -1.55643
N     0.30838   0.54919  -1.54137
C     1.15390   1.72651  -1.76636
H     4.02890  -0.36581   0.28544
H     3.58259   0.46722  -1.23170
H     2.83016   0.97242   0.30218
H    -0.80410  -0.97419   1.25487
H    -1.11090   2.00973   0.58529
H    -1.51430  -0.06444  -1.44467
H     2.06940   1.44985  -2.29036
H     1.38340   2.20716  -0.80640
H     0.56958   2.41426  -2.38732
26

C     3.20651   0.10850  -0.26467
C     2.13723  -0.92849  -0.46704
O     2.34656  -2.10094  -0.14313
C     0.79201  -0.61415  -0.98095
C    -0.05180  -1.75674  -1.11076
N    -0.72826  -2.69334  -1.26456
C    -0.50007   0.06501   1.11172
C     0.74530   0.49660   1.84103
O     1.10640   1.70754   1.74111
O     1.34041  -0.38773   2.51575
C    -1.36710   0.95354   0.55250
C    -2.82852   0.60443   0.36002
O    -3.11555  -0.49721  -0.19012
O    -3.64071   1.45173   0.81050
N    -0.95212   0.80104  -1.58540
N     0.30789   0.54977  -1.53824
C     1.15548   1.72666  -1.76695
H     4.02875  -0.36597   0.28552
H     3.58323   0.46744  -1.23159
H     2.83024   0.97227   0.30220
H    -0.80371  -0.97453   1.25472
H    -1.11173   2.01069   0.58750
H    -1.51229  -0.06546  -1.44099
H     2.06955   1.44929  -2.29060
H     1.38363   2.20595  -0.80600
H     0.56955   2.41437  -2.38684
26

C     3.20697   0.10858  -0.26525
C     2.13788  -0.92852  -0.47009
O     2.34661  -2.10077  -0.14255
C     0.79763  -0.61817  -0.99316
C    -0.05115  -1.75663  -1.11230
N    -0.72865  -2.69317  -1.26358
C    -0.50829   0.06955   1.12427
C     0.74563   0.49699   1.84194
O     1.10813   1.70748   1.74063
O     1.34158  -0.38794   2.51504
C    -1.37464   0.95467   0.58387
C    -2.82965   0.60462   0.36260
O    -3.11444  -0.49616  -0.19151
O    -3.64530   1.45216   0.80860
N    -0.94431   0.79707  -1.61438
N     0.30740   0.55034  -1.53512
C     1.15705   1.72681  -1.76754
H     4.02861  -0.36614   0.28561
H     3.58386   0.46767  -1.23149
H     2.83032   0.97213   0.30222
H    -0.80331  -0.97486   1.25458
H    -1.11256   2.01165   0.58971
H    -1.51029  -0.06648  -1.43730
H     2.06971   1.44873  -2.29084
H     1.38387   2.20474  -0.80560
H     0.56953   2.41448  -2.38637
26

C     3.20744   0.10865  -0.26582
C     2.13853  -0.92855  -0.47315
O     2.34666  -2.10061  -0.14196
C     0.80325  -0.62218  -1.00536
C    -0.05050  -1.75653  -1.11383
N    -0.72903  -2.69300  -1.26261
C    -0.51652   0.07408   1.13683
C     0.74595   0.49737   1.84286
O     1.10986   1.70742   1.74015
O     1.34275  -0.38815   2.51433
C    -1.38218   0.95580   0.61523
C    -2.83077   0.60481   0.36518
O    -3.11334  -0.49511  -0.19290
O    -3.64989   1.45258   0.80670
N    -0.93649   0.79309  -1.64335
N     0.30690   0.55092  -1.53200
C     1.15862   1.72697  -1.76813
H     4.02846  -0.36630   0.28569
H     3.58450   0.46789  -1.23138
H     2.83040   0.97198   0.30225
H    -0.80292  -0.97520   1.25443
H    -1.11339   2.01260   0.59193
H    -1.50828  -0.06751  -1.43361
H     2.06986   1.44817  -2.29108
H     1.38410   2.20353  -0.80520
H     0.56950   2.41459  -2.38589
26

C     3.20790   0.10872  -0.26640
C     2.13919  -0.92857  -0.47620
O     2.34670  -2.10044  -0.14137
C     0.80887  -0.62620  -1.01756
C    -0.04986  -1.75642  -1.11537
N    -0.72941  -2.69283  -1.26164
C    -0.52474   0.07862   1.14939
C     0.74628   0.49776   1.84377
O     1.11159   1.70736   1.73967
O     1.34392  -0.38836   2.51362
C    -1.38971   0.95692   0.64659
C    -2.83189   0.60500   0.36776
O    -3.11224  -0.49405  -0.19429
O    -3.65447   1.45301   0.80479
N    -0.92868   0.78911  -1.67233
N     0.30641   0.55149  -1.52887
C     1.16020   1.72712  -1.76872
H     4.02832  -0.36646   0.28578
H     3.58514   0.46811  -1.23127
H     2.83048   0.97184   0.30227
H    -0.80253  -0.97553   1.25428
H    -1.11421   2.01356   0.59414
H    -1.50627  -0.06853  -1.42992
H     2.07002   1.44761  -2.29133
H     1.38434   2.20232  -0.80479
H     0.56948   2.41470  -2.38542
26

C     3.20837   0.10880  -0.26698
C     2.13984  -0.92860  -0.47925
O     2.34675  -2.10028  -0.14079
C     0.81449  -0.63022  -1.02976
C    -0.04921  -1.75632  -1.11690
N    -0.72979  -2.69266  -1.26067
C    -0.53297   0.08315   1.16195
C     0.74660   0.49815   1.84468
O     1.11332   1.70730   1.73919
O     1.34509  -0.38857   2.51291
C    -1.39725   0.95805   0.67795
C    -2.83301   0.60519   0.37034
O    -3.11113  -0.49300  -0.19567
O    -3.65906   1.45344   0.80289
N    -0.92086   0.78514  -1.70130
N     0.30591   0.55206  -1.52575
C     1.16177   1.72727  -1.76931
H     4.02818  -0.36663   0.28586
H     3.58578   0.46833  -1.23117
H     2.83056   0.97169   0.30230
H    -0.80213  -0.97587   1.25414
H    -1.11504   2.01452   0.59636
H    -1.50426  -0.06955  -1.42624
H     2.07017   1.44706  -2.29157
H     1.38457   2.20111  -0.80439
H     0.56945   2.41481  -2.38494
26

C     3.20883   0.10887  -0.26756
C     2.14049  -0.92863  -0.48231
O     2.34680  -2.10011  -0.14020
C     0.82011  -0.63423  -1.04197
C    -0.04856  -1.75621  -1.11844
N    -0.73018  -2.69249  -1.25969
C    -0.54119   0.08769   1.17451
C     0.74693   0.49853   1.84559
O     1.11505   1.70724   1.73871
O     1.34626  -0.38878   2.51220
C    -1.40479   0.95917   0.70931
C    -2.83414   0.60538   0.37292
O    -3.11003  -0.49194  -0.19706
O    -3.66365   1.45386   0.80098
N    -0.91304   0.78116  -1.73028
N     0.30542   0.55264  -1.52263
C     1.16334   1.72742  -1.76990
H     4.02803  -0.36679   0.28594
H     3.58642   0.46856  -1.23106
H     2.83064   0.97155   0.30232
H    -0.80174  -0.97620   1.25399
H    -1.11587   2.01547   0.59857
H    -1.50225  -0.07057  -1.42255
H     2.07033   1.44650  -2.29181
H     1.38481   2.19990  -0.80399
H     0.56943   2.41492  -2.38446
26

C     3.20930   0.10894  -0.26814
C     2.14114  -0.92865  -0.48536
O     2.34684  -2.09995  -0.13962
C     0.82573  -0.63825  -1.05417
C    -0.04791  -1.75611  -1.11998
N    -0.73056  -2.69232  -1.25872
C    -0.54941   0.09222   1.18706
C     0.74726   0.49892   1.84651
O     1.11678   1.70717   1.73823
O     1.34743  -0.38899   2.51149
C    -1.41232   0.96030   0.74068
C    -2.83526   0.60557   0.37551
O    -3.10893  -0.49089  -0.19845
O    -3.66823   1.45429   0.79908
N    -0.90523   0.77718  -1.75925
N     0.30493   0.55321  -1.51950
C     1.16492   1.72757  -1.77049
H     4.02789  -0.36696   0.28603
H     3.58706   0.46878  -1.23095
H     2.83072   0.97140   0.30235
H    -0.80135  -0.97654   1.25384
H    -1.11670   2.01643   0.60079
H    -1.50025  -0.07159  -1.41886
H     2.07048   1.44594  -2.29205
H     1.38504   2.19869  -0.80359
H     0.56940   2.41503  -2.38399
26

C     3.20883   0.10887  -0.26756
C     2.14049  -0.92863  -0.48231
O     2.34680  -2.10011  -0.14020
C     0.82011  -0.63423  -1.04197
C    -0.04856  -1.75621  -1.11844
N    -0.73018  -2.69249  -1.25969
C    -0.54119   0.08769   1.17451
C     0.74693   0.49853   1.84559
O     1.11505   1.70724   1.73871
O     1.34626  -0.38878   2.51220
C    -1.40479   0.95917   0.70931
C    -2.83414   0.60538   0.37292
O    -3.11003  -0.49194  -0.19706
O    -3.66365   1.45386   0.80098
N    -0.91304   0.78116  -1.73028
N     0.30542   0.55264  -1.52263
C     1.16334   1.72742  -1.76990
H     4.02803  -0.36679   0.28594
H     3.58642   0.46856  -1.23106
H     2.83064   0.97155   0.30232
H    -0.80174  -0.97620   1.25399
H    -1.11587   2.01547   0.59857
H    -1.50225  -0.07057  -1.42255
H     2.07033   1.44650  -2.29181
H     1.38481   2.19990  -0.80399
H     0.56943   2.41492  -2.38446
26

C     3.20837   0.10880  -0.26698
C     2.13984  -0.92860  -0.47925
O     2.34675  -2.10028  -0.14079
C     0.81449  -0.63022  -1.02976
C    -0.04921  -1.75632  -1.11690
N    -0.72979  -2.69266  -1.26067
C    -0.53297   0.08315   1.16195
C     0.74660   0.49815   1.84468
O     1.11332   1.70730   1.73919
O     1.34509  -0.38857   2.51291
C    -1.39725   0.95805   0.67795
C    -2.83301   0.60519   0.37034
O    -3.11113  -0.49300  -0.19567
O    -3.65906   1.45344   0.80289
N    -0.92086   0.78514  -1.70130
N     0.30591   0.55206  -1.52575
C     1.16177   1.72727  -1.76931
H     4.02818  -0.36663   0.28586
H     3.58578   0.46833  -1.23117
H     2.83056   0.97169   0.30230
H    -0.80213  -0.97587   1.25414
H    -1.11504   2.01452   0.59636
H    -1.50426  -0.06955  -1.42624
H     2.07017   1.44706  -2.29157
H     1.38457   2.20111  -0.80439
H     0.56945   2.41481  -2.38494
26

C     3.20790   0.10872  -0.26640
C     2.13919  -0.92857  -0.47620
O     2.34670  -2.10044  -0.14137
C     0.80887  -0.62620  -1.01756
C    -0.04986  -1.75642  -1.11537
N    -0.72941  -2.69283  -1.26164
C    -0.52474   0.07862   1.14939
C     0.74628   0.49776   1.84377
O     1.11159   1.70736   1.73967
O     1.34392  -0.38836   2.51362
C    -1.38971   0.95692   0.64659
C    -2.83189   0.60500   0.36776
O    -3.11224  -0.49405  -0.19429
O    -3.65447   1.45301   0.80479
N    -0.92868   0.78911  -1.67233
N     0.30641   0.55149  -1.52887
C     1.16020   1.72712  -1.76872
H     4.02832  -0.36646   0.28578
H     3.58514   0.46811  -1.23127
H     2.83048   0.97184   0.30227
H    -0.80253  -0.97553   1.25428
H    -1.11421   2.01356   0.59414
H    -1.50627  -0.06853  -1.42992
H     2.07002   1.44761  -2.29133
H     1.38434   2.20232  -0.80479
H     0.56948   2.41470  -2.38542
26

C     3.20744   0.10865  -0.26582
C     2.13853  -0.92855  -0.47315
O     2.34666  -2.10061  -0.14196
C     0.80325  -0.62218  -1.00536
C    -0.05050  -1.75653  -1.11383
N    -0.72903  -2.69300  -1.26261
C    -0.51652   0.07408   1.13683
C     0.74595   0.49737   1.84286
O     1.10986   1.70742   1.74015
O     1.34275  -0.38815   2.51433
C    -1.38218   0.95580   0.61523
C    -2.83077   0.60481   0.36518
O    -3.11334  -0.49511  -0.19290
O    -3.64989   1.45258   0.80670
N    -0.93649   0.79309  -1.64335
N     0.30690   0.55092  -1.53200
C     1.15862   1.72697  -1.76813
H     4.02846  -0.36630   0.28569
H     3.58450   0.46789  -1.23138
H     2.83040   0.97198   0.30225
H    -0.80292  -0.97520   1.25443
H    -1.11339   2.01260   0.59193
H    -1.50828  -0.06751  -1.43361
H     2.06986   1.44817  -2.29108
H     1.38410   2.20353  -0.80520
H     0.56950   2.41459  -2.38589
26

C     3.20697   0.10858  -0.26525
C     2.13788  -0.92852  -0.47009
O     2.34661  -2.10077  -0.14255
C     0.79763  -0.61817  -0.99316
C    -0.05115  -1.75663  -1.11230
N    -0.72865  -2.69317  -1.26358
C    -0.50829   0.06955   1.12427
C     0.74563   0.49699   1.84194
O     1.10813   1.70748   1.74063
O     1.34158  -0.38794   2.51504
C    -1.37464   0.95467   0.58387
C    -2.82965   0.60462   0.36260
O    -3.11444  -0.49616  -0.19151
O    -3.64530   1.45216   0.80860
N    -0.94431   0.79707  -1.61438
N     0.30740   0.55034  -1.53512
C     1.15705   1.72681  -1.76754
H     4.02861  -0.36614   0.28561
H     3.58386   0.46767  -1.23149
H     2.83032   0.97213   0.30222
H    -0.80331  -0.97486   1.25458
H    -1.11256   2.01165   0.58971
H    -1.51029  -0.06648  -1.43730
H     2.06971   1.44873  -2.29084
H     1.38387   2.20474  -0.80560
H     0.56953   2.41448  -2.38637
26

C     3.20651   0.10850  -0.26467
C     2.13723  -0.92849  -0.46704
O     2.34656  -2.10094  -0.14313
C     0.79201  -0.61415  -0.98095
C    -0.05180  -1.75674  -1.11076
N    -0.72826  -2.69334  -1.26456
C    -0.50007   0.06501   1.11172
C     0.74530   0.49660   1.84103
O     1.10640   1.70754   1.74111
O     1.34041  -0.38773   2.51575
C    -1.36710   0.95354   0.55250
C    -2.82852   0.60443   0.36002
O    -3.11555  -0.49721  -0.19012
O    -3.64071   1.45173   0.81050
N    -0.95212   0.80104  -1.58540
N     0.30789   0.54977  -1.53824
C     1.15548   1.72666  -1.76695
H     4.02875  -0.36597   0.28552
H     3.58323   0.46744  -1.23159
H     2.83024   0.97227   0.30220
H    -0.80371  -0.97453   1.25472
H    -1.11173   2.01069   0.58750
H    -1.51229  -0.06546  -1.44099
H     2.06955   1.44929  -2.29060
H     1.38363   2.20595  -0.80600
H     0.56955   2.41437  -2.38684
26

C     3.20604   0.10843  -0.26409
C     2.13658  -0.92847  -0.46398
O     2.34652  -2.10111  -0.14372
C     0.78639  -0.61013  -0.96875
C    -0.05245  -1.75684  -1.10922
N    -0.72788  -2.69351  -1.26553
C    -0.49185   0.06048   1.09916
C     0.74497   0.49621   1.84012
O     1.10467   1.70760   1.74159
O     1.33924  -0.38752   2.51646
C    -1.35956   0.95242   0.52114
C    -2.82740   0.60424   0.35744
O    -3.11665  -0.49827  -0.18873
O    -3.63613   1.45130   0.81241
N    -0.95994   0.80502  -1.55643
N     0.30838   0.54919  -1.54137
C     1.15390   1.72651  -1.76636
H     4.02890  -0.36581   0.28544
H     3.58259   0.46722  -1.23170
H     2.83016   0.97242   0.30218
H    -0.80410  -0.97419   1.25487
H    -1.11090   2.00973   0.58529
H    -1.51430  -0.06444  -1.44467
H     2.06940   1.44985  -2.29036
H     1.38340   2.20716  -0.80640
H     0.56958   2.41426  -2.38732
26

C     3.20558   0.10836  -0.26351
C     2.13593  -0.92844  -0.46093
O     2.34647  -2.10127  -0.14431
C     0.78077  -0.60612  -0.95655
C    -0.05310  -1.75695  -1.10769
N    -0.72750  -2.69369  -1.26650
C    -0.48362   0.05594   1.08660
C     0.74465   0.49583   1.83921
O     1.10294   1.70766   1.74207
O     1.33807  -0.38731   2.51717
C    -1.35203   0.95129   0.48978
C    -2.82628   0.60405   0.35486
O    -3.11776  -0.49932  -0.18735
O    -3.63154   1.45088   0.81431
N    -0.96776   0.80899  -1.52745
N     0.30888   0.54862  -1.54449
C     1.15233   1.72636  -1.76577
H     4.02904  -0.36564   0.28535
H     3.58195   0.46700  -1.23181
H     2.83008   0.97256   0.30215
H    -0.80450  -0.97386   1.25502
H    -1.11007   2.00878   0.58307
H    -1.51631  -0.06342  -1.44836
H     2.06924   1.45041  -2.29011
H     1.38317   2.20837  -0.80681
H     0.56960   2.41415  -2.38780
26

C     3.20511   0.10829  -0.26293
C     2.13528  -0.92841  -0.45788
O     2.34642  -2.10144  -0.14489
C     0.77515  -0.60210  -0.94434
C    -0.05374  -1.75705  -1.10615
N    -0.72711  -2.69386  -1.26747
C    -0.47540   0.05140   1.07404
C     0.74432   0.49544   1.83829
O     1.10121   1.70772   1.74255
O     1.33689  -0.38710   2.51788
C    -1.34449   0.95017   0.45842
C    -2.82515   0.60387   0.35228
O    -3.11886  -0.50037  -0.18596
O    -3.62695   1.45045   0.81622
N    -0.97557   0.81297  -1.49848
N     0.30937   0.54804  -1.54761
C     1.15076   1.72621  -1.76519
H     4.02919  -0.36548   0.28527
H     3.58131   0.46677  -1.23191
H     2.83000   0.97271   0.30213
H    -0.80489  -0.97352   1.25516
H    -1.10924   2.00782   0.58086
H    -1.51832  -0.06239  -1.45205
H     2.06909   1.45097  -2.28987
H     1.38293   2.20958  -0.80721
H     0.56963   2.41404  -2.38827
26

C     3.20465   0.10821  -0.26235
C     2.13463  -0.92839  -0.45482
O     2.34638  -2.10160  -0.14548
C     0.76953  -0.59808  -0.93214
C    -0.05439  -1.75716  -1.10461
N    -0.72673  -2.69403  -1.26845
C    -0.46717   0.04687   1.06149
C     0.74400   0.49506   1.83738
O     1.09948   1.70778   1.74303
O     1.33572  -0.38689   2.51859
C    -1.33695   0.94904   0.42706
C    -2.82403   0.60368   0.34970
O    -3.11996  -0.50143  -0.18457
O    -3.62237   1.45003   0.81812
N    -0.98339   0.81695  -1.46951
N     0.30987   0.54747  -1.55074
C     1.14919   1.72606  -1.76460
H     4.02933  -0.36531   0.28518
H     3.58067   0.46655  -1.23202
H     2.82993   0.97286   0.30210
H    -0.80528  -0.97319   1.25531
H    -1.10841   2.00687   0.57864
H    -1.52033  -0.06137  -1.45574
H     2.06893   1.45153  -2.28963
H     1.38270   2.21079  -0.80761
H     0.56965   2.41393  -2.38875
26

C     3.20418   0.10814  -0.26177
C     2.13398  -0.92836  -0.45177
O     2.34633  -2.10177  -0.14606
C     0.76391  -0.59407  -0.91994
C    -0.05504  -1.75726  -1.10308
N    -0.72635  -2.69420  -1.26942
C    -0.45895   0.04233   1.04893
C     0.74367   0.49467   1.83647
O     1.09775   1.70784   1.74352
O     1.33455  -0.38668   2.51930
C    -1.32941   0.94792   0.39569
C    -2.82291   0.60349   0.34712
O    -3.12107  -0.50248  -0.18318
O    -3.61778   1.44960   0.82003
N    -0.99120   0.82092  -1.44053
N     0.31036   0.54689  -1.55386
C     1.14761   1.72591  -1.76401
H     4.02947  -0.36515   0.28510
H     3.58003   0.46633  -1.23213
H     2.82985   0.97300   0.30208
H    -0.80568  -0.97285   1.25546
H    -1.10758   2.00591   0.57643
H    -1.52234  -0.06035  -1.45942
H     2.06878   1.45208  -2.28939
H     1.38246   2.21200  -0.80802
H     0.56968   2.41382  -2.38922
26

C     3.20372   0.10807  -0.26119
C     2.13333  -0.92833  -0.44871
O     2.34628  -2.10194  -0.14665
C     0.75829  -0.59005  -0.90773
C    -0.05569  -1.75737  -1.10154
N    -0.72597  -2.69437  -1.27039
C    -0.45072   0.03780   1.03637
C     0.74334   0.49428   1.83556
O     1.09602   1.70790   1.74400
O     1.33338  -0.38647   2.52001
C    -1.32188   0.94679   0.36433
C    -2.82179   0.60330   0.34454
O    -3.12217  -0.50353  -0.18179
O    -3.61319   1.44917   0.82193
N    -0.99902   0.82490  -1.41156
N     0.31085   0.54632  -1.55698
C     1.14604   1.72576  -1.76342
H     4.02962  -0.36499   0.28502
H     3.57940   0.46611  -1.23223
H     2.82977   0.97315   0.30205
H    -0.80607  -0.97252   1.25560
H    -1.10675   2.00495   0.57421
H    -1.52434  -0.05933  -1.46311
H     2.06862   1.45264  -2.28914
H     1.38223   2.21321  -0.80842
H     0.56970   2.41371  -2.38970
26

C     3.20325   0.10799  -0.26062
C     2.13268  -0.92831  -0.44566
O     2.34624  -2.10210  -0.14724
C     0.75267  -0.58603  -0.89553
C    -0.05633  -1.75747  -1.10000
N    -0.72558  -2.69454  -1.27136
C    -0.44250   0.03326   1.02381
C     0.74302   0.49390   1.83465
O     1.09429   1.70796   1.74448
O     1.33221  -0.38626   2.52072
C    -1.31434   0.94566   0.33297
C    -2.82066   0.60311   0.34196
O    -3.12327  -0.50459  -0.18041
O    -3.60861   1.44875   0.82383
N    -1.00683   0.82888  -1.38258
N     0.31135   0.54574  -1.56011
C     1.14447   1.72561  -1.76283
H     4.02976  -0.36482   0.28493
H     3.57876   0.46588  -1.23234
H     2.82969   0.97329   0.30203
H    -0.80646  -0.97218   1.25575
H    -1.10592   2.00400   0.57200
H    -1.52635  -0.05831  -1.46680
H     2.06847   1.45320  -2.28890
H     1.38199   2.21442  -0.80882
H     0.56973   2.41361  -2.39018
26

C     3.20279   0.10792  -0.26004
C     2.13203  -0.92828  -0.44261
O     2.34619  -2.10227  -0.14782
C     0.74706  -0.58202  -0.88333
C    -0.05698  -1.75758  -1.09847
N    -0.72520  -2.69471  -1.27234
C    -0.43428   0.02873   1.01126
C     0.74269   0.49351   1.83373
O     1.09256   1.70802   1.74496
O     1.33104  -0.38605   2.52143
C    -1.30680   0.94454   0.30161
C    -2.81954   0.60292   0.33937
O    -3.12438  -0.50564  -0.17902
O    -3.60402   1.44832   0.82574
N    -1.01465   0.83285  -1.35361
N     0.31184   0.54517  -1.56323
C     1.14289   1.72545  -1.76224
H     4.02991  -0.36466   0.28485
H     3.57812   0.46566  -1.23245
H     2.82961   0.97344   0.30200
H    -0.80686  -0.97185   1.25590
H    -1.10509   2.00304   0.56978
H    -1.52836  -0.05728  -1.47049
H     2.06831   1.45376  -2.28866
H     1.38176   2.21563  -0.80922
H     0.56975   2.41350  -2.39065
26

C     3.20232   0.10785  -0.25946
C     2.13138  -0.92825  -0.43955
O     2.34614  -2.10243  -0.14841
C     0.74144  -0.57800  -0.87112
C    -0.05763  -1.75768  -1.09693
N    -0.72482  -2.69488  -1.27331
C    -0.42605   0.02419   0.99870
C     0.74237   0.49312   1.83282
O     1.09083   1.70808   1.74544
O     1.32987  -0.38584   2.52215
C    -1.29927   0.94341   0.27025
C    -2.81842   0.60273   0.33679
O    -3.12548  -0.50669  -0.17763
O    -3.59943   1.44789   0.82764
N    -1.02247   0.83683  -1.32463
N     0.31234   0.54459  -1.56635
C     1.14132   1.72530  -1.76165
H     4.03005  -0.36449   0.28476
H     3.57748   0.46544  -1.23255
H     2.82953   0.97358   0.30198
H    -0.80725  -0.97151   1.25604
H    -1.10426   2.00208   0.56757
H    -1.53037  -0.05626  -1.47417
H     2.06816   1.45432  -2.28842
H     1.38152   2.21684  -0.80963
H     0.56978   2.41339  -2.39113
26

C     3.20186   0.10777  -0.25888
C     2.13073  -0.92823  -0.43650
O     2.34610  -2.10260  -0.14899
C     0.73582  -0.57399  -0.85892
C    -0.05828  -1.75779  -1.09539
N    -0.72444  -2.69505  -1.27428
C    -0.41783   0.01966   0.98614
C     0.74204   0.49274   1.83191
O     1.08910   1.70814   1.74592
O     1.32870  -0.38563   2.52286
C    -1.29173   0.94229   0.23888
C    -2.81729   0.60254   0.33421
O    -3.12658  -0.50775  -0.17624
O    -3.59485   1.44747   0.82955
N    -1.03028   0.84081  -1.29566
N     0.31283   0.54402  -1.56948
C     1.13975   1.72515  -1.76106
H     4.03020  -0.36433   0.28468
H     3.57684   0.46521  -1.23266
H     2.82945   0.97373   0.30196
H    -0.80764  -0.97118   1.25619
H    -1.10343   2.00113   0.56535
H    -1.53238  -0.05524  -1.47786
H     2.06800   1.45488  -2.28818
H     1.38129   2.21805  -0.81003
H     0.56980   2.41328  -2.39160
26

C     3.20139   0.10770  -0.25830
C     2.13008  -0.92820  -0.43344
O     2.34605  -2.10277  -0.14958
C     0.73020  -0.56997  -0.84672
C    -0.05893  -1.75789  -1.09386
N    -0.72405  -2.69523  -1.27525
C    -0.40960   0.01512   0.97358
C     0.74171   0.49235   1.83100
O     1.08738   1.70820   1.74640
O     1.32753  -0.38542   2.52357
C    -1.28419   0.94116   0.20752
C    -2.81617   0.60235   0.33163
O    -3.12769  -0.50880  -0.17485
O    -3.59026   1.44704   0.83145
N    -1.03810   0.84478  -1.26668
N     0.31332   0.54344  -1.57260
C     1.13817   1.72500  -1.76047
H     4.03034  -0.36417   0.28459
H     3.57620   0.46499  -1.23277
H     2.82937   0.97387   0.30193
H    -0.80804  -0.97084   1.25634
H    -1.10260   2.00017   0.56314
H    -1.53438  -0.05422  -1.48155
H     2.06785   1.45544  -2.28793
H     1.38105   2.21926  -0.81043
H     0.56983   2.41317  -2.39208
26

C     3.20093   0.10763  -0.25772
C     2.12943  -0.92817  -0.43039
O     2.34600  -2.10293  -0.15017
C     0.72458  -0.56595  -0.83451
C    -0.05957  -1.75799  -1.09232
N    -0.72367  -2.69540  -1.27623
C    -0.40138   0.01058   0.96103
C     0.74139   0.49196   1.83008
O     1.08565   1.70826   1.74688
O     1.32636  -0.38521   2.52428
C    -1.27665   0.94003   0.17616
C    -2.81505   0.60216   0.32905
O    -3.12879  -0.50985  -0.17347
O    -3.58567   1.44661   0.83336
N    -1.04591   0.84876  -1.23771
N     0.31382   0.54287  -1.57572
C     1.13660   1.72485  -1.75988
H     4.03048  -0.36400   0.28451
H     3.57557   0.46477  -1.23287
H     2.82929   0.97402   0.30191
H    -0.80843  -0.97051   1.25648
H    -1.10177   1.99921   0.56093
H    -1.53639  -0.05319  -1.48523
H     2.06769   1.45600  -2.28769
H     1.38082   2.22047  -0.81083
H     0.56985   2.41306  -2.39256
26

C     3.20046   0.10755  -0.25714
C     2.12878  -0.92815  -0.42734
O     2.34596  -2.10310  -0.15075
C     0.71896  -0.56194  -0.82231
C    -0.06022  -1.75810  -1.09078
N    -0.72329  -2.69557  -1.27720
C    -0.39316   0.00605   0.94847
C     0.74106   0.49158   1.82917
O     1.08392   1.70832   1.74736
O     1.32519  -0.38500   2.52499
C    -1.26912   0.93891   0.14480
C    -2.81392   0.60197   0.32647
O    -3.12989  -0.51091  -0.17208
O    -3.58109   1.44619   0.83526
N    -1.05373   0.85273  -1.20874
N     0.31431   0.54229  -1.57884
C     1.13503   1.72470  -1.75929
H     4.03063  -0.36384   0.28442
H     3.57493   0.46454  -1.23298
H     2.82921   0.97416   0.30188
H    -0.80883  -0.97017   1.25663
H    -1.10094   1.99826   0.55871
H    -1.53840  -0.05217  -1.48892
H     2.06754   1.45655  -2.28745
H     1.38058   2.22168  -0.81124
H     0.56988   2.41295  -2.39303
