13

C 3.167760167 -0.238567851 -1.199148824
O 0.860711026 0.816916831 -0.254458747
C -0.574419786 -1.081349892 1.594449898
C -2.829981638 0.568092283 1.955120116
O -3.390323776 1.045212905 -0.689679473
C -1.410988124 0.058582606 -1.863954342
O -1.124943455 -0.593162883 -3.972116423
H 2.925746136 -2.266591447 -1.473781247
H 4.605267384 0.147277336 0.218093141
H 3.608555547 0.695631487 -2.974651398
H 0.688976722 -1.378942715 3.193286247
H -2.590345317 2.407127430 2.875375977
H -4.405846155 -0.459174214 2.791008795

