17

C -4.094650290 -1.203363385 -0.041199299
C -1.547356903 -0.082402547 -0.717531126
O -1.755470192 2.534798442 -0.739199954
C 0.529863539 -0.943242433 1.148663675
C 3.260759674 -0.589196593 0.559301315
C 4.189712358 1.425609955 -0.865011079
O 2.993006534 3.222030115 -1.805755445
H -4.044284761 -3.265657807 -0.049745812
H -4.705768727 -0.551815524 1.822937345
H -5.496001755 -0.573685343 -1.410436928
H -0.905121763 -0.823212415 -2.549268926
H -0.076405690 3.179532084 -1.284636689
H -0.470273936 0.389354900 3.043842605
H 0.208901910 -2.760296078 2.060257240
H 4.549560979 -1.969809902 1.331030429
H 1.216510210 0.663535830 2.731945273
H 6.253508658 1.362244944 -1.170080981

