14

C -4.256537552 0.319050209 -0.234359790
C -1.521682290 -0.383739428 0.039150420
C -0.483183733 -2.698701419 -0.954856766
O 2.083682852 -2.319157675 -0.769536238
C 2.644363403 0.065904029 0.008893864
N 5.169016812 0.565627362 0.203938658
C 0.534689900 1.379678820 0.550790820
H -4.959309955 1.326230279 1.420734802
H -5.396648440 -1.369817624 -0.533618879
H -4.483914691 1.546850040 -1.874093346
H -1.452681284 -2.156924611 1.527873297
H 6.286242191 -0.550948971 -0.854673785
H 5.659812400 2.398972469 0.200405059
H 0.400672507 3.281604261 1.262426038

