17

C -4.693833727 -1.213270275 -1.068873996
C -2.670982141 0.833401611 -1.196083877
C -0.245105566 0.010983145 0.025462926
O 1.282822098 -1.714315547 -1.396652397
C 2.227129052 0.759521200 -0.923261660
C 4.548442016 0.855493511 0.731320231
O 4.460994297 -0.920200379 2.702629725
H -6.440502746 -0.590817166 -1.969568678
H -4.053300569 -2.925138608 -2.023874683
H -5.133106234 -1.704220536 0.887755955
H -2.289886951 1.337139781 -3.163133985
H -3.329489599 2.549330814 -0.247238103
H -0.368901090 -0.483331849 2.019046168
H 3.965148832 -2.505151625 1.959434304
H 4.709612392 2.725719249 1.590863614
H 2.298456008 1.969928426 -2.586948799
H 6.223794944 0.565024162 -0.460133458

