17

C -4.542849258 -1.217725020 -0.844921249
C -2.434462848 0.681651652 -1.322801182
C -0.034236849 -0.016953130 0.045336779
O 1.116107171 -2.236168160 -0.971943405
C 2.308391792 1.291169566 -0.661331673
C 4.535213102 0.743703568 0.832989273
O 4.429078901 -1.317335243 2.198360995
H -6.254574010 -0.687589890 -1.862187599
H -3.981002803 -3.099672995 -1.467530449
H -5.006686126 -1.324086914 1.163591775
H -2.037426079 0.809170976 -3.347923916
H -3.004112644 2.567806005 -0.693116318
H -0.293928701 -0.173828574 2.090237083
H 2.535099438 -2.546085625 0.376583129
H 4.141255112 2.674531916 1.863659866
H 2.389955395 2.492153843 -2.330088550
H 6.317141746 1.178209033 -0.167095178

