9

C 3.203936876 -1.735948584 1.603952008
C 4.426343239 -2.072810880 -0.921627254
C 3.204657977 -2.348475188 -3.087313543
H 4.203500763 -2.579295956 -4.859020810
H 1.155080694 -2.349372241 -3.168650209
H 6.481924579 -2.083641580 -0.938139114
H 1.147970070 -1.736443995 1.451522787
H 3.758087667 -3.245609759 2.900361955
H 3.791310470 0.044070076 2.471826305

