21

C 4.116127689 -0.609208642 1.301053325
C 2.697029163 -1.046943271 -1.107007668
C 0.338166112 -2.356611725 -1.121851258
C -2.900384443 -0.329684246 -1.055674183
C -4.047979006 -0.566800278 1.510067579
C -0.605513434 1.001548572 -1.612670732
C 0.131739101 3.263192187 -0.069916427
H 2.857181278 -0.683272432 2.938037897
H 5.569702019 -2.056143212 1.615786097
H 5.077349524 1.221032136 1.364232558
H 3.692731602 -0.864292019 -2.883392422
H -0.146689027 -3.421284577 -2.803702936
H -0.238368674 -3.289324510 0.621190148
H -3.898762054 -1.167567248 -2.629003085
H -3.358437728 0.859229764 2.834662225
H -6.098686118 -0.352293969 1.417362113
H -3.695334247 -2.422388197 2.400359339
H -0.283648742 1.269415909 -3.616305579
H 1.913596219 4.070795918 -0.703831802
H 0.274473063 2.845090395 1.939587852
H -1.388061891 4.650266318 -0.311204104

