11

N 3.591759680 0.330121642 -0.924225496
C 1.153529210 0.299583441 -0.298960682
C -0.076087668 2.771621396 0.111886111
N -2.491169466 2.558101090 0.731933409
C -3.598889844 0.239383608 0.934559161
N -2.584963018 -1.955416387 0.579142702
N -0.107958731 -1.837753724 -0.063201361
H 4.350597971 2.072979972 -1.050394704
H 4.652214021 -1.206051823 -1.253504018
H 0.677930517 -3.554811982 -0.340376052
H -5.581613719 0.193603254 1.454422628

