11

N 2.977451688 0.464338703 -1.700977048
C 1.450346414 -0.126066521 0.115697197
C 0.387901852 1.024260472 2.311903715
N -2.066025024 1.683551071 1.949533254
C -3.095381030 0.350097937 0.060543707
N -2.172958219 -1.873882339 -0.622517548
N 0.200375881 -2.408399651 0.413213278
H 3.603136304 2.251986453 -1.900791095
H 3.493808183 -0.852380867 -2.979408878
H 0.149934442 -1.446990884 2.904694322
H -4.943241519 0.844849912 -0.670612949

