10

N 6.143720068 -1.012409660 -0.126081318
C 3.988127751 -0.826161031 -0.018578823
C 1.301092896 -0.476570107 0.106145066
N -0.340760423 -2.281769613 0.204326429
C -2.632581546 -0.975370347 0.317859758
C -2.356787035 1.721486850 0.380330286
N 0.229145998 1.871509165 0.109673449
H -4.378361714 -1.981600659 0.655269431
H -3.175761419 0.345791119 -1.608743144
H 1.192175470 3.505350366 -0.023277609

