9

O 3.533520438 -0.627619129 0.341300393
C 1.085938809 -0.080584385 -0.001620497
C -0.044680609 2.168300177 -0.291408581
O -2.588385066 1.776034929 -0.440750877
C -3.038587579 -0.735338809 -0.462078553
N -0.760301638 -1.932320419 -0.189171997
H 3.744360394 -2.424187217 0.173830653
H 0.644488279 4.071416428 -0.468862575
H -2.495805361 -2.242051917 1.394112114

