14

C -2.667038812 0.363175163 -0.012942356
C -1.061804228 -2.073752492 -0.268070142
C 1.246475314 -0.639388778 0.825683251
N 3.710497277 -1.144803437 -0.199061993
C -0.181319505 1.787917772 0.216587313
N 0.646230814 3.951828417 -0.301222779
H -0.773849557 5.131966653 -0.847790534
H -3.743697459 0.416679527 1.746211554
H -3.902703891 0.883557739 -1.576008004
H -1.691189986 -3.746942856 0.748637416
H -0.740711716 -2.562065811 -2.245317798
H 1.302029445 -0.898287001 2.876764019
H 3.805405332 -0.545795159 -2.014399861
H 5.047713800 -0.178322570 0.764345349

