14

C 2.453982207 0.505568106 1.696743683
C -0.205582814 0.379884008 0.779749093
C -0.661059174 -0.946246587 -2.120284277
C -1.895999278 -1.386059027 1.586123916
C -0.771321651 1.918384672 -1.876286733
O 0.928607468 3.340881738 -2.727413521
H 3.301225495 -1.352839153 2.002344655
H 3.559064905 1.591356038 0.336037695
H 2.465213473 1.529319901 3.487071839
H -2.332020039 -2.012143566 -2.612383246
H 1.125273061 -1.826478597 -2.602042022
H -1.387257699 -2.833237730 2.957021859
H -3.866375361 -1.305342286 1.032052966
H -2.770973428 2.525894166 -1.783105622

