15

C -2.287578254 1.130320009 0.836000476
O -0.340547243 2.532225637 -0.374583345
C 1.112894694 0.647951127 -2.404259677
C -0.019955206 -1.879036586 -1.474132642
C -0.593973557 -1.140211384 1.268643275
C 1.640302969 0.400930436 2.103155346
O 3.429033002 0.954945998 -1.884269918
H -3.937375716 0.839715035 -0.371687151
H -2.861227749 2.102110819 2.565698261
H 0.371813064 1.388405745 -4.205163817
H 1.418118476 -3.336810568 -1.667265090
H -1.742688708 -2.478560023 -2.439969321
H -1.123598669 -2.688648227 2.525854558
H 1.336207749 1.882230205 3.481675783
H 3.537021080 -0.340529800 2.002669367

