13

C 1.765939974 2.301706526 0.707365873
H 1.689081014 3.054506953 2.641802861
H 2.522177302 3.752197145 -0.539239718
C 2.905554979 -0.215641467 0.146000486
H 4.919024622 -0.576972182 0.058323052
C 1.054514950 -2.291850735 0.410453239
H 1.556948623 -4.265892415 0.544749082
O -1.093651291 -1.803018082 2.207166306
C -2.056996121 0.245424382 1.476375029
H -3.629342213 0.962015766 2.591950752
C -0.780277082 1.393892527 -0.619305203
H -1.835793133 2.805699980 -1.665709524
C 0.808817332 -0.800593641 -1.950948716

