15

C 1.723634845 2.192233142 0.517822224
C 2.811730379 -0.332826559 -0.155600522
C 0.903800183 -2.264003240 0.444879853
O -1.144897621 -1.768459300 2.241455538
C -2.436641041 0.058725318 1.168236873
C -0.933854708 1.463930181 -0.604340651
C 0.452043578 -0.794916658 -1.958093695
H 1.711940483 2.738923578 2.509611133
H 2.531983582 3.699470479 -0.622725664
H 4.787026893 -0.744551829 -0.488400624
H 1.350009629 -4.257342084 0.390711308
H -4.206221988 0.554294807 2.074650622
H -3.608321165 -1.753563269 -1.575460928
H -1.918703846 2.862004823 -1.734491983
H -2.235375023 -1.994867576 -2.480952303

