19

C 4.477145748 0.908720293 -1.315545295
C 2.124019018 -0.739924437 -1.453660634
C 0.514702645 -0.577445388 0.917576664
C -0.859451108 1.958616979 1.385010815
C -3.449580617 0.679019604 1.164436615
C -4.320735460 -0.003934693 -1.267882509
C -1.998168247 -2.048764341 0.787822116
H 5.575019822 0.789811506 -3.056560934
H 5.704882538 0.338416387 0.244734556
H 3.984674239 2.893138798 -1.027189623
H 0.957983639 -0.192989169 -3.070285561
H 2.669192004 -2.714617467 -1.753828511
H 1.623644995 -1.171688117 2.555181576
H -0.548378377 3.389334467 -0.063821947
H -0.497399481 2.773914163 3.240703614
H -4.666351496 0.688518898 2.831157917
H -6.091117500 -1.076806821 -1.010938527
H -2.293007286 -3.137749974 -0.946379114
H -2.504629570 -3.216949190 2.401885274

