19

C 4.525252147 0.859353314 -1.286862673
C 2.168666103 -0.785262841 -1.430562965
C 0.487982106 -0.496655704 0.874635416
C -0.900440382 2.057599605 1.274646406
C -3.420103781 0.631335162 1.335989977
C -4.353358539 -0.217974126 -1.129388374
C -2.064258168 -1.905628321 0.858289757
H 5.683136552 0.660664373 -2.981003844
H 5.694584664 0.353115887 0.338873285
H 4.028729140 2.854825225 -1.101127237
H 1.069796296 -0.296252251 -3.112830931
H 2.707604108 -2.774145409 -1.627557900
H 1.525432319 -1.029463795 2.578878931
H -0.758432037 3.383685679 -0.296014505
H -0.398848752 3.007173036 3.030994338
H -4.682199722 0.764431785 2.946059312
H -6.028559969 -1.396912801 -0.749386976
H -2.547650167 -2.288355914 -1.291962571
H -2.520478287 -3.550994093 1.986754490

