12

O 3.644320107 0.924698834 -0.610379006
C 1.408854434 0.110896499 0.568567908
C -1.041203303 1.342973555 -0.521183366
C -1.913309170 -1.336413881 -1.008781763
C 0.253319733 -2.375510744 -0.266737753
O -2.500784468 2.921230994 1.024139209
H 5.065200626 0.160448236 0.212318459
H 1.516744171 0.341829951 2.625140617
H -0.612236701 2.415720941 -2.227439779
H -3.061431930 1.967324988 2.461219820
H -3.673056908 -2.087043730 -1.736212201
H 0.977512862 -4.289847622 -0.277777004

