12

O 3.231837435 -0.095247261 -1.605834950
C 1.614767496 0.436937202 0.405613310
C -0.851272127 1.681402225 -0.424273278
C -2.030423718 -0.762742294 -1.428774982
C -0.512054250 -1.471354140 0.929581716
O -1.995571215 0.778973643 2.150656522
H 4.723042014 -0.896463057 -0.963188662
H 2.630329144 1.244656226 2.021566968
H -1.223608097 3.652643652 -0.873134331
H -3.638484690 0.147340699 1.093575986
H -1.423953232 -1.481957393 -3.257382791
H -0.500767993 -3.186609977 2.064875995

