14

C 1.462237591 0.449764493 -1.001426458
C 0.866377162 1.942202647 1.394511847
C -1.907906556 2.413953197 1.820066360
O -3.531603594 2.081487633 0.273209592
C -0.935448409 -3.542031235 -1.851105508
C 0.920719921 -2.318081570 -0.706895936
H 0.361305846 1.215299047 -2.568419372
H 3.459106481 0.711085195 -1.464100993
H 1.625653207 1.019078787 3.084941710
H 1.756361708 3.814981273 1.352442708
H -2.396145930 3.170764208 3.715854064
H -2.226183830 -2.572677908 -3.113644609
H -1.242592720 -5.543337543 -1.548442739
H 2.157534105 -3.347912502 0.574753700

