14

C 2.034495284 0.546975520 -1.348727657
C 1.068412090 1.182566345 1.160024803
C -1.562972409 1.903705468 1.568774227
O -3.201131672 1.481262957 -0.185419908
C -1.345910416 -2.710291090 -1.305814566
C 1.012932433 -2.010899427 -0.593229628
H 0.946364525 1.357865995 -2.888598977
H 4.064065526 0.683021023 -1.609724441
H 2.357421397 1.240544314 2.759901976
H -0.768759787 3.967850763 1.571732877
H -2.117049614 1.627723402 3.569387421
H -2.364695085 -1.740429843 -2.776001063
H -2.175864996 -4.426361948 -0.554323021
H 2.138008207 -3.203953524 0.632197463

