10

N 3.452376165 -0.362156450 0.318216292
C 0.860781550 -0.279793228 0.146656051
C -0.864315395 1.563654713 -0.053625344
N -3.175278329 0.264199643 0.031293770
C -2.927529244 -2.227772995 0.258709950
O -0.358155824 -2.532106546 0.331840613
H 4.186243425 -2.024716594 -0.250237930
H 4.345208661 1.129040986 -0.450519042
H -0.692996188 3.578916289 -0.226301091
H -4.882060956 1.084124974 -0.071052550

