13

C 3.617398218 0.404118971 0.336516816
O 1.315815488 -0.710219965 1.095759848
C -0.721908166 -0.177664718 -0.502196305
C -2.973181417 -1.746107997 0.334261276
C -1.347557709 2.557089406 -0.462968161
N -1.820311854 4.672152256 -0.436441149
H 3.501475785 2.470954990 0.356832505
H 4.159720231 -0.224152302 -1.562559315
H 5.045252299 -0.203471857 1.684682147
H -0.231487236 -0.634825977 -2.469719109
H -2.483722320 -3.741725795 0.210118364
H -3.458989280 -1.295591507 2.283643466
H -4.602504057 -1.370555544 -0.867930403

