11

C 3.007348384 -1.888978322 -0.489233766
N 0.603898946 -0.625522912 -0.300962923
C -2.622938519 2.969166751 0.370728229
C -3.570436049 0.657861304 -0.156655121
N -3.641876691 -1.521814949 -0.598008519
H 2.818191655 -3.894214636 0.011382217
H 4.382084587 -1.090752640 0.846597417
H 3.755602148 -1.740434378 -2.401355829
H 0.042925790 -0.797870886 1.532563541
H -2.664062267 3.682974965 2.285725207
H -2.252611083 4.271595362 -1.158184645

