13

C 1.241190336 1.174552848 1.892486070
O 1.392719915 -1.518083212 1.872699749
C -0.158103199 -2.355533070 -0.208249463
C -2.844634725 -1.868519656 0.798668464
O -2.994596115 0.593229760 0.689580981
C -0.613432123 1.695695849 -0.241321447
C 0.163139943 -0.279277824 -2.171455887
H 3.099973480 1.999180479 1.525692459
H 0.535168039 1.834434741 3.714843023
H 0.315884219 -4.294112186 -0.669838785
H -1.141389420 -0.404753239 -3.758161253
H -0.941395453 3.644656063 -0.786581870
H 2.102906299 -0.085034217 -2.828711402

