13

C 1.230036284 1.198514159 2.131757957
O 1.164908763 -1.494613683 2.232393186
C 0.187394861 -2.340296983 -0.076774281
C -2.584657222 -1.665819166 -0.640893415
O -2.899810949 0.755803107 0.471430619
C -0.468114301 1.781087281 -0.090689091
C 0.245372774 -0.302725980 -2.001111099
H 3.172890679 1.867084900 1.849474542
H 0.467109401 1.961303319 3.886947619
H 0.783257804 -4.240439164 -0.542625729
H -2.017844302 -0.953753713 -2.939586320
H -0.586083704 3.739874411 -0.703118298
H 1.398775221 -0.231002049 -3.692692542

