15

C 3.728509390 1.038977905 0.810166143
C 2.151155542 -0.704182120 -0.831543311
O 0.919479618 -2.469152588 0.165785711
C -3.012889949 -1.724073035 0.863990986
C -3.668761882 0.487280375 -0.301763713
H 4.416685851 2.673681918 -0.241404594
H 5.351084082 -0.016912539 1.526485652
H 2.621776357 1.676807583 2.428233630
H 0.408922031 1.187376945 -1.788660264
H 2.863218821 -0.993382555 -2.772241944
H -2.564818575 -1.778130956 2.853740012
H -3.318710866 -3.527225250 -0.038975299
H -3.921152947 2.189660885 0.812349268
H -4.666942414 0.435797149 -2.091670913
H -1.233502363 1.201380042 -1.353743217

