17

C 4.904851053 -1.419647586 0.354720056
C 2.072961642 -1.739487040 0.456553674
O 0.954010300 0.665893207 0.810422995
C -1.583604136 0.657756594 1.130048418
C -2.848873230 2.940134454 1.019359430
C -3.117238131 -0.785790018 -2.397320489
O -4.509238759 -2.377623968 -2.846599738
H 5.609265231 -0.591363505 2.105308594
H 5.813616415 -3.250770620 0.086528991
H 5.436846827 -0.189192822 -1.210163187
H 1.351106218 -2.561226376 -1.306159365
H 1.521555791 -2.998268590 2.009568984
H -2.366040873 -0.962759487 2.122607601
H -1.736863854 4.659384114 0.971081916
H -3.576169213 3.038854313 -1.653118260
H -4.683261522 3.060332204 1.917587018
H -3.566331488 2.049284337 -3.098890875

