16

C -0.734903983 -1.623467172 1.211346099
C -2.614453951 0.036141220 -0.238297866
C -1.728986115 2.744662657 -0.650330556
O 0.168395460 2.983627389 -2.514627714
C 3.977045679 -1.363750942 0.753874339
C 1.728270060 -2.033050872 -0.127583971
H -1.610379685 -3.468950991 1.542634836
H -0.374560914 -0.794848382 3.072265692
H -3.035127301 -0.802398915 -2.081434078
H -4.391977795 0.083252036 0.817275652
H -1.092402844 3.555896685 1.154003852
H -3.308167895 3.895869866 -1.310573274
H 4.177337770 -0.442895698 2.575893901
H 5.694440932 -1.726519210 -0.299707464
H 1.613512321 -2.952033152 -1.964450412
H 1.648267144 2.103657181 -1.937127504

