16

C -0.980695690 -2.048151806 0.978354981
C -2.546641035 0.193670415 -0.005104472
C -0.991116074 2.618480674 -0.380095166
O 1.265287462 2.145252869 -1.776626564
C 3.139971442 -0.007043784 0.247785595
C 1.572523160 -2.081269331 -0.345131340
H -2.017064167 -3.797826793 0.636017714
H -0.744616911 -1.898472401 3.034111536
H -3.340320017 -0.329036448 -1.842342281
H -4.138842763 0.610378685 1.243885803
H -0.478863724 3.459363408 1.443191173
H -2.110570007 4.028720183 -1.393670485
H 2.898706649 1.140000150 1.939954195
H 5.016663861 0.089800390 -0.570549778
H 2.407235787 -3.821765258 -1.019574292
H 1.141796543 -0.141198333 -2.192869262

