12

C 2.817386689 -0.369106390 -0.692650860
C -1.436367826 1.093320438 0.701621295
O -1.809954738 3.181024155 1.525944718
C 0.785402775 -0.540900296 1.363732007
C -3.359422710 0.064017742 -1.214587225
O -3.251675194 -2.016088690 -2.096417206
H 2.097507106 -1.027215985 -2.508642857
H 4.431540667 -1.545986870 -0.191204511
H 3.480627892 1.570739126 -0.911128031
H 0.150858216 -2.495734648 1.546837889
H 1.522717066 0.108326623 3.174162691
H -4.868567461 1.435056885 -1.684520670

