11

C 4.925433213 0.138037086 0.198189223
C 2.109315721 0.365849050 -0.355141749
C 0.973542888 2.808614391 0.659437732
H 1.208467970 2.941922834 2.707432275
H -1.044094943 2.938239040 0.248907280
H 1.891791633 4.458293878 -0.178151852
H 1.114442228 -1.250830849 0.464386891
H 1.797304325 0.255490934 -2.396298941
H 5.974404122 1.704662618 -0.645411675
H 5.707819172 -1.618100614 -0.549754438
H 5.286703400 0.172828928 2.231682328

