12

C 4.932531780 -1.672603018 -1.198021281
C 2.716804693 -0.900586174 -0.455318568
C 0.511181442 -0.135989454 0.225523355
C -2.075670356 0.613306815 -0.091422852
C -4.149331462 -1.253058269 -0.561831753
H -3.613124093 -3.115007952 0.133977689
H -5.885120042 -0.653590183 0.376658340
H -4.523707995 -1.386958121 -2.586118491
H -2.433596182 2.553836110 -0.667017840
O -0.811209593 0.460090505 2.354169198
H 5.364986570 -3.669847416 -1.371773491
H 6.425088099 -0.344744192 -1.661128110

