14

C 4.632997301 0.026420790 0.047480238
C 2.630087259 -0.798295828 -1.315789126
C 0.338764399 -0.448735084 -1.548831891
C -2.184249635 0.545443462 -1.144972662
C -4.165832097 -1.301695851 -0.220476388
O -1.167985974 2.086627026 0.715978225
H 5.316635698 -1.062502633 1.644788914
H 3.121677797 2.220857693 1.891101902
H 5.949795239 1.377176615 -0.756197455
H -2.876633779 1.613756795 -2.783998611
H -3.436111084 -2.384977516 1.371839839
H -5.827148839 -0.249677948 0.398217961
H -4.724811062 -2.595812446 -1.728394007
H 1.543080509 2.337274970 1.618526955

