16

C -3.778339163 -1.258865360 -0.422111942
C -1.980256062 0.844067471 0.381595004
C 0.604916809 0.635485983 -0.818938668
O 0.635880747 0.861875721 -3.478947226
C 2.763920800 1.630238117 0.371678194
O 4.178762510 -1.590514959 1.134422926
H -5.613617213 -1.064855588 0.498197342
H -4.114969778 -1.216639524 -2.459006970
H -3.014621883 -3.114437330 0.066849005
H -2.816212659 2.676159802 -0.103463809
H -1.752753616 0.806342793 2.435086061
H 2.059633063 -1.413749864 0.004120623
H 0.053949772 -0.694071386 -4.197656842
H 2.687520023 2.222740843 2.325196049
H 4.292876173 2.392741134 -0.754558061
H 5.567550547 -2.061810500 0.050952553

