11

O 4.389678471 0.441060868 0.433528495
C 1.785458407 0.580376637 -0.020283848
H 1.390130423 1.529838877 -1.844673315
C 0.445075478 -1.983242831 -0.033807163
H 1.422306298 -3.279804070 1.258053307
H 0.312720572 -2.964504097 -1.839763561
C -2.081294465 -1.535625842 1.109847094
N -1.818635875 0.841662511 2.118759155
H -3.242306896 1.568655420 3.162521865
C 0.343446876 2.176846936 1.809933100
H 4.906067337 2.028217822 1.151162479

