9

O 2.801934341 0.395597799 1.602927039
C 2.839184415 0.796428061 -0.782881843
O 0.896532995 0.109661695 -2.165282870
C -1.178875464 -1.109596082 -0.889373673
C -2.930322599 0.733149656 0.195546573
N -4.339605717 2.149775551 1.029687955
H 4.603637344 1.427209760 0.622428410
H -2.141534247 -2.196226493 -2.343919739
H -0.501370325 -2.368162487 0.592797977

