12

C -1.740532285 -0.407013635 1.934482020
C -1.436861687 -1.247040399 -0.736071135
O -1.174539147 0.620796783 -2.617765923
C 1.016731747 1.877259318 -2.115415057
C 2.319816206 0.968037189 -0.168571148
C 0.851622577 -1.138493982 0.965479615
H -2.686334087 -1.725364549 3.178528582
H -2.094698746 1.572535538 2.308817320
H -2.319652877 -2.952889859 -1.430643524
H 1.416151819 3.440348209 -3.364556964
H 4.124178300 1.654146346 0.483041550
H 1.781630086 -2.803610151 1.702189364

