15

C 3.288352151 0.892397046 0.182907310
C 0.993325769 -0.830563223 0.376768776
C -1.200033631 0.244783841 1.966467071
C -3.277302715 0.234524744 0.012198541
O -2.068607259 1.041094833 -2.387860955
C -0.398996377 -1.197811294 -2.098374547
C -3.144881725 -1.845423782 -1.905470453
H 4.168468189 1.164078304 2.028425219
H 4.711509488 0.098464350 -1.083091861
H 2.750581299 2.747923493 -0.544575171
H -0.801271391 2.143232242 2.671421389
H -1.709760079 -0.946787238 3.569785114
H -5.056672500 1.198568905 0.347911770
H 0.634270813 -1.626157707 -3.820212300
H 1.573696604 -2.688140533 1.070906869

