15

C 3.538772062 0.446198920 0.297798198
C 0.782185176 -0.252515088 0.173664187
C -1.337708834 0.810399675 1.819279629
C -3.291083543 -0.284855974 -0.003106124
O -2.791179079 1.126315717 -2.301006024
C -0.594859989 -0.418234564 -2.418386891
C -1.734971690 -2.602243429 -1.050798747
H 4.288677693 0.220086084 2.204915340
H 4.664646888 -0.718750528 -0.976698485
H 3.770261661 2.418358621 -0.266115693
H -1.435432015 2.865614540 1.970440523
H -1.379893984 -0.048448553 3.691007586
H -5.277827791 -0.410547611 0.503093830
H 0.488868936 -0.401931405 -4.160339116
H 0.602843251 -2.391101400 0.757932658

