15

C -2.253207726 1.411394831 1.436130023
C -2.189161109 1.053353505 -1.441913473
C -0.168844743 -0.296441129 2.271073801
N 1.393176831 -0.901258029 0.409956978
C 3.510201690 -2.247982066 0.365961092
C 0.541923564 0.320671368 -1.959884494
H -1.919700450 3.397863084 1.943332080
H -4.086441282 0.895227780 2.234163028
H -3.447710299 -0.487376090 -1.983219701
H -2.747219514 2.734723530 -2.492422770
H 0.225201591 -0.920825519 4.171060591
H 4.221507586 -3.036840640 2.103302688
H 4.425154602 -2.549093408 -1.424501914
H 0.791305845 -0.998289456 -3.519394470
H 1.755616494 1.958769820 -2.273170377

