15

C -2.085979890 1.495323407 1.732157907
C -2.797274428 1.266163255 -0.928924545
C -0.688585057 -0.916228571 1.328645859
N 1.486073935 -0.835827528 -0.119877290
C 3.708481714 -1.461912331 0.862102412
C 1.081525769 -0.024613362 -2.548412105
H -0.955529584 3.133310214 2.257445966
H -3.627905606 1.213947231 3.063195384
H -4.384813768 0.048299567 -1.345853497
H -2.469846666 2.753276785 -2.283623170
H -0.989928930 -2.581086528 2.485854441
H 4.000021063 -1.223719156 2.864560092
H 5.177090554 -2.154625382 -0.369058920
H -0.107040834 -1.226927911 -3.693103160
H 2.705514770 0.848517889 -3.464640034

