10

O -4.734166851 1.539583987 0.566601138
C -3.986634168 -0.553430352 0.254837977
O -1.518027994 -1.281364760 0.337508147
C 0.237883581 0.497194578 0.946720625
C 2.748264589 0.072312978 0.447881740
C 4.837297992 -1.190543672 0.294142580
H -5.148169581 -2.219529405 -0.147736710
H 2.262981333 1.902013823 -0.760939004
H -0.492414591 2.265568387 1.668301378
H 6.117326943 -0.923460024 -1.289277762

