10

N 3.339867975 -0.222714844 -0.462971638
C 1.089904323 -0.554072878 0.726601679
C -1.165251786 0.405025775 -0.696355214
C -3.532708763 0.655158996 0.648230636
N -3.495039983 -1.283274612 -0.666561338
O 0.896697704 -1.503640885 2.800794912
H 4.898307895 -0.925343458 0.361662778
H 3.434909823 0.328865258 -2.272629008
H -0.836645515 1.444475696 -2.436910629
H -4.735645259 1.659375993 1.953717939

