12

O 1.307545083 -4.614596244 -1.258298574
C -1.944138464 0.872432487 -1.123174501
C -0.058177978 2.270316890 0.520635818
O -0.851661165 2.859121026 2.969317570
C 0.385677323 -0.344543522 -0.221596977
C 1.817223021 -2.372076998 -0.127587977
H -0.281005809 -4.477597922 -2.130272821
H -3.708198652 0.371918132 -0.205982340
H -2.107165156 1.423041931 -3.091554278
H 1.046835424 3.749646941 -0.384858693
H 0.447187020 2.360802930 4.128974481
H 3.586861643 -2.435097664 0.900343968

