18

C -3.519058307 1.431368499 1.217558403
C -1.490284698 -0.026228945 -0.212454671
C -2.410634630 -2.740553713 -0.833125994
C 0.782343743 -0.605569332 1.292206402
C 3.099972157 -0.671015423 -0.254850374
C 4.211657010 2.003997315 0.155467334
H -2.865269741 3.327410693 1.697776249
H -5.235496395 1.614498985 0.082594430
H -3.984235425 0.462861788 2.977800267
H -1.075930025 0.904085626 -2.031855960
H -1.058607662 -3.783669834 -1.987242607
H -2.765247123 -3.809778990 0.893517011
H -4.177371917 -2.593768990 -1.885242012
H 4.584080493 2.353551843 2.150250552
H 4.466008440 -2.046951867 0.449434963
H 2.804187481 -0.959926787 -2.294157203
H 2.933346784 3.469075202 -0.532813988
H 5.980234437 2.158178407 -0.887852331

