18

C -2.963056019 1.608977432 1.282948370
C -1.224788174 -0.076430861 -0.274295901
C -2.434711990 -2.671438113 -0.713553366
C 1.242847361 -0.660946565 1.063532080
C 3.379059553 -0.884374346 -0.712714252
C 3.513233869 1.869976616 0.114561623
H -2.145882564 3.486479145 1.557047097
H -4.791463536 1.851242891 0.354666426
H -3.276883800 0.778692773 3.145789153
H -0.932888189 0.797738851 -2.145388854
H -1.237865589 -3.882356681 -1.879012833
H -2.754170701 -3.632280322 1.084407375
H -4.249553332 -2.458134483 -1.671519714
H 2.081581722 1.895905189 1.823503261
H 4.978208255 -2.031756504 -0.133384920
H 2.952415160 -1.095856923 -2.719243422
H 2.914173510 3.224969358 -1.301849146
H 5.229440900 2.367162690 1.121515567

