16

C -3.347767692 -1.143890926 -0.015657194
C -2.688913866 1.219655319 1.419311290
N -0.888948976 1.213219101 3.468525878
C -0.225638137 2.611760846 1.158004932
C 1.636417748 1.809052564 -0.742932239
C 4.328370124 -1.498463830 -1.838813501
O 2.527725991 -0.405885714 -0.140733687
H -4.235264130 -0.679424799 -1.817975000
H -4.689431364 -2.262276295 1.083698935
H -1.696558887 -2.316159530 -0.387192883
H -4.298527588 2.443760471 1.774284400
H 0.076827553 -0.445847280 3.475871753
H -0.334822676 4.648930640 1.344222267
H 4.722648762 -0.155920641 -3.346571835
H 3.524187704 -3.238554353 -2.591195334
H 6.026513206 -1.927772888 -0.757686200

