8

C -3.850857422 -0.122360069 -0.032586173
N -2.171016847 1.310246352 -0.488168396
N -0.519432535 2.943298706 -0.635868407
N 1.947546018 1.975183093 -0.308659720
C 2.380139080 -0.202163638 0.355334973
N 3.009592982 -2.376281223 0.745304166
H -4.832454416 -1.306469696 -1.379208392
H 3.247314613 -2.943956293 2.555865374

