9

C 3.383398365 -1.439311358 -0.586281332
C 2.599627066 -1.369514323 2.127909870
C 2.110939751 0.709144049 3.431603615
H 1.551249171 0.633290329 5.399229069
H 2.252535872 2.567454138 2.575030636
H 2.433016546 -3.189429770 3.068779204
H 2.044734028 -2.537022990 -1.713211702
H 3.501948141 0.456669515 -1.386851219
H 5.226489809 -2.348750313 -0.794796982

