16

C 3.135691004 -1.916527846 -0.091671219
C 1.227246217 -0.546400646 1.500141056
C 0.589648295 1.996083993 0.916602643
C -2.599995165 2.318760265 -1.271321849
C -2.431019729 -0.107431667 -0.201299655
O -2.318478054 -2.110875879 -1.745174492
H 3.388364659 -3.863592891 0.546848058
H 2.565317217 -2.009508683 -2.082434612
H 5.010724735 -1.024771114 -0.061211291
H 0.866720430 -1.202116941 3.404457132
H -0.083319310 3.227865155 2.405789032
H 1.695401770 2.976209118 -0.503418939
H -3.934794502 3.644931169 -0.478588769
H -1.983766550 2.578059565 -3.198999059
H -3.306159664 -0.390977872 1.629538597
H -1.822766230 -3.570212173 -0.766603477

