14

C -2.901356575 1.012581757 0.315107353
C -0.243448673 -0.021421085 0.176514687
C 1.810344135 1.851519509 -0.217067171
N 3.801855217 1.332473027 -1.426963245
C 0.391551272 -2.269328488 1.745082802
O 0.682330725 -3.074207159 3.819691945
C 0.226111570 -2.694105208 -0.964807270
H -3.480708148 1.801457962 -1.502403115
H -3.037590899 2.495693244 1.743275449
H -4.246098781 -0.463013136 0.828435070
H 1.468879865 3.696658567 0.662639911
H 5.009420163 2.824729919 -1.456537232
H -1.388324638 -3.712999917 -1.708648750
H 1.981522066 -2.869938952 -2.010952963

