14

C -3.208760043 1.085157483 0.133817346
C -0.533234206 0.309468523 -0.320154074
C 1.619749967 1.842105442 -0.154189709
N 3.817619010 0.757712429 -0.482040033
C 1.404480739 -2.307243972 1.259630019
O 1.947442008 -2.800520562 3.313065366
C 0.168743926 -2.344890302 -1.139266861
H -4.323763179 1.127957360 -1.609163343
H -3.271790781 2.972445369 0.963950827
H -4.178629662 -0.182144144 1.449710634
H 1.399984475 3.821095407 0.402071604
H 5.285136873 1.867922011 0.037318463
H -1.419022672 -3.652860479 -1.052837497
H 1.366527101 -2.586108286 -2.798545288

