12

C 2.669491336 -0.555953741 0.129295761
C -0.132606958 -0.527613764 0.721609382
C -1.603559701 1.955651072 0.480318379
O -3.169855476 0.865720255 -1.499236614
C -1.886173572 -1.364215040 -1.402540330
O -2.196090848 -3.181294556 -2.671049869
H 3.748419942 0.330107262 1.646180338
H 3.333638380 -2.494687078 -0.086401170
H 3.069006632 0.451559468 -1.625939860
H -0.544461428 -1.550848209 2.463507561
H -0.533569538 3.557990275 -0.248049363
H -2.754238750 2.513584075 2.092305786

