12

C 2.317930411 -0.985704598 -0.939907822
C -1.010715955 -0.324977695 1.589541920
C -1.542725921 2.188849777 0.760097056
O -1.405741205 1.903565742 -1.751686677
C -0.741720187 -1.338362547 -0.992493477
O -1.649586399 -3.028622977 -2.214675417
H 3.098400812 0.707549857 -0.075862923
H 3.109795256 -2.688418947 -0.098787984
H 2.701246427 -0.950651067 -2.958976592
H -0.869676321 -1.246371303 3.416687270
H -0.875004555 3.916203697 1.677483047
H -3.569963107 1.795560297 1.510163634

