13

C -3.903737344 -1.471406523 1.447773325
H -5.109830156 -1.670382174 3.072749594
C -3.482550594 -0.523646057 -0.766070197
H -4.054887315 0.646063441 -2.325388121
C -1.409839737 -2.000420820 0.367066771
O 0.692799279 -0.748984106 1.450457700
C 2.815439383 -0.693193664 -0.086172267
C 2.751893808 1.186597527 -2.235411967
O 1.012006808 2.531433955 -2.768920977
H 4.537321318 1.234282064 -3.347044494
H 3.237570222 -2.554413365 -0.928727220
H 4.451524048 -0.213820395 1.089996429
H -0.874578327 -3.870626905 -0.325687343

