17

C -3.307765383 -1.273554409 0.226439551
C -3.558241174 1.106120233 -1.319843175
C -1.039922541 0.361775462 -0.270571308
C 1.149276362 -0.664462798 -1.805757108
C 2.942717709 -1.209088500 0.341704284
C 4.457817989 0.574107036 1.298165257
C 0.146898219 2.100382645 1.629938652
H -3.463887337 -3.068542856 -0.749817588
H -4.106146949 -1.254770267 2.112711162
H -3.836775126 0.944064880 -3.341378811
H -4.508029089 2.708679683 -0.467271199
H 0.649273973 -2.331520849 -2.909067848
H 1.923438706 0.776451483 -3.061616613
H 2.693843972 -2.982287516 1.345540048
H 4.826063306 2.322852600 0.310850688
H 5.469326060 0.262908260 3.051525985
H -0.461910934 1.533755467 3.551514334

