10

C -1.583502374 -1.983061966 -2.823687357
O 0.184990393 -0.431354706 -2.685135453
C 2.052397113 -0.923628815 -0.611886875
O 1.658451256 -2.774459235 0.722959515
C 3.801471962 0.932393138 -0.770610075
O 5.769476684 1.030638600 0.856367830
H 5.621703843 -0.376627349 2.003160960
H 3.739220622 2.414193249 -2.165624703
H -2.967309131 -1.672382166 -4.301929643
H -1.633725021 -3.531680563 -1.471196026

