15

C 5.464362449 0.159432565 -0.338355368
C 3.097989060 -0.377457109 0.086603994
C 0.768861341 -0.879268117 0.528093641
C -1.338917087 -2.705108554 0.617908525
C -1.739392685 0.008618077 1.383384497
O -2.092715233 0.363178697 3.978265932
C -3.267548610 1.752076093 -0.267281767
H 6.088590350 0.810802508 -2.176752015
H 6.873472733 -0.048085404 1.133167864
H -1.157663231 1.831120445 4.487964204
H -1.307009024 -4.080258778 2.135080984
H -2.147567406 -3.351386121 -1.150539947
H -5.274388678 1.534963417 0.157181051
H -2.739308950 3.718614463 0.073156571
H -2.952703589 1.344484712 -2.262123945

