15

C -0.991139280 -0.995623128 -0.405651841
H -0.635300941 -2.186685870 1.244631943
H -0.431527370 -2.086551815 -2.063261413
C -3.797995168 -0.200304431 -0.478195423
H -4.555604172 -0.319294060 -2.392533491
H -4.951996847 -1.448684796 0.688137702
C -3.879176366 2.555830867 0.493379674
H -4.265452959 3.848140657 -1.070394054
H -5.360297461 2.858808711 1.894992583
C -1.232248227 3.077335071 1.546633667
H -1.097261254 2.411296601 3.500729343
H -0.747569646 5.082124597 1.545305832
C 0.481914234 1.478029786 -0.135260209
H 0.689644475 2.389536764 -1.981235545
H 2.374778588 1.211555896 0.639681610

