21

C -1.489454069 -1.542768610 -1.844167870
C -3.469853505 -0.686848739 0.018459468
C -3.120806936 2.101821766 0.662518175
C -0.408482292 2.592242904 1.455669432
C 1.510306365 1.912148386 -0.458826580
O 2.990303111 -1.773302366 0.208154977
C 4.796460142 -2.473458310 -1.599058146
H -1.560578579 -3.587093512 -2.155307006
H 1.094664430 -1.783273543 -0.674213180
H -1.672733674 -0.609955197 -3.677692841
H -5.401466165 -0.975669226 -0.677613496
H -3.317017879 -1.800717397 1.759002468
H -3.560161608 3.255818910 -1.000622890
H -4.414341627 2.694759601 2.158576931
H 0.044379670 1.632505448 3.230645093
H -0.116422738 4.618266168 1.827315349
H 1.093852793 2.266028063 -2.427039040
H 3.450858016 2.273798314 0.067543801
H 4.071603757 -2.209630812 -3.528913399
H 5.324834823 -4.460608094 -1.374058000
H 6.510338463 -1.335933607 -1.378193325

