11

O -1.622287132 2.316510244 -1.182382966
C -1.210746886 0.437368778 0.638830779
C -0.889623779 -2.260149767 -0.589526313
C 1.065927157 0.391976668 2.153553586
C 3.148305663 1.661748563 1.149739345
N 4.964364065 2.668545812 0.443710226
H -0.060128912 2.736656700 -2.012440385
H -2.911895898 0.358782325 1.799290446
H -2.372474615 -2.343852389 -2.015915251
H 0.931737100 -2.473829112 -1.533503150
H -1.134807674 -3.764731339 0.785491233

