11

O -1.375746224 2.614838340 -1.470196701
C -1.615341538 0.656376641 0.252705724
C -0.771219625 -1.974341654 -0.643187165
C 0.451153744 -0.089579878 1.961011602
C 2.846742904 0.913555214 1.213759298
N 4.766693516 1.847153467 0.769868471
H 0.359346899 3.158329281 -1.566907782
H -3.496343119 0.704205666 1.063823136
H -2.118366073 -3.479645971 -0.295844826
H 0.160671772 -1.937280081 -2.465884515
H 0.709222019 -2.571541106 0.957810294

