17

C 4.710046745 -1.418563582 -0.039146244
C 2.187243661 -0.409601860 0.668730461
O 0.553019865 -0.137978240 -1.152007791
C -1.884580911 0.346449708 -0.594458347
C -2.534172433 2.286533575 1.348766302
C -3.516455814 -0.090790928 -2.758458565
O -5.726257268 0.492274298 -2.852363573
H 5.986794451 0.088996274 -0.651779107
H 5.570328482 -2.334163140 1.593800324
H 4.536036474 -2.792877621 -1.562185451
H -0.076708311 -2.487919893 2.034875195
H 1.992225758 0.797973196 2.315301519
H -1.540230386 -2.206508927 1.436375895
H -4.548373816 2.680580873 1.181883341
H -2.146382906 1.686440745 3.283511505
H -1.498888375 4.047524659 0.998645386
H -2.584262855 -1.099345282 -4.340217667

