13

C -2.032896141 1.889246985 1.731908425
C -1.860214820 -0.315085035 -0.034882568
O -3.560071732 -0.971886127 -1.397717541
C 0.623939341 -1.828686308 -0.113027713
O 0.461212624 -3.766277834 -1.883213372
C 2.759211470 -0.120914655 -0.597500882
C 4.482909337 1.293055815 -0.973545779
H -4.006094360 2.319231336 2.115019141
H -1.149377973 3.520851487 0.827958973
H -1.009286906 1.533320565 3.484779733
H 0.871911017 -2.630287513 1.790335885
H -1.192443868 -3.593967825 -2.652486541
H 6.025921268 2.534339182 -1.328162335

