13

C -2.344052927 2.046373233 0.725379726
C -1.693008640 -0.636996592 0.047389966
O -3.336430148 -2.191837944 -0.826788892
C 0.858194629 -1.427966652 -0.630347477
O 0.819655384 -3.580172919 -1.766216856
C 3.158860540 -0.126151049 -0.143950058
C 5.076172962 1.025453381 0.190324919
H -3.926608492 2.059335564 2.039173395
H -2.928444192 3.017459722 -0.995765935
H -0.744585333 3.042924991 1.558155591
H -0.504816996 -1.496948402 1.960936599
H -1.186232224 -3.743675274 -1.871633830
H 6.791321727 2.038236715 0.481856654

