13

N -3.871766693 -1.261983559 0.322154822
C -1.522107289 0.120573597 0.046382629
C -0.454945177 2.435811357 -0.336851184
C 2.190984733 1.908727604 -0.356863497
C 2.473907234 -0.673029758 0.012788911
O 4.591906246 -2.113800154 0.142415279
N 0.198699864 -1.769928751 0.261276425
H -5.000102641 -1.319852907 -1.224552941
H -4.904250365 -0.869449252 1.886863530
H -1.364170518 4.244022161 -0.568469473
H 3.691956796 3.266622928 -0.619060635
H 6.027528178 -1.030535402 -0.064512359
H -2.099947536 -2.931586164 0.504265820

