11

C -3.721982635 -0.222632924 -0.228297095
C -0.914600402 -0.033678340 -0.594275138
O 0.167429413 1.595751655 0.805821738
C 2.864695283 -0.442111480 -0.313711034
O 4.428066141 0.109578226 1.600680174
H -4.161096689 -2.102144966 0.515119972
H -4.671089229 -0.084926994 -2.057110733
H -4.415053581 1.231412874 1.075576458
H 3.105156564 0.537832477 -2.090746119
H 2.693284103 -2.474683250 -0.428960725
H 4.608347903 1.914218827 1.745894364

