13

O 1.651869151 4.060983383 1.016050482
C 1.269946185 1.859002182 0.509010657
C 3.034435680 -0.206810342 0.287079483
O 1.114731413 -1.988740687 -2.406260046
C -0.944206836 -0.915314341 -2.375663963
C -2.273342833 -0.648720699 1.801481886
C -1.401046445 0.895179781 -0.280238240
H 2.889080139 -1.918331400 1.375376065
H 4.869988402 0.214694903 -0.515787574
H -2.370209495 -1.317778894 -3.807003341
H -1.312851547 -2.384989346 2.279588756
H -3.991945111 -0.183679943 2.797211991
H -2.656213856 2.461085744 -0.720641918

