13

C -3.486295180 1.154924943 0.529110786
C -0.989264218 0.284369408 -0.450091624
C -0.360607347 -0.136353283 -2.931606441
C 2.207863426 -0.916812686 -2.671776034
C 1.138261565 -0.218764655 1.371279687
N 3.113458452 -0.991500029 -0.337027571
H -4.790377245 1.384833332 -1.043855269
H -3.322837896 2.961116310 1.524116087
H -4.289875363 -0.199884231 1.869920000
H 3.484719602 -1.451328315 -4.191678807
H 0.702552042 -1.724500018 2.719398323
H 1.703224499 1.462256658 2.434109413
H 4.870679154 -1.499133171 0.175809612

