15

C 1.397899200 2.499322312 -0.164489321
C 2.240695358 -0.256210485 -0.250197207
C 0.155238544 -1.966833564 0.478514881
O -1.632370503 -1.183283212 2.336106780
C -2.437893721 -2.901252299 3.871237608
C -0.791200153 1.879798977 -2.011344457
C 0.061806025 -0.873099843 -2.090000981
H 0.877323929 3.219417437 1.694590076
H 2.784851368 3.763554134 -1.006684262
H 4.177386827 -0.911742966 -0.250988643
H 0.566328677 -3.962651465 0.662461408
H -3.768942273 -1.825386581 5.096972383
H -2.709225077 2.202672046 -1.330881405
H -0.561367787 2.818097717 -3.827371697
H 0.045794754 -2.078052866 -3.741712321

