15

C 1.397782207 2.155526120 0.459735482
C 2.575811093 -0.377950346 -0.211323821
C 0.716635623 -2.446607967 0.386785231
O -1.191774489 -1.981178494 2.174867070
C -2.754919977 -0.035443873 1.152998083
C -1.091778119 1.249891750 -0.800428838
C 0.374526030 -0.987551786 -1.972967162
H 1.297486259 2.661657741 2.460011189
H 2.265827449 3.694389554 -0.598108561
H 4.567567462 -0.761845544 -0.477676315
H 1.367533456 -4.383344732 0.360172464
H -3.317606813 1.218225533 2.692823917
H -4.452336555 -0.861854877 0.294054065
H -2.063221200 2.568479655 -2.040859334
H 0.308467611 -1.712392713 -3.880083472

