15

C -2.834227134 -0.164434122 0.187318800
C -1.927263758 -2.568058303 1.327380801
O -0.135358040 -3.458818525 -0.100369345
C 0.611377632 -1.900537966 -1.910562661
C 3.509146788 1.781377543 1.063565094
C 1.237986740 2.358514056 0.195154681
C -0.478569248 0.656845916 -1.349797507
H -4.387420002 -0.593519795 -1.138230006
H -3.494987675 1.246569819 1.532619401
H -2.831351009 -3.879971903 2.593749828
H 2.396252132 -2.376713403 -2.768980711
H 4.588816355 3.112874224 2.180603862
H 4.365908154 -0.045023519 0.700859565
H 0.440839260 4.207165245 0.621390856
H -1.054810144 1.679318897 -3.044332176

