15

C -2.980281345 -0.132873277 -0.367403463
C -1.547641439 -1.512575416 1.672465125
O 0.130454767 -3.052901744 0.431117205
C 1.053874276 -1.702528607 -1.427476665
C 3.321161784 1.339459949 0.756552515
C 0.758048045 1.719896305 0.932132884
C -0.485811189 0.714610101 -1.492921641
H -4.204661849 -1.328945532 -1.543714607
H -4.048096565 1.473519218 0.351373332
H -2.388155261 -2.455633714 3.283907043
H 2.129521957 -2.672918487 -2.865761013
H 4.590106471 1.611965429 2.345083753
H 4.221863667 1.174688587 -1.069755100
H -0.144923966 3.001948907 2.251418892
H -0.402940349 1.843165956 -3.210360924

