14

C 3.079238668 -1.092609844 -0.349137427
N 0.754974915 0.149277347 0.474889668
C 0.161341453 2.726618211 -0.640538052
O 1.571985590 4.494918226 -0.647678212
N -2.104387334 2.074066244 -1.411842696
C -1.945101128 -0.898937936 -0.376395423
N -3.302896334 -1.637940036 1.517515973
H 3.063466711 -1.245600087 -2.401037372
H 3.178998689 -2.967922744 0.491849884
H 4.699046725 0.038269694 0.229671493
H 0.599254321 0.198854954 2.395793156
H -3.429458171 3.253046323 -2.102723676
H -1.678836960 -1.993845461 -2.113189187
H -4.428275314 -3.105613953 1.046961053

