12

C 2.714997604 0.535271992 0.531306459
C 1.041601563 -1.637642272 1.212411602
O -0.917825541 -1.421906149 2.500710164
C -3.319837011 0.715032114 -0.352584685
O -1.311174869 2.051122455 -0.567015668
C 0.830572048 1.001935758 -1.533181651
H 4.581421441 0.025916876 -0.155698787
H 2.758691814 2.045572216 1.921724876
H 1.446317971 -3.415016620 0.204334612
H -3.477111603 -1.064672001 -1.355329283
H -4.959173025 1.699359631 0.373580808
H 0.501941929 -0.386379167 -3.011744227

