9

O 1.437913490 -2.268178722 -2.391758477
C 2.345888002 -1.529359604 -0.142367053
C 2.544381773 -3.022798974 1.869982644
H 3.302098189 -2.263576351 3.608741478
H 1.970279688 -4.983441833 1.821400280
C 3.143899389 1.147005970 -0.027703177
O 2.966008527 2.503313262 -1.850832991
H 3.899745147 1.823876898 1.792894404
H 1.514316307 -0.805217007 -3.490923894

