9

N -1.362913907 1.550760016 0.041613262
C 1.212868594 1.343746793 -0.097266471
C 1.753128859 -1.142815370 0.126716644
N -0.475451824 -2.435326850 0.603389665
C -2.457396923 -0.725603318 0.548411371
H -2.344318055 3.166709441 -0.118054139
H 2.434076626 2.963836419 -0.283148607
H 3.559208676 -2.081661733 0.077294523
H -2.289138393 -2.672012628 -0.897956621

