11

O -0.574674275 0.723375066 -2.278345600
C -2.554959930 -0.538868992 -1.145042015
C -2.389061460 -2.190444403 0.713507105
C 2.827553585 1.404936257 1.373896050
C 1.500848815 1.181392201 -0.970801651
N 3.670846760 1.975061942 -1.368014712
H -4.308366088 -0.022911682 -2.059463895
H -0.616859557 -2.727983084 1.574003194
H -4.103004920 -3.052978580 1.411649868
H 3.670022291 -0.240586986 2.267692193
H 2.533524313 3.025541590 2.599504668

