11

N -3.880827533 -0.914611363 -0.241566506
C -2.062596532 0.517538821 0.754321221
O -0.893277092 1.954880952 -0.854991977
C 1.425791823 0.150277069 0.846965819
C 3.301014772 0.501031270 -1.297499393
O 4.518150311 -1.228966963 -2.105942049
H -4.969855685 -1.994711371 0.871473413
H -4.289913517 -0.796725579 -2.109644079
H 1.327822921 -1.861711596 1.284155602
H 1.847008355 1.296264174 2.490581327
H 3.520112736 2.448207828 -2.012439761

