12

C 2.247035654 -1.080309485 0.472602230
C -0.012746259 0.063211282 -0.854796296
C -2.482028426 -0.130075481 0.543593231
C 0.139838467 3.207209938 -2.243637907
N 1.121575169 3.561144965 -0.278216081
H 1.963807263 -3.127484680 0.529999600
H 3.989689780 -0.703354174 -0.553445281
H 2.448408535 -0.385406809 2.397638511
H -0.152331730 -0.724508600 -2.745994820
H -2.898589505 -2.130646344 0.855798210
H -2.369548601 0.805471440 2.374431805
H -4.028412989 0.701808208 -0.528462043

