12

O -3.045399210 -1.241809750 -1.762193044
C -1.668141904 -1.171774081 0.915532472
C 0.873011064 -0.468821096 0.032320458
C 1.619546444 2.120101918 0.275018608
C 2.158511188 4.319539490 0.425946971
C 2.774651685 -2.382510403 0.104776205
N 4.254180686 -3.978556307 0.113741368
H -4.134069958 0.211096694 -1.987633988
H -2.686464705 0.221955382 2.027150542
H -1.900791605 -3.085020209 1.610967352
H -1.022222006 -0.766319470 -2.282907720
H 2.676212714 6.256010088 0.581345821

