11

C -1.580740880 -0.663214331 -0.496527278
C 0.226165767 1.484504820 -1.058106714
C 2.540946005 0.909968136 0.600004599
O 4.436031015 2.140327959 0.634216106
C 2.056551222 -1.470505029 2.190809366
N -0.181148277 -2.135275153 1.441908938
H -1.021295057 -3.684834494 2.173952688
H -1.960154044 -1.872381103 -2.122412279
H -3.384691277 -0.047994527 0.287780590
H -0.524095377 3.330031989 -0.535089388
H 0.806928721 1.578368707 -3.030673179

