11

C -1.921704070 -0.494394968 -0.730684962
C -0.034938372 1.449943316 -0.967330640
C 2.564196005 1.035661020 0.619025788
O 4.254503602 2.472189945 0.605107936
C 2.447484800 -1.530624890 2.130727981
N 0.552202068 -2.753370553 1.910006136
H -1.159451555 -3.446467634 1.450218763
H -2.227289546 -1.756030439 -2.316678921
H -3.593856332 -0.097386601 0.386045423
H -0.627121242 3.294289879 -0.261792925
H 0.710951969 1.682116315 -2.875221209

