8

O -0.978066533 -2.143411785 0.319775052
C -2.497303971 0.007505860 0.508563132
C -1.656444839 2.330089797 0.222415889
O -1.012854785 4.405904340 -0.012701208
C 1.390926357 -1.758254325 -0.194310352
C 3.573474766 -1.421929014 -0.667911945
H -4.454956622 -0.360938124 0.915751548
H 5.518521810 -1.146657580 -1.086863471

