8

O -1.128114831 -2.212653655 0.315155371
C -2.588652179 -0.190204166 0.730059443
C -0.901412230 1.748212510 -0.107897674
O -0.558165495 3.963044811 0.005822171
C 1.034571763 -0.750316948 -0.459376339
C 3.325129831 -1.261195676 -0.604438746
H -4.597052443 -0.425961975 1.026256590
H 5.296991787 -0.958615752 -0.900862169

