15

C -2.343825007 -1.955546911 0.293900241
C -0.699259496 0.357091738 0.259132796
O -1.998727455 2.702969573 -0.118015381
C -0.897771484 2.230057844 2.288881938
C 3.034500347 -1.869511082 -1.602850865
C 1.740188355 0.238278099 -1.190704979
O 2.582562631 2.509324405 -2.007791848
H -4.109505748 -1.543775437 1.269532297
H -2.770303104 -2.566237646 -1.627210814
H -1.403224524 -3.504503825 1.275226268
H 1.170066033 3.666126413 -1.908808163
H 0.722180854 3.399861621 2.756154309
H -2.241462965 1.914198135 3.806956514
H 4.798202941 -1.817773480 -2.632122191
H 2.366064683 -3.663121389 -0.899708019

