15

C -2.642704979 -1.683306559 -0.151927555
C -0.813628839 0.478889009 0.018517445
O -1.910598735 2.874349421 -0.588742058
C -0.101422773 1.492487816 2.436552261
C 3.322143346 -1.553996399 -0.673686759
C 1.723624981 0.330051288 -1.437011353
O 2.057265860 2.218440545 -2.840309690
H -4.344367506 -1.301777601 0.949604139
H -3.176423994 -1.962041673 -2.120614053
H -1.773093797 -3.420333704 0.534820329
H -0.507919567 3.471012039 -1.799153252
H 1.395112799 2.885676081 2.458098484
H -1.092394737 1.081987032 4.192691757
H 5.217024492 -1.687195237 -1.427889834
H 2.597067621 -3.126802054 0.411622223

