11

C 0.232133126 -1.291151066 1.692878211
H -0.960285382 -1.128388105 3.373451810
H 1.584629445 -2.821917099 1.934455281
C -1.424642245 -1.844443354 -0.640986749
H -0.276457597 -2.289295353 -2.293506022
H -2.664731967 -3.432745784 -0.227214490
O -3.067245597 0.216472474 -1.342740646
C -2.621085132 2.373338031 -0.098074065
H -4.186466829 3.688618954 -0.077983970
N -0.454959898 2.837426044 0.848036463
C 1.398694756 1.188415538 0.877461653

