13

C 0.973325834 -1.364099200 0.701069476
C -1.727958841 -1.933489517 -0.165566238
O -3.282283088 0.288491240 -0.277275470
C -2.042847288 2.506277392 -0.306660674
N 0.302717250 2.754335599 -0.744361458
C 1.713940588 0.673204482 -1.156333620
H 0.920875143 -0.734883857 2.670033971
H 2.117651662 -3.069770649 0.551062090
H -1.744450991 -2.798117416 -2.038995516
H -2.650446355 -3.204158295 1.165780852
H -3.289827442 4.103256821 -0.013051941
H 4.825742960 1.636225110 0.430031519
H 4.380910009 1.234638863 -1.001844560

