13

O 1.435083171 -0.846537097 -2.630745129
C 3.571392420 -0.902317069 -1.237807745
N 3.877750643 -0.976629793 1.116137501
C -1.608241025 1.445353965 -0.040953275
C -2.629081584 1.563222231 2.237216561
C -0.929495205 -0.970386440 -1.355536737
H 5.192721726 -0.887198807 -2.502329357
H 2.233692222 -0.927940489 2.105327813
H -1.270095284 3.159432768 -1.119331290
H -2.972905725 -0.125377678 3.350784092
H -3.172093838 3.348751313 3.075116192
H -2.289675509 -1.358641954 -2.855850495
H -0.959490544 -2.571542239 -0.044157325

