10

C -2.495507994 1.229744019 0.388786848
C -3.229681881 -1.419461864 -0.313284050
H -1.672951786 -2.724967044 0.041792900
H -4.833696666 -2.051890478 0.819122916
H -3.741283618 -1.520005403 -2.304265499
C -2.497110179 3.188339908 -1.182212323
H -3.053382226 2.952240587 -3.137804228
H -1.947220173 5.058018684 -0.564453899
C -1.743640166 1.610591769 2.978317353
N -1.153056117 1.853501511 5.052980353

