18

C 4.149104827 -0.581885999 -0.345680740
C 2.375783337 -1.298195039 1.381639902
C -1.796222136 0.606285330 0.274535594
C -3.195334143 -1.882020917 0.197186950
C -1.383452376 2.014317998 -1.879345292
C -1.817343453 1.920018510 2.643519054
N -1.861502403 2.947634607 4.560320513
H 5.489369402 0.901312377 0.106457570
H 2.739641712 1.079715770 -2.227433676
H 4.726397846 -1.880388478 -1.823621256
H 2.216623497 -0.344418233 3.180409710
H 1.446736111 -3.110465334 1.215266222
H -2.787341895 -3.048220269 1.844376666
H -5.235583152 -1.558977943 0.158195720
H -2.684527094 -2.941856051 -1.495443159
H -2.098705645 1.298368270 -3.663305505
H -1.219906974 4.050432683 -1.741324118
H 1.304645770 1.743138727 -2.680549504

