16

C 4.544671559 2.381045223 -0.799490438
C -0.155574991 2.122418288 -0.673007572
N 2.266163934 1.454521234 -0.435614829
C 1.607707971 -1.089407477 0.515332509
C -1.167822135 -0.330163443 0.220097271
C -3.314231894 -0.951864025 1.942460463
C -3.283269298 -1.935344227 -0.738529158
H 4.746391772 4.274093618 -1.523423068
H 6.138825110 1.195564146 -0.358726106
H -0.885804264 3.896322928 -1.359311352
H 2.277640146 -1.378038878 2.441087226
H 2.287891306 -2.570426923 -0.743506697
H -4.633510116 0.543207198 2.400286433
H -2.998007883 -2.297200078 3.453440572
H -2.943501190 -3.935575620 -1.017541362
H -4.579295423 -1.102303327 -2.084787359

