15

C 3.112317133 -0.842179162 0.253118856
C 0.599881691 0.203673869 1.152104753
C -0.539493697 2.274841537 -0.498041534
O -2.542536474 0.545246458 -1.450410343
C -3.005959567 3.186395380 0.373335351
C -1.742658246 -1.379984729 0.449457035
O -1.456760541 -3.695616326 -0.622320280
H 4.614839905 0.521063709 0.617908015
H 3.126743170 -1.206499537 -1.783719972
H 3.599678842 -2.590824324 1.231426574
H 0.660479765 0.704966016 3.146677872
H 0.608014959 3.138766118 -1.977771054
H -3.721944595 4.416041851 -1.142865561
H -3.217087083 -1.495707381 1.871973735
H -0.010369872 -3.708016728 -1.721934092

