15

C 3.035530512 -0.923145404 0.119032299
C 0.585589730 0.189680636 1.136418420
C -0.501217710 2.280101703 -0.490297512
O -1.956112147 0.980395753 -2.340685359
C -3.253336320 2.555154081 -0.160225513
C -1.648013920 -1.559446520 0.896865153
O -1.560940859 -3.682851736 -0.257154120
H 4.554561214 0.443742730 0.369306644
H 2.907668505 -1.283305358 -1.915141070
H 3.603311973 -2.656656033 1.088401084
H 0.767932219 0.729338588 3.126896143
H 0.791013259 3.714298782 -1.214759114
H -3.879285044 4.293702304 -1.098623161
H -3.334524359 -1.251232907 2.004795120
H -0.067382985 -3.791725094 -1.316284367

