13

N -2.733565770 -1.413959548 -0.871849771
C -1.281876045 0.582080338 -2.436792559
O -1.936911830 1.035588776 -4.549041475
C 0.067066739 1.901101539 -0.478023628
C 2.208601969 0.645495144 0.935960279
O 1.496315665 -1.778999947 1.901283973
H -1.670489000 -2.931572596 -0.379265255
H -4.431501946 -1.870003336 -1.622096024
H -2.262111265 0.423576650 0.552653769
H 0.582329650 3.816090902 -1.019444146
H 3.875044329 0.403065298 -0.282620145
H 2.752833777 1.891291782 2.496909679
H 2.956492377 -2.543207648 2.647845431

