14

C -4.589951702 0.735393044 -0.752751218
C -2.237677862 1.455398351 -1.200799178
C -0.154599477 1.504229894 0.728150801
C 2.109327739 -0.015886984 -0.064180598
C 2.928290709 -2.022898432 1.190853965
O 4.938834186 -3.495131048 0.589510647
H -5.182234237 0.107551268 1.107765864
H -6.011859760 0.743358429 -2.225082233
H 5.707169409 -2.873972345 -0.933571420
H -1.721021562 2.060266008 -3.097318887
H -0.870697454 0.808269652 2.536299773
H 0.416732893 3.472598710 1.034934401
H 3.087495373 0.574145492 -1.775524570
H 2.015025303 -2.696003174 2.897813999

