14

C -2.316477797 -1.145011742 -1.123627639
C -1.165816946 1.217305086 -0.953924469
C 0.082715278 2.510174404 1.243297928
C 2.231784921 0.889382990 0.378344165
C 2.235998236 -1.575261317 1.215800882
O 1.955066297 -3.378380235 -0.411841583
H -2.951862907 -2.079336690 0.595805514
H -3.442123683 -1.502371065 -2.797221346
H 0.031611301 -2.750348730 -1.303771470
H -0.959938390 2.233037526 -2.726301663
H -0.663660495 1.946956839 3.075628800
H 0.271009403 4.548728668 1.073096702
H 3.070277851 1.285918282 -1.448922392
H 1.824048466 -2.007040417 3.200037521

