12

O -1.446291477 1.826312566 -2.711670326
C -0.059740649 2.078669843 -0.500645898
C -0.467448248 0.251314810 1.612712816
C -0.363127580 -2.329596635 0.371138091
O 1.819184557 -1.804278983 -1.137264999
C 2.435971983 0.662414316 -0.265234797
H -0.574034640 0.650219327 -3.791129018
H 0.059093285 4.038757274 0.098694424
H -1.377196778 0.726430546 3.387247434
H 0.094362113 -3.866279514 1.667725616
H -2.044177825 -2.821767074 -0.729058928
H 1.946854832 0.372185812 2.225040734

