17

C 4.002052519 0.685110909 -0.786575653
C 1.153552699 0.474987424 -0.711546609
C 0.223399964 -2.111879323 0.135339539
C -2.661539558 -2.110178343 0.297983599
C -3.962492029 0.176116862 1.202719367
C -2.402090158 2.441716524 1.180381519
O 0.261244905 2.346342273 0.983054144
H 4.789347477 0.325203366 1.086019141
H 4.794180565 -0.685117070 -2.109368028
H 4.570552775 2.575998573 -1.374894279
H 0.882398675 -3.575053141 -1.165651009
H 1.041494132 -2.524555938 1.988071176
H -3.447570799 -3.798126107 1.192738703
H -3.504773036 -2.183875772 -1.617611591
H 0.386342639 0.873715044 -2.610142050
H -2.845945893 3.671512642 2.777815124
H -3.261233032 3.416413467 -0.479954890

