17

C 3.767245620 0.797142170 -0.970308810
C 1.087522796 0.315618901 -0.174463182
C 0.269132433 -2.384565934 0.349128375
C -2.587386554 -2.030106357 0.059727742
C -2.722962441 0.613656490 -1.128355658
C -2.225337176 2.539032430 0.951706346
O 0.317374079 2.021007685 1.705473198
H 4.984122305 0.408858045 0.655862635
H 4.325619023 -0.443898046 -2.515731106
H 4.040188421 2.760832987 -1.523161303
H 1.011804248 -3.640226280 -1.110533292
H 0.949248852 -3.052624445 2.181412571
H -3.570742600 -2.036788032 1.879260613
H -3.460474813 -3.471013986 -1.124522065
H -0.306719765 0.803872883 -2.057474013
H -3.559840468 2.298383897 2.517745970
H -2.318792107 4.500819500 0.304230089

