16

C 1.921695623 1.284242379 -2.570692014
O 1.696330703 -0.998611994 2.571529522
C -0.651196089 -0.171569406 3.600812281
C -0.366470865 -0.576146598 0.895689913
N -0.195612297 1.519361366 -0.829126030
O 0.184902690 3.813191400 0.501853603
C -1.423018120 -2.920107136 -0.326045106
H 3.733266625 1.294931709 -1.571844730
H 1.736392235 -0.470182341 -3.630754500
H 1.858417709 2.856222148 -3.895633613
H -0.638138573 1.732349279 4.350713414
H -1.663705413 -1.575682971 4.708663447
H -1.310704818 4.766976597 0.124585297
H -3.273572660 -2.527551381 -1.141520076
H -1.604780180 -4.410436054 1.081406017
H -0.183236028 -3.611450098 -1.819908190

