16

C 3.185008944 1.387085148 -1.352104239
O 1.897665771 -1.204405267 0.955946117
C 0.265589536 -0.074952869 2.822451495
C -0.905888897 -0.664129129 0.400632294
N -1.035662910 1.164636434 -1.450091981
O -1.432970268 3.596419235 -0.327069413
C -2.340056591 -3.070980999 -0.040863362
H 4.939196749 0.877378448 -0.421296204
H 3.047678541 0.735298520 -3.280038906
H 2.574144354 3.314592964 -1.032407838
H 0.651325025 1.889149531 3.252493124
H -0.036573344 -1.288306291 4.449718547
H -2.714167920 4.309109941 -1.389213150
H -4.351534689 -2.711081374 0.232051735
H -1.747197122 -4.575580694 1.234863835
H -2.064084672 -3.677339859 -1.990502838

