10

O -3.299165240 1.206853332 -0.679667062
C -1.799324197 -0.976463308 -0.602800259
C 0.928085752 -0.456313622 -0.225373027
C 3.214949274 -1.855582364 -0.029232910
C 3.483571083 -0.290551250 2.257428146
C 2.450321978 1.518071363 0.546185728
H -3.406938078 1.916810870 0.985059087
H -2.016467656 -1.939639102 -2.415460046
H -2.409623721 -2.313305136 0.862378501
H 2.899277120 3.404661714 -0.086781666

