13

C -3.304180195 -0.483382475 -0.601080987
C -0.995613736 0.054548570 0.995551073
O 0.697324795 -2.147284608 0.924480873
C 2.839605673 -1.244969391 0.139210454
O 4.904282774 -2.359570394 -0.232965248
C 3.016060154 1.400139074 -0.425288061
C 0.673242541 2.207819150 0.100078781
H -4.316014943 -2.132812160 0.104436621
H -4.574503909 1.139254275 -0.528109137
H -2.769473703 -0.806888527 -2.564990389
H -1.522631594 0.274993683 2.982696661
H 5.444716081 -0.132876640 -0.825264091
H -0.100714881 4.100266102 -0.038579515

