13

C -3.592124416 -0.499666925 -0.567470544
C -0.837795829 -0.345196933 -0.043652125
O 0.495612272 -2.385556736 0.165185590
C 3.334965912 -1.669592004 0.229463699
O 4.789843625 -3.372394055 0.381581134
C 3.288762127 0.972396051 0.152125334
C 0.763914832 1.824871971 0.046551551
H -4.500918031 -1.870914298 0.669939092
H -4.490516052 1.339126016 -0.347244489
H -3.849588489 -1.127910495 -2.516464603
H -0.452046923 1.349678832 2.074525201
H 4.958014472 2.118972996 0.309621440
H 0.089860162 3.690723674 -0.449241776

