10

C -0.615490356 2.989202686 2.325357280
C 0.385359471 3.884454069 0.206523557
C 1.809096481 2.377032162 -1.640234844
C 3.394323155 0.520346973 -1.064084107
H 3.798917751 0.024654595 0.882983073
H 4.362427921 -0.541923753 -2.520702163
H 1.537067854 2.875917478 -3.614293890
H 0.121760912 5.868457590 -0.256013292
H -0.487819476 1.002562467 2.812355614
H -1.625191471 4.207536746 3.622734654

