9

N -1.483402032 -1.195256725 1.425643082
C 0.210851276 0.492092034 0.486177399
C 2.342377760 -1.298357045 -1.986347311
N 3.697010849 -0.855459552 -0.269224387
C -0.778028705 2.261090529 -1.365668239
N -1.634994274 3.723886383 -2.712958552
H -0.882646589 -2.244748650 2.892800669
H -2.533342730 -2.154611965 0.160241387
H 1.297386784 1.459816039 1.923946022

