12

O 0.344829872 2.194761048 -3.908680792
C 0.934004129 3.043453000 -1.696082808
C -0.752314729 0.409141088 1.955839535
C -0.987361340 -2.177788624 0.674336938
O 1.027963731 -1.615512483 -1.073304156
C 1.404819170 0.856841093 0.059214681
H 0.359508112 0.322715201 -3.894241773
H -2.358724175 1.669729897 1.706648380
H -0.194925061 0.384054256 3.932264518
H -0.500757335 -3.799718674 1.851541052
H -2.767264916 -2.544550298 -0.303781128
H 3.297625434 1.039990666 0.866583595

