16

C -2.379225624 -2.022124135 -0.534557657
C -0.082154596 0.773374838 -0.431493090
C -1.682315284 2.844094358 0.661571252
C 2.289715572 0.151871298 0.930574654
C 4.070979977 -1.323888927 -0.387985415
O 3.695757073 -2.271196634 -2.487148148
H -3.537171521 -1.236105838 -2.028726952
H -3.443995041 -2.227288280 1.215444782
H -1.517973457 -3.782803546 -1.172176574
H 0.207450373 0.766603364 -2.464221915
H -0.615771075 4.600800695 0.489898326
H -3.479246578 3.061327674 -0.319924586
H -2.046642746 2.526751384 2.665394713
H 2.583468906 0.871445407 2.818235591
H -0.130954846 -1.386126830 0.545204525
H 5.896799740 -1.638259098 0.585303417

