12

C 2.504192438 3.229563565 -1.133844197
C 1.662532649 1.138419546 -0.712657050
C 2.853383666 -2.097448354 -0.336841622
N 0.414622163 -3.123807046 0.258266791
C -0.631892442 -0.741763802 -0.664471660
C -2.593649087 0.293674155 0.958547174
C -4.220270760 1.092121048 2.307792257
H 3.412616422 5.007295903 -1.393149544
H 3.124206213 -2.441189007 -2.380728278
H 0.211636948 -3.125165910 2.165861013
H -1.276538570 -0.948862875 -2.607647177
H -5.670455621 1.809432436 3.503783859

