13

C 2.233404662 -0.994827704 0.950869198
C 1.045605496 1.361091134 -0.047499759
C 0.762053867 -1.081384569 -1.488899189
C -1.956510482 -1.696351924 -1.131386779
N -3.231363265 -0.155480429 0.186740808
C -1.596781631 1.966504771 0.904693759
H 4.266971505 -1.156933835 0.806968727
H 1.410655249 -1.894219232 2.597107343
H 2.251088606 2.861171000 -0.734150927
H 1.718974856 -1.500935213 -3.245398110
H -2.834402746 -3.385421562 -1.905406770
H -1.678197665 2.217407110 2.953165060
H -2.352073076 3.689057748 0.051002159

