13

C 2.352264788 -0.896873789 1.089603044
C 1.285036989 1.337938361 -0.268764182
C 0.925041612 -1.290208206 -1.305321744
C -1.982308551 -0.998727910 -0.811608968
N -2.867631426 -0.938106970 1.644079397
C -1.587682505 1.641792073 0.189625740
H 4.382833259 -1.088393695 0.936328095
H 1.533559918 -1.513366588 2.860875882
H 2.427169015 2.875792246 -0.972393745
H 1.737364839 -2.112706721 -2.987857333
H -3.297394151 -1.316570982 -2.357783998
H -2.096282544 1.197588156 2.411756636
H -2.784774343 3.160482208 -0.463922038

