19

C -4.051615481 -0.855436762 -0.418701326
C -2.176547149 1.152726076 0.451111358
C -0.035564513 -0.028207091 2.041859018
C 2.122429796 -0.318328920 0.201818536
C 4.411320181 -1.837207555 0.837128529
C 1.687226550 0.988988923 -1.895443000
C -0.798375424 2.362418136 -1.823893925
H -3.087450133 -2.320692000 -1.512376787
H -4.970672292 -1.765496550 1.190253524
H -5.524384421 -0.038403525 -1.611988503
H -3.195966521 2.582811149 1.535340115
H 0.533654916 1.199646445 3.610475245
H -0.600580417 -1.831501225 2.885381302
H -0.500234221 4.393001762 -1.547696902
H 3.908788355 -3.806063618 1.215345307
H 5.318325056 -1.112957697 2.547723394
H 5.792933363 -1.802921952 -0.691100472
H 2.990669907 1.120950558 -3.471030351
H -1.880811852 2.163133836 -3.574298932

