12

O -0.571010039 0.468636092 3.927202168
C -2.272716880 -0.198322543 0.720429153
C -0.984212357 1.740828348 -0.961227070
C 1.389715345 0.004477234 -1.215307721
C -0.482868640 -2.134442483 -0.418520933
C 2.898117301 0.538075855 1.202486590
N 1.579778310 0.617274144 2.995794164
H -2.006281295 1.720242409 -2.760045104
H -0.807749221 3.687640038 -0.320763605
H 2.459764637 -0.100417873 -2.968831627
H 0.150211986 -3.726982151 0.719006643
H -1.412536320 -2.857943481 -2.119423979

