16

C 1.317720899 -2.795274739 0.501211550
C 0.281247977 -0.528688772 1.851197859
N 1.433669429 1.868775392 1.398577480
C 0.117840392 4.054009783 1.148552446
O 1.058371125 6.126784890 0.987652074
C -1.237788772 -1.800689581 -0.197280151
C -1.665778367 -0.585859791 -2.734277970
H -1.946086979 3.737767158 1.081597257
H 1.471313870 -4.547914291 1.540654819
H 2.830894564 -2.450347886 -0.834126774
H -0.358407800 -0.837375100 3.775923356
H 3.319853130 2.047700520 1.593812739
H -2.829576991 -2.881234487 0.507965185
H -0.038448972 0.534090328 -3.320718039
H -3.313798523 0.656506654 -2.703729168
H -1.993011714 -2.027915617 -4.172523484

