17

C -3.827614527 -0.747148955 1.118381154
C -2.633827480 0.736057358 -0.996702313
O -2.204397253 3.050479172 -0.713759365
C 0.932013227 -1.404854696 -0.972171306
C 2.886956748 0.304722873 -1.194461226
C 3.631524601 -0.478539901 1.446311451
O 1.439206459 -2.112392176 1.534918423
H -5.768676593 -0.080128658 1.349788644
H -3.872200140 -2.768770253 0.719899066
H -2.815692379 -0.436802918 2.883244211
H -2.992550619 0.057982599 -2.928780148
H 0.381104186 3.590327098 -0.687030512
H 0.096138626 -2.749328750 -2.259721328
H 4.011859215 0.871969315 -2.796785858
H 1.911442460 3.081310809 -0.793099497
H 3.608108249 0.938164682 2.940217413
H 5.359271944 -1.602258246 1.511226397

