17

C -3.561743989 1.830148011 -0.813224797
C -2.696195245 -0.763568898 0.057536170
N -0.069222029 -1.281084608 -0.610193473
C 1.647357297 -3.241035715 0.711482944
C 2.002453730 -0.474248182 1.066495851
C 4.186799156 0.884483024 -0.146587473
H -5.538045516 2.132285247 -0.311169730
H -2.439657516 3.320355646 0.066039446
H -3.401013843 2.024119856 -2.862108815
H -2.835882685 -0.955965921 2.105271631
H -3.857850939 -2.254116268 -0.774896068
H 0.467480524 -3.980887303 2.248541331
H 0.287300373 -1.124687284 -2.479725795
H 1.232789766 0.510537575 2.710175855
H 5.783251086 0.891785928 1.159675261
H 3.737373736 2.845658352 -0.622497272
H 4.791512423 -0.125169449 -1.840337811

