13

C -2.799506837 -0.059718785 -0.373906672
C -0.258880271 -0.106007532 0.952577472
N 1.585242623 -1.656766244 -0.397447576
C 3.003066850 -0.692198554 -2.155103785
C 0.840243308 2.527999378 1.339238416
O -0.436104381 4.393632798 1.429887785
H -3.597371165 -1.956937371 -0.501975623
H -2.567455442 0.700246954 -2.275551318
H -4.108178801 1.147943028 0.657141507
H -0.470160780 -0.903008236 2.857965345
H 1.593422208 -3.513816812 0.097507714
H 4.174983001 -2.233207054 -2.927627320
H 2.904510943 2.582277282 1.648749081

