13

O -4.721259379 -1.028622792 1.875428400
C -3.628660703 -0.566426546 -0.168561000
C -2.156288359 1.816643934 -0.187136649
C -0.753164407 -0.328128454 1.179817398
C 4.660444212 0.743746805 0.384976045
O 4.016393254 0.875059376 -1.785090232
C -1.531517350 -2.317528674 -0.787808340
H -2.824414221 3.386101561 0.940700865
H -1.195450875 2.308834120 -1.937358826
H 4.512015220 2.372883987 1.681080348
H 5.440019337 -1.014165423 1.198947360
H -0.546064464 -2.003965795 -2.565365859
H -1.668781368 -4.262382588 -0.170872475

