16

C 5.395416622 0.821309858 0.007636024
C 2.607879348 0.567013835 0.233381668
C 1.642688370 -1.612657409 -0.910218052
C -0.909992759 -2.142089052 -0.888740861
N -2.701843353 -0.901459889 0.366580903
C -5.098962624 0.124907798 -0.374451386
C -3.095592377 1.705096934 0.874752560
H 5.908270057 2.749495991 -0.530650686
H 6.366908817 -0.534539213 -1.239318259
H 6.158660545 0.605543083 1.924324194
H -1.619898934 -3.791106965 -1.894302437
H 2.812707065 -2.991382485 -1.923645783
H -6.721451560 -0.497922803 0.709180634
H -5.421261670 0.400562488 -2.380341243
H -2.006685545 3.016851703 -0.255553163
H -3.302553783 2.210912537 2.847416043

