11

C -3.016066087 -0.047156188 -0.282644560
C -0.336894307 0.290993219 0.575185276
O 0.179537588 1.225349971 2.661630378
C 1.669988336 -0.543274964 -1.000264806
O 4.143662245 0.366024606 0.340075831
H -4.036132218 -1.175122468 1.107395874
H -3.129080062 -0.966374627 -2.122133941
H -3.923341854 1.801648465 -0.377728719
H 1.774077116 -0.205307613 -3.009882941
H 3.560112286 -1.667249764 0.238016221
H 3.265328276 1.078611093 1.875909033

