12

C -1.947841874 1.623368641 0.090978030
C -1.866226511 -0.929239903 0.721149233
O -1.239186035 -2.799965814 -1.027853598
C 0.962419374 -2.591548127 0.441511587
C 2.785034351 -0.914731606 -0.264775008
C 2.988094928 1.436906039 -0.623375767
H 0.845614344 2.239483571 0.192339254
H -2.884184955 2.868309044 1.419883462
H -2.118795154 2.124451954 -1.886966028
H -2.678993919 -1.616635547 2.475928598
H 1.221396059 -4.051111510 1.853869743
H 4.139116301 2.730739212 -1.689770386

