16

O -1.149908287 0.735170831 -2.053947690
C -2.761104560 -0.549596003 -0.459649386
C -1.199057777 -2.451880378 1.075996052
C 1.087958076 -1.029133415 2.047069106
C 2.471596439 0.347691012 0.059160087
O 0.973989411 4.129722189 -0.135620126
H -0.335874555 2.874092721 -1.146515775
H -3.752765631 0.729237526 0.855170632
H -4.215981327 -1.565662302 -1.536400837
H -0.591676235 -3.987492765 -0.167198508
H -2.281233423 -3.282838554 2.624230657
H 2.507283255 -2.331113348 2.837265493
H 0.606204072 0.283402473 3.566739140
H 2.780509269 -0.567262486 -1.739763960
H 3.985233919 1.553432429 0.701828182
H 1.822228717 5.139704779 -1.382636979

