9

N -3.464772844 -0.278655140 2.308246113
C -2.249864309 0.087364080 0.340689350
O -2.562894872 0.633637113 -2.166057922
C -0.044857563 0.347668241 -1.151946545
C 2.265312650 -0.561220634 -2.244502721
H 3.599360726 -1.625697691 -1.111527458
H 2.364252285 -0.796368913 -4.278285220
O 1.853258379 2.037674238 -1.422384684
H -5.360840511 -0.140466404 2.017863237

