11

N -2.872437680 -0.184417692 2.480843625
C -2.262389773 0.154486906 0.161037698
O -3.215988208 0.344538722 -1.967049333
C 0.590249511 0.318099564 -0.280672782
C 2.555801520 -0.568780522 -1.943611741
O 2.022423373 2.060975298 -1.171889146
H 0.169763112 -0.365588589 3.292953143
H -4.752438083 -0.369864454 2.770879282
H 1.661504600 -0.323599253 2.843053346
H 4.275976862 -1.339351592 -1.151612669
H 2.074863991 -0.960790014 -3.892791994

