15

C 3.519367617 0.199108366 0.507039994
C 1.422207296 -0.580483406 -1.303009060
O -0.224318088 -2.362531519 0.051101067
C -2.382295220 -1.286716427 0.630979799
N -4.334506764 -2.143610981 1.651650698
C -0.420185687 1.404927432 -2.257273679
N -2.259897111 1.404408702 -0.061304322
H 2.780017733 1.257599319 2.122379435
H 4.844102462 1.418589944 -0.497705352
H 4.554853781 -1.434718038 1.227070907
H 2.228625224 -1.664670080 -2.860624624
H -4.164777157 -4.018392565 2.019385185
H 0.454192802 3.275229043 -2.327387923
H -4.018741503 1.952160219 -0.593701001
H -1.804360752 2.407227548 1.544616289

