15

C 3.710405625 0.435531907 0.482159350
C 1.459790490 -0.749202350 -0.832150064
O -0.035930837 -2.241723539 0.902104702
C -2.367200881 -1.176778057 0.280855330
N -4.580756994 -2.081356448 0.617031617
C -0.730346039 0.799686988 -1.713435596
N -2.039277727 1.654307483 0.626858457
H 3.141417574 1.716435064 1.998494754
H 4.837071395 1.503358466 -0.875534548
H 4.907256145 -1.020959914 1.316261066
H 2.094667679 -1.952130815 -2.388675238
H -4.587107645 -3.969842629 0.321826973
H -0.764113706 2.056568589 -3.325480489
H -3.756218331 2.435325300 0.321506891
H -1.095374003 2.418907454 2.121397987

