10

C 2.693340436 -0.016921931 -0.467504543
O 0.336516646 1.245987330 -0.710718871
C -1.795353958 0.311493818 1.297299309
O -1.398638027 0.485092564 3.484419174
N -3.311368260 -0.398069807 -0.496864367
H 3.392779551 0.295071607 1.445181830
H 4.006994871 0.791663306 -1.829065992
H 2.482110969 -2.044927819 -0.805511785
H -1.327723975 0.355576896 -1.879833163
H -5.048666429 -1.036413925 -0.053556879

