11

C 4.965831834 1.245047361 -3.005546946
C 2.881866903 0.949220109 -1.731902832
C 0.847444336 0.671647272 -0.433836974
C -1.252067524 1.585903290 1.023774321
H -1.284185233 2.560677864 2.815289660
C -3.109802304 -0.119241378 -0.132066950
H -3.427142765 -0.025303678 -2.157533160
H -4.712093621 -0.709980102 1.001239772
N -0.691031081 -1.206862213 0.767611797
H 6.783236685 1.339781883 -2.062101613
H 4.952322598 1.398883710 -5.049532226

