14

N 1.212573627 -2.268244598 1.534916476
C 1.418115793 -0.280667737 -0.248701847
O 3.220759161 1.093682925 -1.570972734
C 1.079436734 2.616784210 -2.500069245
C -0.726808075 1.560604903 -0.443898462
C -2.511939937 -0.691424975 -1.036344477
C -0.181222316 -2.423316393 -0.998558307
H 2.703271136 -3.468474080 1.346631063
H 0.617365456 2.083263843 -4.439679434
H 1.520915571 4.621464643 -2.371835548
H -1.181407565 2.871190536 1.073568265
H -3.435352567 -0.622492113 -2.877690344
H -3.922416399 -1.048642286 0.425357017
H 0.244062589 -4.000227365 -2.222988095

