15

C -3.047710175 2.315834610 -0.925505350
C -2.183450527 -0.360384265 -1.100276577
N -0.161344382 -1.145595724 -0.007938947
C 1.567428874 -2.890425907 0.644059784
H 2.397058724 -4.155465229 -0.733670521
C 2.168773024 -0.177237848 1.078626929
C 3.796343150 1.423087360 -0.632086063
H 5.756072762 1.313378251 0.004107773
H 3.242310675 3.412618859 -0.612768489
H 3.711417365 0.731357836 -2.573617877
H 2.009905317 0.511689098 3.012826700
H -3.288563196 -1.755246089 -2.116436095
H -4.951563627 2.434666825 -0.130642096
H -1.787212602 3.415728990 0.277513746
H -3.106462932 3.217760298 -2.784204893

