12

C -0.750767969 -3.500792970 -1.618140204
O -0.982768058 -0.979176237 -2.487506497
C -0.277529582 0.876984988 -0.967581047
N 0.609645603 0.386151304 1.361663985
O 1.234479200 2.574317775 2.505216065
C 0.578858091 4.365570365 0.689851098
C -0.371359983 3.475909661 -1.505308796
H 1.225129421 -3.976996943 -1.230770820
H -1.906555685 -3.815032693 0.067872443
H -1.437129178 -4.700733627 -3.135856034
H 0.953931404 6.245598548 1.395764074
H 1.158992635 -1.180470260 2.281671707

