12

N 3.734936216 -1.700738791 3.613008063
C 2.878376182 -1.076506449 1.718438703
C 1.662890015 -0.302963387 -0.749756059
C -0.624965216 -1.862716874 -1.451168974
N -2.594988128 -0.504543647 -0.353043945
C -2.000123944 1.816253365 0.195434701
N 0.475834342 2.195621459 -0.526271454
H 3.154214686 -0.293445346 -2.170936836
H -4.371853308 -1.168035012 -0.237311542
H -0.632933133 -3.877299811 -1.108239032
H -3.307675092 3.292365760 0.691602005
H 1.455973942 3.575835563 0.340302429

