12

N 4.210918524 -1.715172066 3.332014633
C 3.069825073 -1.113724567 1.587658487
C 1.536462991 -0.348094015 -0.660202958
C -0.846324843 -1.922578579 -1.028801805
N -2.882274706 -0.452726544 0.102482550
C -2.116722049 1.860761442 0.344875056
N 0.370862286 2.136246548 -0.294087910
H 2.807394214 -0.354743772 -2.285216568
H -3.440360549 -1.207675665 -1.800548588
H -0.857083621 -3.887785013 -0.462811710
H -3.315708394 3.454385908 0.772723903
H 1.397787215 3.592130388 0.369663387

