17

C -1.789987098 -0.832842668 1.334288033
C -3.900323592 -2.641221279 0.595835579
O 3.816396659 -1.956785173 -1.620058616
C 4.812284292 0.047128844 -1.172438150
C 3.536954732 2.327375754 -0.211168334
C 1.038660677 2.677837501 -0.110231353
C -0.982101344 0.860763239 -0.876194327
H -2.393329614 0.344743701 2.924455094
H -5.580186673 -1.618670839 -0.035212798
H -4.449656545 -3.835220656 2.185050464
H -3.301817376 -3.879815604 -0.943003364
H -0.139618106 -1.896994918 1.971015037
H 6.873898904 0.272442855 -1.477753622
H 4.784884700 3.835330562 0.400919041
H 0.387955614 4.475426192 0.646141733
H -0.321644293 -0.338153923 -2.416126741
H -2.622431846 1.926870147 -1.545143504

