14

C -3.622498514 0.114252464 0.143289731
C -0.815577166 -0.142598393 0.138258221
N 0.365156125 -1.853852943 1.941657820
C 1.220932604 1.286026979 1.573938735
C 3.103793089 0.961968221 -0.635379875
C 0.869625979 -0.071856458 -2.170928295
O 0.417378707 -0.191438270 -4.377348839
H -4.179213984 1.715045549 -1.028930704
H -4.306035640 0.421414047 2.061391510
H -4.505706030 -1.585543279 -0.619455342
H 1.765843730 -2.939518970 1.211638194
H 1.073205740 -0.453431733 3.481143012
H 4.761925661 -0.212653583 -0.298208817
H 3.729463777 2.767482650 -1.413600916

