20

C 5.146866255 -0.437325276 0.156608256
C 2.337635266 -0.987063330 0.454735814
C 0.767336162 0.682665641 -1.280542673
N -1.955622292 0.367220746 -1.023515108
C -3.480351633 2.548262136 -1.593885059
C -3.308026563 2.222614515 1.152809073
C -3.330208943 -1.463813131 1.404127983
H 5.575789261 1.525226036 0.634344928
H 5.771817374 -0.760634154 -1.784710075
H 6.277260814 -1.644021666 1.386961182
H 1.969125821 -2.976784086 0.040725166
H 1.770875655 -0.669677100 2.417186821
H 1.250410857 0.259239282 -3.250253988
H 1.268909273 2.669720333 -0.925602085
H -5.245230865 2.181889594 -2.583659031
H -2.352379325 4.032583426 -2.448642011
H -1.692908276 3.238498020 1.961375280
H -3.198121319 -1.284204395 3.452343378
H -5.278084642 -1.763010634 0.852463259
H -2.210580531 -3.119662007 0.853400923

