16

C -1.943680716 -1.629703268 2.469495479
C -0.960465699 0.744314951 1.209992110
C 1.854738091 1.355112305 1.289694182
C 1.965765227 1.821754301 -1.405163610
C 0.380092351 -1.783141754 -2.767023522
C -0.622173297 0.567636614 -1.749561302
H -1.742177537 -1.538202616 4.522016105
H -3.951618299 -1.846639046 2.032745700
H -0.954828079 -3.293182046 1.768278945
H -2.117960991 2.337682301 1.877334510
H 1.577054440 3.682648421 -0.204505859
H 3.275416371 1.376468667 2.759897100
H 3.564347824 1.948756766 -2.681839884
H 2.022711405 -2.648928187 -1.917222736
H -0.310095251 -2.540103830 -4.534103927
H -2.037770198 1.457758600 -2.946254540

