16

C 3.792369510 -0.825432503 2.003968440
C 2.104278391 -0.167131101 -0.190933657
C 0.414911991 -2.105070772 -1.409889248
C -0.693388571 -0.048143494 0.176470714
C -4.251330979 1.382979718 0.750857958
O -1.919670063 1.951002762 -1.606178993
H 5.560088812 -1.680316105 1.363684140
H 4.253021263 0.848858399 3.122998016
H 2.850276522 -2.169611760 3.252583151
H 2.890953746 1.203084084 -1.510741928
H 0.191133325 -1.994097399 -3.444120688
H 0.363487270 -4.009176692 -0.651627721
H -4.991590578 -0.509682776 0.575260959
H -5.483072665 2.774379678 -0.160976528
H -3.803358381 1.867520784 2.681298459
H -1.207254313 3.557371106 -1.120439671

