11

O 4.453603899 3.060625829 -0.585062118
C 2.822258044 1.185748398 -0.087520039
C -2.338336467 -4.006434454 -0.021500718
C -1.970482474 -1.592813622 0.198632382
C -1.704420941 0.839662028 0.467324849
N 0.538713656 2.216081222 0.029868917
H 6.105626269 2.321641058 -0.643538389
H -1.950353868 -5.285859353 1.531876512
H -3.012798259 -4.819860148 -1.777782528
H -3.286575695 1.975590858 1.100299348
H 0.341616903 4.109000775 -0.214132672

