14

C 1.945509782 -1.628685027 1.535643927
C 0.813080913 1.975321874 -0.754314777
C -0.787623260 0.452926723 -2.503014647
C -2.306601956 -0.358071467 -0.199235810
C 0.000626879 0.855497423 1.596410848
O -0.216087858 1.756940021 3.767767336
H 3.788179590 -0.963375745 2.152813323
H 1.088139792 -2.771910429 3.014315634
H 2.082057442 -2.677628913 -0.227080376
H 1.708105907 3.800525303 -1.101647365
H -1.829520376 1.690834661 -3.788392865
H 0.155613674 -0.990178203 -3.634318524
H -3.979653463 0.791469590 0.093955085
H -2.681328184 -2.347502622 0.151358181

