14

C -3.305984449 0.481916067 0.536544250
C -1.311970406 -0.839545734 -1.066989637
C 4.746507688 -0.265991481 -1.051456900
C 2.880689112 1.261215518 0.542603374
C 1.162759426 -1.054229507 0.325633600
O 3.160555000 -2.191890176 -1.209257687
H -2.708084495 2.386509101 1.062508794
H -5.082712208 0.645807572 -0.492713470
H -3.683199824 -0.563062324 2.276177630
H -1.947317418 -2.735379359 -1.587096879
H -1.001068960 0.195017582 -2.829414588
H 2.216882768 2.964553306 -0.413447415
H 3.581337822 1.771541802 2.411032096
H 0.953394080 -2.153919267 2.061152535

