14

C -3.159927630 0.619864354 0.256737284
C -0.976230872 -0.977572785 -0.572660791
C 2.381647970 0.126500856 -2.041726604
C 2.502961376 1.307753897 0.621690812
C 1.394353488 -1.303384964 1.040456446
O 2.966335998 -2.289416466 -0.987416822
H -2.572009436 2.479029506 0.923626755
H -4.530103225 0.874825504 -1.261316694
H -4.138656607 -0.310332563 1.827481626
H -1.497645295 -2.731701687 -1.523490021
H 0.326168846 0.069920604 -2.912960476
H 1.374668570 2.971647753 1.047351433
H 4.456703919 1.532570249 1.221170653
H 1.393604042 -2.400981096 2.806423272

