13

C -2.674403037 1.936148343 0.471913123
N -0.835095146 -1.657748127 -1.831809439
C 0.900632208 -3.077643248 -0.937492658
C 2.711232854 -1.746809369 0.687324477
C 1.958523928 0.660072567 0.738751012
C -0.357058895 0.879533643 -0.875908506
H -2.326182354 3.860507478 1.125155256
H -3.147679521 0.762298511 2.099916053
H -4.286721051 1.950462262 -0.808446341
H 0.967087281 -5.081138992 -1.379537280
H 4.315136429 -2.586462137 1.632293780
H 2.825812448 2.213700828 1.743370672
H 0.061478554 2.072505745 -2.521395069

