14

N 4.791426988 -0.360356807 1.071859064
C 2.622959023 -0.372420006 0.157904324
O 1.215883067 -2.242669838 -0.925859825
C -0.975059884 -0.594877583 -1.326031782
C -3.281436963 -1.473922486 0.073542415
C -0.385587844 3.367028763 1.686491314
C 0.540856114 1.587676779 -0.138433153
H 5.638167798 -2.081850914 0.964561964
H -1.315279146 -0.416745025 -3.352327261
H -2.884494832 -1.680427127 2.087028083
H -3.940083373 -3.281439344 -0.665361155
H 1.299183479 4.093338480 2.684758566
H -4.784007205 -0.078768509 -0.141697107
H 1.100762406 3.094532146 -1.506678715

