11

C -2.950557163 -0.571150030 0.831563455
C -0.512965382 -0.251293210 0.256095193
C 1.568940183 -1.855714002 0.881446499
O 3.640278323 -0.921410692 -0.004465347
N 3.462653592 1.233072110 -1.257345245
C 0.770687761 1.851870942 -1.197191275
H -4.370784422 0.782154506 0.255995680
H -3.579950272 -2.199813023 1.896746174
H 0.060284455 2.012407315 -3.135510044
H 1.706470179 -3.611952765 1.901743876
H 0.514088711 3.699470252 -0.298863588

