11

C -2.851307499 -0.187852383 0.487129670
C -0.173275602 -0.295572365 0.684257868
C 1.816930775 -1.920507855 0.980626904
O 3.668838642 -1.157903397 -0.544143198
N 3.175129532 1.046112944 -1.743732139
C 0.872661162 1.741758490 -0.794962030
H -3.587110860 -0.541752921 -1.385690795
H -4.141524530 -0.601354808 2.026801434
H -1.512547543 2.107399501 -1.536086557
H 2.113244915 -3.715454595 1.895938977
H 0.810892932 3.646098188 -0.002673131

