8

C 3.636813832 1.339900747 -0.619183316
N 1.592421372 1.468800988 0.340613553
N -0.566395895 1.890212276 1.058752226
C -2.407811852 0.069156701 0.516990933
N -1.896256168 -1.944802306 -0.770108031
N -1.325343015 -3.675619452 -1.888831207
H 5.276844094 0.478541337 0.254048903
H -4.307942317 0.359147344 1.170455846

