14

C -3.517796121 0.875612291 -0.681300900
C -1.091547157 0.547969270 0.766077604
C -0.474601277 -1.897454443 2.008952857
N 0.888368339 -1.010625588 -0.419867060
C 3.494245806 -0.140775998 -0.505727976
H -4.966620682 1.589362283 0.601775933
H -3.334541914 2.209088706 -2.250052696
H -4.173715902 -0.948711490 -1.385234388
H -0.283837072 2.330246550 1.423361862
H 0.347647624 -1.985938204 -1.967219371
H 0.920320206 -1.570144826 3.508527525
H 3.880129034 0.934344280 1.205225333
H 4.756094155 -1.769143022 -0.558334550
H 3.829232189 1.051483678 -2.157239289

