14

C -3.554720444 0.961259838 -0.722003635
C -1.076640733 0.499558455 0.596152184
C -0.526606993 -1.943427095 1.854224142
N 0.865485513 -0.784726291 -0.874815393
C 3.480806679 -0.009335266 -0.594269053
H -4.989126658 1.511321469 0.654857150
H -3.384810330 2.461394488 -2.130067200
H -4.191788883 -0.762950145 -1.652056460
H -0.287619453 2.178152340 1.489107777
H 0.327706270 -2.825978650 -0.487794494
H 0.968187120 -1.695934692 3.266844328
H 3.845320600 0.850333103 1.252280061
H 4.713288797 -1.646121114 -0.811961099
H 3.940883162 1.351015662 -2.076060207

