15

O 4.157652757 -2.540928034 0.299067187
C 2.016410548 -1.379879868 1.106641042
C 0.838364542 2.410772523 -0.564168550
C -1.736571778 1.515954851 -1.234009792
C -2.471174217 -0.210286342 0.979709215
C -0.370659121 -2.105791797 0.546434812
O -2.042289781 0.341265395 -3.362375218
H 3.783144604 -3.525489877 -1.180238504
H 2.409334706 -0.083037041 2.648258279
H 1.070262151 3.618027044 1.086099416
H 2.226215086 2.658325606 -2.062918390
H -2.535211423 3.543162180 -1.287149609
H -2.369105045 0.643958627 2.863293749
H -4.336155890 -1.019406106 0.684791715
H -0.756083788 -3.812559438 -0.516046505

