8

O -2.638111470 3.478577728 -1.864341509
C -1.055674467 3.177754891 -0.289840637
C 0.943927912 -3.257349664 0.348828400
C 0.865110384 -0.836158117 -0.077939411
N 0.921991915 1.418636488 -0.488125688
H -0.886785259 4.350484285 1.421944661
H 0.455972754 -4.567800767 -1.138412988
H 1.484530180 -3.954633017 2.189847344

