8

O -2.614798694 2.007573150 -1.695045443
C -1.119937835 1.772255268 -0.098972459
C 0.360899706 -2.074786475 0.383610945
C 1.806295302 -0.162404518 -0.554668330
N 2.412225458 1.934115016 -1.092990152
H -0.828001095 2.364726549 1.831593481
H -0.714164768 -3.226817737 -0.915519452
H 0.788445763 -2.805149446 2.243953454

