11

C -1.422210621 0.139607165 -1.668661144
N -1.949691122 -1.990030482 0.018217999
C 0.055488652 -1.580271736 1.616175116
O 0.800326018 -2.639961569 3.472220047
C 0.829278569 0.676257750 0.038995821
C 2.685429230 2.325835494 0.166354254
H -0.946186116 -0.403999654 -3.601741176
H 4.060373851 2.192571403 1.677422065
H -2.883078954 1.597119684 -1.677400371
H -3.310883923 -3.313563668 0.016162317
H 2.903542421 3.831724795 -1.203368696

