16

C 1.244917688 -0.444100020 -2.567330002
C -0.178418568 1.248284235 -1.068521562
C 0.649819423 3.967565528 -0.820454001
H 1.718798601 4.532081523 -2.487078889
H 1.881678253 4.153860549 0.823936899
H -0.943423431 5.253126538 -0.553678416
C -2.652167669 0.739346219 -2.682621645
H -3.321430258 2.435725393 -3.605778670
H -2.837911968 -0.967387823 -3.796047975
C -2.675459847 0.509044427 0.122731589
C -3.143685623 -2.014181314 1.351793341
H -2.467630660 -2.007988190 3.299915310
H -2.190985318 -3.543676790 0.353399818
H -5.162334231 -2.440214116 1.376406457
H -3.555404468 2.085535010 1.099215325
H 0.545988365 -2.381648045 -2.251740429

