11

C -2.332248866 -1.524575442 -0.575551467
N 0.273027914 1.549928310 1.801076256
C 1.973246104 2.783435888 0.662776085
N 3.177447791 1.408747683 -1.367399455
N 2.170993263 -0.705881815 -1.451618218
C 0.236235551 -0.853419234 0.524954107
H -2.228019680 -3.335033224 -1.548174077
H -2.928636585 -0.080339968 -1.918604844
H -3.722612821 -1.642621644 0.935951000
H 2.557065350 4.697055351 1.085766787
H 0.854072097 -2.327529653 1.843981127

