11

O -3.770085028 -0.212153354 -0.677491061
C -3.029719207 0.626545575 1.314211734
N -0.591400676 1.248348599 1.787003258
C 1.356936231 0.763874373 -0.059769089
C 4.126110016 -2.965861034 0.274268122
C 1.951303682 -2.035663399 -0.316217548
H -4.293602621 0.985256865 2.932940512
H -0.089617654 1.660240619 3.571253015
H 0.713217221 1.452858370 -1.890575594
H 3.044903648 1.813379696 0.466057768
H 0.477994904 -3.294872557 -1.012176959

