11

O 4.505182122 -1.057684077 0.007135266
C 3.390636375 0.937098272 0.001858432
N 0.848703914 1.154657169 -0.005417920
C -0.750035322 -1.074687436 -0.008578563
C -3.413263766 -0.363373207 0.000322331
C -5.591575863 0.240683910 0.006842018
H 4.362280768 2.783309276 0.002413199
H 0.038168707 2.870221882 -0.010804660
H -0.335972348 -2.232473972 -1.669076997
H -0.326523415 -2.242301531 1.642395878
H -7.534906583 0.761787472 0.013250514

