12

C -2.946235831 1.602000998 -1.788396515
C -0.330489572 0.721127936 -2.025970295
C -0.026602393 -1.804869711 -0.973532626
O 2.525115202 -2.695135600 -0.852476639
C 3.865040496 -1.806937752 1.083883958
O 3.093186340 -0.421663907 2.696577631
H 5.797380493 -2.556973471 0.992896499
H -0.990880180 -3.075778787 -2.304633504
H -0.937584234 -2.033985455 0.875715999
H -4.431618315 0.216238847 -1.355877701
H -3.506906045 2.859894075 -3.320153105
H -2.745929435 2.853685720 -0.129595830

