11

C 4.155875715 1.472879319 0.540374650
C 2.441115723 0.146337311 -0.101316513
C 0.382024860 -1.459866079 -0.856256733
N -1.433817414 -2.388333915 1.023684616
C -2.262392796 -0.492058302 -0.755105401
C -3.103905282 4.025969743 0.764944071
N -2.694902597 1.973624446 0.078026641
H 5.673896094 2.664972189 1.108366041
H 0.826206649 -2.821118388 -2.321066865
H -1.081394490 -1.593731027 2.732179920
H -3.625944297 -1.109821262 -2.150008743

