11

C 4.273058747 1.389862422 0.525310603
C 2.436571253 0.228543307 -0.097553124
C 0.294900417 -1.279506460 -0.823955286
N -1.450171916 -2.250236642 1.069767629
C -2.379477052 -0.350409156 -0.603240433
C -3.566612452 2.193274117 0.906711344
N -2.035010102 3.090727881 -0.461811894
H 5.890033652 2.453225088 1.074839313
H 0.660251335 -2.597376704 -2.351271340
H -1.078128457 -1.564916710 2.818379759
H -3.768651425 -0.894329310 -1.993358630

