11

N 2.666789916 -2.579708823 -0.489187128
C 0.678829913 -0.932028553 -0.051651506
C -1.282843528 -1.090456161 1.495444425
O -2.915275995 0.906930684 1.108914458
C -1.416809368 2.663304657 -0.236937546
O 0.463851060 1.253080625 -1.505356190
H 4.330760552 -1.664859997 -0.683067454
H 2.376172696 -3.698888254 -2.008443236
H -1.802985825 -2.518663640 2.843935527
H -2.579357051 3.682248857 -1.595211552
H -0.504122276 3.963015728 1.110339009

