10

C -1.262443065 1.563689239 0.228929341
O -0.835714522 0.453857961 -2.109431466
C 1.042560523 -1.498146223 -1.809747851
C 1.810140366 -1.607865857 0.899905571
N 0.441903365 0.158800433 1.921215633
H -3.233517836 1.335824777 0.827262949
H -0.775321067 3.578355777 0.214989625
H 0.522825368 0.574133133 3.778859707
H 2.681181730 -1.078982009 -3.000782965
H 0.260410591 -3.315822287 -2.411278573

