13

C 2.615512217 -0.988747189 0.211878720
C -0.102177151 -0.333383518 -0.465487638
C -0.834682770 2.536572876 -0.249150185
N -0.737426843 0.444226367 -2.828512470
C -2.061714219 -2.029469255 0.812282977
O -3.860503037 -1.320554657 1.993012677
H 2.997668602 -2.948650335 -0.310321621
H 3.900596355 0.217070402 -0.853376092
H 2.977527050 -0.785885090 2.234062948
H -2.462747078 2.630311909 1.001723731
H 0.843718325 3.596777678 0.260979852
H -1.515722660 3.270167770 -2.116324072
H -1.741155290 -4.074710826 0.471585104

