17

O 0.928521164 -2.837814968 2.377782686
C 1.678513930 -2.103203968 0.109183594
C 3.035596048 0.429906911 -0.115412774
C 1.027187866 2.462089472 0.258956276
C -1.257626229 1.539858828 -1.246569120
C -1.259256080 -1.308842417 -1.501471650
C -3.301079343 0.172448261 0.031096596
H 2.416469348 -3.569655554 -1.177393257
H 4.527002317 0.482091622 1.310343767
H 3.894962892 0.604319486 -1.986856139
H 1.650124102 4.315330277 -0.390975983
H 0.548336066 2.630513694 2.256693628
H -1.744969475 2.553928764 -2.956816767
H -1.799826127 -2.235527165 -3.239025726
H -0.980136558 -2.575504012 0.485933624
H -5.177691770 0.128959673 -0.778928290
H -3.207563752 -0.022562574 2.069248614

