15

C 3.871573922 -0.998980340 0.346560257
N 2.230859182 -0.381812134 -1.587673227
C 1.593237034 2.117851028 -1.543798473
C -0.385490826 2.032341072 0.236807080
C -1.565928016 -0.446879505 -0.298100158
C -4.153597783 -1.250328428 0.424320389
N 0.023263020 -1.911866269 -1.380785009
H 5.337541568 0.379184092 0.734050280
H 4.380534634 -2.980316362 0.492244327
H 1.304532292 0.798271999 1.985799423
H 3.113473853 3.476559822 -1.632175521
H -1.458451770 3.621506785 0.948552582
H -5.566484023 -0.119585743 -0.567344934
H -4.442471466 -0.974545161 2.448989513
H -4.434869551 -3.235698164 -0.034751761

