12

O 5.168923630 0.587206183 -0.376576629
C 3.078977905 -0.777155576 0.234555207
C 0.780010725 0.131511143 0.472614778
C -1.145858150 2.106121139 0.378967434
N -1.712745960 -0.521319899 1.044109532
C -3.270120149 -2.046085711 -0.415981708
O -5.200347791 -1.349389080 -1.373388394
H 3.493421338 -2.758008640 0.522762440
H 4.710369359 2.327107771 -0.615744600
H -1.823418583 2.740512025 -1.451330961
H -1.325664249 3.453494051 1.911677183
H -2.590101901 -4.013868183 -0.505634378

