14

C -3.058891023 -1.605848084 -0.589309013
N -0.985709625 0.069409357 0.117505476
C -1.534505763 2.309928706 1.392882715
O -3.627956458 2.894479124 2.018775427
C 1.428393031 -0.473515100 -0.528844788
O 1.874737252 -2.309478630 -2.052809508
C 3.774296264 0.553367159 0.320651318
H -4.544569287 -1.418964714 0.817344702
H -3.810789729 -1.089570560 -2.435771786
H -2.355516024 -3.533486649 -0.663377396
H 0.157352279 3.462302008 1.736054824
H 4.734489143 1.585708894 -1.176740206
H 3.971128398 -1.887109931 -1.148448114
H 3.955297558 1.412161077 2.171467566

