14

C -2.152837927 1.264282543 -0.842017175
C -2.258929968 0.424288207 1.604940996
C 1.490430226 -0.847662769 2.544336022
O 2.965153653 0.364128530 1.117056608
C 2.498211682 -0.505014926 -1.834535766
O 1.874034330 -2.709517644 -2.123232023
H -2.667604161 0.019766497 -2.384904610
H -2.085608067 3.270847581 -1.252839968
H 0.792500416 1.007438414 -1.822079334
H -3.046513052 -1.423922128 1.988472214
H -2.362684247 1.797395108 3.118627477
H 1.355644093 -0.216517015 4.493118394
H 1.069931676 -2.806849878 2.063995874
H 4.186186639 0.353221088 -2.698575620

