18

C 3.814149624 1.643735410 -1.045410967
C 2.370592694 -0.209505961 0.617039251
C 0.107324520 -1.352341966 -0.705126699
C -1.832143637 -2.794900271 0.861450022
C -3.333389049 -0.610813662 -0.030473364
C -3.466207033 1.495239503 1.880017600
H 4.463780112 0.740526088 -2.784617553
H 2.620630918 3.242268156 -1.577896521
H 5.470434932 2.390676835 -0.071386578
H 1.760274291 0.726532043 2.352686764
H 3.615943545 -1.749474922 1.210724511
H 0.560172630 -2.351600020 -2.446779837
H -1.332852011 -2.867953832 2.864584829
H -2.331643454 -4.646081576 0.129229393
H -1.198639165 0.210344735 -1.635140105
H -5.304751607 1.197129991 2.783895091
H -3.551145800 3.360462324 1.006760078
H -2.047993031 1.497771925 3.397392542

