12

O -3.720756014 1.877169272 -0.860679618
C -3.487228403 -0.460456941 0.299971516
C -0.724010921 -0.626362291 0.061206661
N -0.179374864 1.694642195 -1.026804365
N 3.130896788 0.921593542 -1.231255535
C 3.272811157 -1.064488868 0.169464913
N 1.049816184 -2.170056677 0.778675785
H -0.430379531 2.110094439 -2.866265929
H -4.437570745 -2.020222523 -0.701440543
H -4.091566521 -0.556495185 2.290483065
H 4.628268035 2.090208794 -1.436897573
H 5.022076244 -1.804189977 0.953002358

