10

C -4.636464476 1.192461121 -0.324355937
C -5.475905633 3.436213318 1.176023754
H -7.042994507 4.414652921 0.251660308
H -6.134741223 2.879853041 3.053359020
H -3.943308909 4.794831746 1.424929729
C -2.315962337 0.912837288 -1.211406929
O -1.599742473 -1.156633009 -2.573147222
H 0.140002042 -1.003244507 -3.039899540
H -0.859606859 2.328631250 -0.893043314
H -6.004052621 -0.289179328 -0.705989548

