11

O -4.488272928 -2.610979879 -0.093416929
C -3.515999748 -0.568582251 0.120793297
C -0.747729535 -0.227395544 0.105135045
C 0.645651330 1.975911223 -0.246585222
N 3.081898287 1.664969885 -1.826367198
C 3.188180585 0.307658071 0.129876190
N 0.996712045 -2.042575810 0.299595290
H -4.639578707 1.187486625 0.261035296
H 0.219519317 3.898685143 0.276991369
H 4.519861703 0.058878461 1.672673448
H 0.778663350 -3.671691259 -0.698984144

