15

C -3.634557007 -0.506486342 -0.194748107
C -1.342834679 1.123029181 0.234971475
O -0.470961173 1.123805764 2.807032879
C 2.032027698 0.483784779 2.003598394
C 2.481524247 -2.187899963 1.488562855
C 1.257673812 0.244526705 -0.735581922
O 2.621038778 1.388116655 -2.620100604
H -3.249604149 -2.454874441 0.356237922
H -5.210956581 0.186862488 0.937843618
H -4.193368052 -0.448683343 -2.181858187
H -1.644324476 3.065922259 -0.416416987
H 3.507854990 1.789979501 2.567394385
H 4.414245931 -2.269682491 0.716644844
H 1.123453765 -2.036556200 -0.851630400
H 2.271678363 0.580662779 -4.205576627

