12

O 2.962200559 0.078618767 -0.760089062
C 2.562311721 -2.120778138 -1.733317008
C 1.305964686 0.938131310 1.192760529
C -0.886567827 2.475037366 0.370726981
N -1.165544901 -0.014897429 1.437103931
C -2.378664357 -2.047432198 0.270311678
O -4.154190061 -1.776006772 -1.111638706
H 4.086737477 -2.282554776 -3.165082614
H 2.408467435 1.312457312 2.876297162
H -1.160328029 2.644243537 -1.656366359
H -1.549584890 4.044489399 1.505733927
H -1.667764620 -3.878992269 0.917148509

