15

C 4.003045948 0.656209664 -0.113463333
N 1.427809048 -0.065736542 -0.608095480
C 0.442295577 -2.313560136 0.188872344
C -2.080130261 -2.273863283 0.537574454
C -2.957194448 0.286421915 0.013935861
N -5.143427672 1.274910249 -0.069837720
C -0.579069910 1.813497804 -0.517091825
H 5.231818553 -0.983068751 -0.336072125
H 4.601865405 2.089889185 -1.468759981
H 4.259829965 1.417684841 1.800451777
H 1.702349556 -3.909860851 0.424386567
H -3.260445356 -3.866705496 1.010244034
H -6.492134845 -0.034458872 0.333802678
H -0.729484003 2.872290489 -2.279561657
H -0.252902369 3.157067360 1.025756682

