14

C -3.671408783 1.350485859 0.254299103
C -2.018144296 -0.957513702 -0.271753615
C 0.708113997 -0.590011727 0.350760419
C 2.861474982 -0.501510297 -1.254320474
N 5.035436268 -0.126793461 -0.244885054
N 3.559737421 0.107834387 3.528437509
N 1.584321457 -0.223347052 2.691046592
H -5.643387524 0.971772120 -0.219501327
H -3.589977990 1.872139407 2.248771443
H -3.040155579 2.976646797 -0.846596057
H -2.768997795 -2.595900828 0.741474617
H -2.120732255 -1.443818865 -2.276623870
H 2.569022951 -0.761478427 -3.274096435
H 6.534695238 -0.078504174 -1.427016611

