11

N 3.319252329 0.924013979 1.288585801
C -0.558817318 -0.891364009 -1.473965420
C -2.733571231 -1.500608669 0.210437312
O -2.688097070 1.092252043 1.117389086
C -0.670872087 1.551282450 -0.484961757
O 0.704820998 3.415911424 -0.485515692
H 5.002178052 1.188126335 2.242513293
H 3.858039137 0.942669317 -0.561921401
H 0.465780111 -1.830531058 -2.960803655
H -4.519522517 -1.981980437 -0.705351766
H -2.328792462 -2.801807541 1.758002236

