15

C -4.850111035 -0.224521668 -0.977278593
O -3.080572777 -0.885482595 0.925753585
C -0.797822055 0.247481878 0.802612794
O -0.414650698 1.878549188 -0.867496957
C 1.055517506 -0.625644440 2.483725155
C 3.650936284 0.557299245 -1.453505053
O 5.732566326 0.487435579 -0.178023653
H -4.045843766 -0.465609941 -2.860899844
H -6.450379040 -1.490384608 -0.719764291
H -5.462566321 1.732956789 -0.772385850
H 2.257039467 0.843915896 3.250664512
H 0.544870233 -2.118711892 3.788532062
H 2.694662110 -1.159061704 -1.981694049
H 3.378276281 2.293316256 -2.482494773
H 5.765442345 -1.055807863 0.812830846

