11

C -2.499868008 -0.166583591 -0.382900219
C 0.308236819 0.212006031 -0.115469277
C 1.892063073 -2.104588627 0.190760086
O 4.137433368 -2.067962069 0.515674058
N 1.563769382 2.300953376 -1.681880855
C 1.441873732 2.600401154 0.636834340
H -3.292038572 -1.061045617 1.301169487
H -3.452886599 1.637417640 -0.654514769
H -2.931429317 -1.369017609 -2.004709213
H 0.845755884 -3.920472645 0.110181162
H 1.954554823 3.947329584 2.083307533

