11

C -2.560531712 -0.087088992 -0.206722791
C 0.221979419 -0.026182722 0.199414275
C 1.779305289 -2.214972217 0.256909060
O 3.977713111 -2.352131336 -0.396910592
N 3.619647446 2.329205575 -0.830362761
C 1.514883187 2.415847288 0.161112777
H -3.319683036 -1.894267325 0.433104762
H -3.506942120 1.440151700 0.816542287
H -3.058993975 0.100679714 -2.205194037
H 0.845683924 -3.849615701 1.175635963
H 0.454399254 4.146809773 0.594921462

