13

C -3.686478820 0.123353044 -0.517294782
C -1.016412553 -0.738780681 -0.935932519
O -0.476408384 -2.388983773 -2.442473794
C 0.948021399 0.536744335 0.588066084
O 0.248563085 2.608211165 1.898161711
C 3.388060451 -0.300319131 0.758802537
O 5.332407333 0.359057091 1.818450833
H -4.192420279 -0.042680202 1.475126770
H -3.862628582 2.119245551 -1.009701625
H -4.945983739 -1.007888339 -1.680494155
H 3.480331942 -1.720803072 -1.239994063
H 1.685543787 3.184492690 2.862223219
H 3.123312505 -2.640161370 0.204465589

