14

C -4.527561166 -0.428104925 -0.730096595
C -2.267069358 1.239598487 -0.433225497
C -0.166425988 0.607492865 0.771824224
C 2.076578729 2.300051769 1.048796242
C 4.533878917 1.170114410 0.151691340
O 4.788779425 -0.938996899 -0.636043169
H 6.186452690 2.457887761 0.289956062
H 2.389296750 2.821900281 3.034697993
H 1.809601510 4.093213871 0.049690537
H -0.004647687 -1.257955986 1.614608835
H -2.390125810 3.104043100 -1.295857769
H -4.929040681 -0.773171920 -2.726687545
H -4.245833312 -2.249283332 0.192837310
H -6.211738397 0.453299396 0.078199399

