11

O 0.108866423 2.874866602 0.637304655
C -2.094890458 1.808153715 0.001575484
C -2.337694603 -0.645227653 -0.568337853
C -0.112452273 -2.180568884 -0.487519804
C 2.127047134 -1.158279320 0.144925478
C 2.351753391 1.506261520 0.757465480
O 4.229997464 2.617670095 1.342167435
H -3.627582784 3.161761458 0.007552706
H -4.162456913 -1.405841663 -1.072016346
H -0.242590114 -4.174439478 -0.938257695
H 3.856860628 -2.240568123 0.229005232

