11

C -1.203100581 -0.685835827 3.797595850
H -2.399642093 -0.614184725 5.439034128
C 1.207987829 -1.291663692 3.355157919
H 2.838285605 -1.923750284 4.411357314
N 1.082253673 -0.829375663 0.737754200
C 2.651735734 -0.984410041 -1.260950313
O 2.063599126 -0.489242856 -3.411530226
H 4.564636062 -1.620747270 -0.712913108
C -1.594816146 -0.120899726 1.008289169
H -1.954941575 1.843761277 0.505009313
H -2.858321350 -1.375269711 -0.027301516

