14

O -3.365845738 -0.841443170 -2.071998845
C -2.114703764 -0.493878864 1.042696149
C -0.006565324 -2.158313390 0.611856148
N 1.753237254 0.003326693 0.783704837
C -0.347834952 1.752705787 1.197395026
C 3.784504281 0.519319794 -0.673061562
O 4.511310353 2.630934423 -1.180741342
H -3.206445053 0.635127691 -3.135816860
H -3.852863120 -0.754980830 2.081490448
H 0.370567961 -3.899235809 1.619893303
H -1.509220944 -1.985780715 -1.847997136
H -0.338636654 2.583348039 3.085991358
H -0.516825393 3.252938363 -0.206267688
H 4.764461541 -1.210466809 -1.312865947

