11

C 3.273308798 0.156785455 -3.208534277
C 3.306200690 1.961658852 -0.998506000
H 5.218337719 2.775638103 -0.747213035
O 1.458398499 3.967820716 -1.114232166
C 0.861721047 3.318611542 1.447467548
H -1.113459457 2.724513056 1.692333837
H 1.247701236 4.821883988 2.821392965
C 2.619430942 1.128347608 1.606570299
H 3.673783507 1.177949989 -4.952243116
H 4.699655066 -1.303507305 -2.932058029
H 1.425977772 -0.737318524 -3.379639586

