13

O 1.308793927 -3.669407733 -0.439745883
C -0.426472390 -2.398396216 1.141070964
C -2.256554582 -0.791510124 -0.374106492
O -3.931488558 0.376164271 1.315511318
C -5.756505698 1.864446332 0.099658978
H -6.917259010 0.732378175 -1.194448678
H -4.882051601 3.407328212 -0.978023428
H -6.969824501 2.670585563 1.553738451
H -1.210521895 0.639301245 -1.470196664
H -3.277693359 -1.989389411 -1.729731933
H -1.472294260 -3.852904505 2.159835300
H 0.533969688 -1.217155381 2.545681659
H 2.452967538 -2.455841357 -1.146457968

