10

C -0.419388090 -0.689843067 -3.073640071
C -1.919840724 -0.520071772 -1.075242524
N -3.196581476 1.856493401 -0.511133519
O -2.150958179 3.720608653 -1.246135919
C -2.709594821 -2.602811783 0.654144288
H -2.170392217 -2.179043553 2.601100636
H -4.761521449 -2.814722742 0.623450015
H -1.845505040 -4.387726459 0.105720369
H -0.043973473 0.960277634 -4.224007240
H 0.432958478 -2.467446978 -3.618547153

