11

O 3.761833142 0.950952856 1.978465849
C 1.694115358 0.278809777 1.398755794
C 0.588702543 -2.278640416 0.522452449
H 0.332949372 -3.740165334 1.948032982
H 1.677844721 -2.994504766 -1.074517587
C -1.781614269 -0.798807623 -0.198464423
H -2.977422719 -1.073882828 -1.829618472
N -2.729375094 0.253445759 2.154499979
H -4.377137284 1.177266929 1.812576393
C -0.726994591 1.642427569 0.762708619
H -1.003959088 3.569285602 0.144782992

