9

C -2.649708361 0.350178232 -0.104504368
C -0.604915675 1.776516506 -0.672337267
C 1.745022331 1.989424333 -0.774722081
C 3.225513561 -0.064045596 0.005426254
O 5.246178960 -0.871173022 0.296513733
H -3.700849185 0.738886297 1.613937529
H -0.630670866 -1.671070450 0.662044194
H -3.721413450 -0.515637303 -1.624925984
H 1.124158557 -1.916389971 0.744281012

