12

C 3.823458717 -0.470408938 0.711487442
C 1.314853466 -1.378963389 1.781659131
C -0.530038755 -2.402395764 -0.006764709
C -3.121426180 -2.330230487 0.984767785
H -3.364246085 -2.067617383 3.033339601
H -3.808054766 -0.589510137 0.058374793
H -4.331234495 -3.834361038 0.264537620
H 0.537551267 -0.074218105 3.209168243
H 1.608326440 -3.181284880 2.823818523
H 3.567098773 1.295656872 -0.321992872
H 5.206135078 -0.131752027 2.204501509
H 4.584568024 -1.860799898 -0.604132535

