14

O 3.880848226 -1.196897045 -2.169469407
C 2.196110860 0.440406248 -1.725892822
C 1.077319106 0.749084242 0.851847001
C -0.818279437 -0.705241519 -1.940844445
N -2.010808720 -0.720756133 0.749559943
C -1.383653330 1.997044559 1.394522298
C 0.300753617 -1.569870665 2.227454217
H 2.163644610 2.272199303 -2.742987548
H -2.007961545 0.433751804 -3.165418381
H -0.543448138 -2.629040275 -2.591541211
H -2.102591508 3.402497222 0.082590442
H -1.784876012 2.421147838 3.360296066
H -0.020826369 -1.407622125 4.244658753
H 1.150876034 -3.333115946 1.616297192

