14

C 3.914218540 -0.239156066 -1.496747750
C 1.478782124 0.239815675 -0.514062708
O 1.331722050 2.590560368 0.085643276
C -0.747271655 -1.467149783 -0.256525522
C -3.233474902 -0.115870636 0.266863949
O -3.942140699 1.508986089 -1.720001525
H 4.272452353 -1.786995605 -2.790302964
H 3.356395671 2.481346292 -1.163587504
H 5.378905518 0.017902056 -0.072588481
H -0.874283776 -2.565239795 -2.004468159
H -0.321701212 -2.832392021 1.239949447
H -3.111944422 0.909155478 2.060928943
H -4.738441279 -1.513850320 0.449732349
H -2.842144633 2.951764112 -1.673977246

