15

C 4.120871978 1.015574649 -0.009393564
O 1.468080341 0.975607829 0.001084646
C 0.463338830 -1.462461750 0.290595621
C -2.389392521 -1.343057081 0.355822693
C -3.751715548 0.623286516 1.795918287
N -3.505642480 0.342389631 -1.528311468
H 4.888379746 -0.123844373 -1.562594577
H 4.888336037 0.301134963 1.778764884
H 4.707475716 2.971985221 -0.258285726
H 1.138439237 -2.327175820 2.053540095
H 1.077069852 -2.679086270 -1.279625059
H -3.208514133 -3.229985428 0.307424331
H -2.444316334 2.175104268 2.201888660
H -5.183269599 1.068885070 -0.324259844
H -2.237388073 1.702888336 -2.000094388

