11

C 3.562831715 4.120265546 -3.037048983
C 2.104346837 2.576321489 -2.258122356
C 0.290506803 0.739701809 -1.443219765
N 0.504963620 -0.391775223 0.648694828
C -1.416118485 -2.252320140 1.231523460
C -2.601608670 -1.714623346 3.677645673
N -3.571828758 -1.321668404 5.573274433
H 4.881113239 5.492089323 -3.693642337
H -1.276858387 0.382385892 -2.751172821
H -0.506071415 -4.101486468 1.375550241
H -2.911405798 -2.387777485 -0.201365966

