16

C 3.609124260 0.317855487 0.775692720
C 1.617752413 0.780358473 -1.247563361
C -1.067049994 0.257957140 -0.379298080
C -1.679233821 -2.382406014 0.515108558
C -3.688693995 2.732946337 -0.537509353
O -2.780449157 1.048464217 -2.320514139
H 3.680476577 -1.661692968 1.351607657
H 3.247437067 1.458774573 2.458904490
H 5.478858764 0.825174631 0.074009121
H 1.963778728 -0.411001580 -2.900946202
H 1.678340623 2.736241093 -1.898282464
H -1.165340471 -3.732830325 -0.957945315
H -0.650287206 -2.860573979 2.235375382
H -3.695800234 -2.565529792 0.888736099
H -1.379277764 1.688756302 1.232583578
H -5.022526301 1.595902247 0.662981479

