16

C -3.544965621 1.146668597 1.557594834
C -3.233303371 -0.066570308 -1.048483038
C -0.878927702 0.709854548 -2.410676695
C 1.489180474 -0.144289717 -1.692711972
C 3.094497620 -1.691080212 -0.716493534
C 5.029248870 -1.349874381 1.265675007
H -1.936429761 0.684327901 2.762875762
H -5.257918411 0.463201258 2.479871984
H -3.667815280 3.201039907 1.409318286
H -4.869370594 0.386649625 -2.224478352
H -3.152076801 -2.125528683 -0.822541468
H -1.004623894 2.075444723 -3.934132191
H 1.687239003 2.065405572 -1.526692351
H 6.893868018 -1.882195207 0.560142716
H 5.132917223 0.548832554 2.094021222
H 4.618654261 -2.691373458 2.784062824

