14

C -1.003422632 3.076644603 -2.022425924
C -1.335062462 -3.108741393 2.294971240
N -0.336719489 -0.971988815 1.726559442
C 1.639910284 -0.655944838 -0.126442482
N 3.532667642 -2.047481935 0.110906722
C 1.247887865 1.327395767 -2.378377440
N 2.801702321 1.181976769 -4.078861798
H -1.097033202 4.362029453 -3.624406495
H -0.839052175 4.218600431 -0.298863872
H -2.785218429 2.022399298 -1.936187044
H -0.428233010 -4.803560806 1.597135879
H -3.044866817 -3.170386130 3.413020200
H -1.195500707 0.633708582 2.321758977
H 4.616061406 -1.634335780 -1.460438345

