14

C -1.554843109 2.219768058 -1.243222642
C -1.879494278 -1.751552846 0.478126070
N 0.321425085 -1.754253983 1.680349610
C 2.379899841 -0.785308535 0.263535839
N 4.625155883 -1.152378008 0.909968117
C 1.292493792 0.539229702 -2.067361590
N 2.033364151 0.424079184 -4.190590967
H -3.189514902 1.797302133 -2.421671141
H -0.705300554 3.929138646 -2.010675645
H -2.136580066 2.714678864 0.675445754
H -1.966508550 -2.545514777 -1.400472592
H -3.596164632 -1.659882345 1.585678281
H 0.347619448 -1.354686569 3.546397825
H 5.801572227 -0.190306192 -0.267159747

