11

C -2.865253659 -0.175692959 -0.246032137
C -0.300455380 0.674204525 0.623463715
O -0.000768268 2.252933772 2.243786024
C 1.985149565 -0.556909829 -0.578325377
O 4.226756489 0.262403363 0.520505087
H -3.395298102 -1.855576411 0.832888739
H -2.861350827 -0.689113349 -2.242393579
H -4.256089101 1.294489853 0.115561477
H 1.939212893 -0.118689068 -2.609355338
H 1.781979553 -2.616218237 -0.409869786
H 3.746116838 1.528168340 1.749771175

