12

C -3.266223043 1.032740070 -0.409784861
C -1.109548083 -0.295961706 0.788000733
N 1.130792063 -0.764706873 -0.176417499
C 3.041997098 -0.264351784 -1.629907037
H 3.160330274 1.575985554 -2.504749038
H 4.547697709 -1.630120841 -1.771734158
C -0.180561007 -2.931982138 0.876408962
H -0.705493363 -4.332259048 -0.554900086
H 0.542960041 -3.713132367 2.632949173
H -4.972610792 0.822503012 0.721909395
H -2.875290883 3.050332170 -0.577421464
H -3.651794428 0.298967051 -2.318060065

