16

C 3.218041452 -0.551552191 -1.399324564
C 1.336366789 1.518247278 -0.923870681
N 2.131714172 3.714911412 -0.402292305
O -0.451695604 -2.539537573 4.501317292
C -1.664516067 -1.120533685 3.215820457
C -2.183436921 -1.499348410 0.445045582
C -1.435556434 0.821392175 -1.120239681
H 3.176283115 -1.926636558 0.141897796
H 2.780027087 -1.568720559 -3.143040244
H 5.106526877 0.249117153 -1.519130441
H 0.665876861 4.926806382 -0.097528520
H -2.489038309 0.623652291 4.048062267
H -1.214597769 -3.205328414 -0.184410832
H -4.218081229 -1.814558772 0.233104180
H -1.869383261 0.435230175 -3.104915624
H -2.580422233 2.449740433 -0.564999898

