16

C 3.455509010 -1.502072602 -0.018232947
C 2.728583904 1.230724900 -0.117176777
N 4.275439254 2.907096089 -0.798371361
O 0.336161585 1.883584912 0.594117497
C -1.445832973 0.003412600 1.140547887
C -2.871435615 -1.185445853 -0.988417073
C -4.119732341 0.732194229 0.703147532
H 3.293192571 -2.238164580 1.902426350
H 2.239979114 -2.643218285 -1.229666464
H 5.403455914 -1.669710924 -0.641225440
H 3.444968193 4.641944531 -0.738109790
H -1.002574977 -1.131441354 2.788418453
H -2.379331165 -0.576541646 -2.877914541
H -3.402375901 -3.153077600 -0.820378355
H -4.430643803 2.596613727 -0.074468022
H -5.525362751 0.104101837 2.046796948

