11

C -2.413141805 -0.195069190 -0.343415828
C 0.253222601 -0.579375536 0.673375729
O 0.606575365 0.732483036 2.936356400
C 2.189877637 0.214936958 -1.262732136
O 3.802906056 1.747733785 -0.809054606
H -3.776439799 -0.807703244 1.071809912
H -2.722835489 -1.288923419 -2.065876152
H -2.746301145 1.800646986 -0.741223435
H 2.052830201 -0.696463458 -3.140735005
H 0.562150002 -2.618161632 0.975859994
H 2.100702765 1.760871955 2.724143142

