12

N 3.714424203 1.150674760 0.007533998
C 1.266033204 0.564787870 -0.350629725
C -0.055587503 -1.578240375 0.744641118
N -2.075922314 -1.894171932 -1.139569028
C -2.457228946 0.689581944 -1.256865500
O -4.037077251 1.434418706 0.420285654
N -0.295248655 2.018657149 -1.651376745
H 4.770914408 0.112662788 1.185730370
H 4.267873150 2.927261394 -0.364224320
H 0.970855546 -3.246077145 1.356651600
H -3.637741914 -2.716670012 -0.409007919
H -2.483204705 0.343102341 1.950842702

