16

C 3.657507070 -1.003991043 -2.120635199
C 2.436108081 0.359738243 0.048380901
N 2.517275050 -0.659669885 2.307852048
O 1.094105128 2.308085165 -0.497443889
C -2.017884194 1.511249546 0.833299225
C -1.760689615 -0.935921388 1.918554029
C -3.968380472 0.977516849 -0.813015472
H 2.180403721 -1.766010461 -3.352357742
H 4.747041895 0.329060750 -3.252769875
H 4.867912123 -2.526769941 -1.460067958
H 1.926072985 0.648357663 3.586536950
H -2.207715328 3.118715254 2.079133998
H -1.673695695 -2.586257801 0.724240693
H -2.197032518 -1.255430707 3.891448096
H -3.861556805 -0.630259756 -2.069161044
H -5.587492108 2.216085549 -1.013271998

