14

C -2.365504228 -1.927152925 -0.831500565
C -0.981737005 0.350867339 -1.855352347
C -0.303567948 2.503996889 0.869434833
C 1.521206495 0.918981846 -0.704995628
C 2.954007425 -1.030260598 0.750190904
O 5.142658270 -1.499039969 0.379099489
H -2.067765197 -2.472198373 1.142615418
H -4.389277962 -1.772938253 -1.179503552
H -1.687200056 -3.490311529 -2.008419312
H -2.153840918 2.426279710 -0.358828907
H -0.679302080 1.771270910 2.749671566
H 0.094095473 4.514213690 0.787377936
H 2.794787170 2.019858221 -1.881959955
H 1.881071179 -2.078832738 2.212736293

