11

N 3.646315904 -1.397321360 -0.815499782
C 4.435150497 0.040826758 0.691498353
C 1.130408108 1.196454679 0.313147329
C -0.938257430 0.233307080 -1.452035451
C -1.950430553 -0.973949840 0.976040954
O -0.133916330 0.480458691 2.433169387
H 1.807376206 3.126359064 0.235955248
H -2.099427615 1.806495840 -2.099204023
H -0.425948426 -0.986975458 -3.010257353
H -3.877029845 -0.525446739 1.540212604
H -1.573929759 -2.990903704 1.169054349

