9

C -0.854205927 -3.407695443 -0.666804357
C 1.295950706 -2.011675159 0.035145448
C 2.732309574 -0.231595593 -1.284860848
H 2.536261261 0.506377135 -3.173516783
N 4.529444675 0.470941142 0.288562086
H 5.940693467 1.723090717 0.049203366
N 4.314538576 -0.778458410 2.560503215
N 2.429049180 -2.221932721 2.408823970
H -1.306456884 -2.852189151 -2.630002599

