14

C -4.033267714 1.359591164 0.527635893
C -1.594032080 -2.231780424 -0.421482304
C 0.849808043 -1.178026297 0.179464720
C 2.756178233 -0.358406666 -1.401788313
N 4.713747056 0.085902206 0.131979191
N 4.093269278 -0.349010740 2.560727488
N 1.810312727 -1.123966996 2.599940779
H -6.090893832 1.328764723 0.593657235
H -3.217380029 2.220555375 2.204433365
H -3.363377132 2.260873948 -1.184793179
H -3.537032739 -0.818391327 0.719478583
H -1.983898661 -1.939612022 -2.438786900
H 2.837644061 -0.110280694 -3.420627198
H 6.476637390 0.652683114 -0.290914228

