9

C -2.156618306 0.117396401 2.310979110
C 0.141262565 -0.450792693 3.762873587
H 1.292843486 1.220101200 4.126540987
H -0.668588070 -0.935452321 5.623888290
H 1.306551937 -2.055061627 3.141019030
C -3.104039490 -2.065802225 0.881360913
H -1.752862842 -3.573431227 0.413511212
H -4.489233911 -2.848674714 2.232008646
H -4.233342619 -1.526759663 -0.756773935

