17

C -0.026272390 2.692735629 -1.568730933
C -1.139320907 0.174903961 0.861565163
C 1.991707311 -0.085887580 -1.638548736
C 0.442239660 -0.185226004 3.159923699
C -2.359840908 -2.147442778 -0.154003042
H 0.103514114 4.091636233 -0.075448884
H -1.890058017 2.704862739 -2.422780164
H 1.266233307 3.368170592 -3.065931216
H 3.764837296 0.892204975 -1.291671478
H 1.756591404 -0.506111836 -3.635943405
H 2.056672014 -1.871844345 -0.628987064
H 1.588238482 1.470348862 3.612752308
H -0.911662521 -0.416127727 4.709113599
H 1.683539109 -1.868131960 3.173188046
H -1.173006050 -3.868343492 -0.209741931
H -3.930250882 -2.533997085 1.138497686
H -3.185391066 -1.868677675 -2.025110054

