13

C 2.351333871 1.953105025 -2.479410759
O 0.856877811 0.568570554 -0.781975360
C -1.723506722 1.216609496 -0.886540709
C -3.129757113 -0.578259331 0.831358420
O -2.889053210 -3.105363678 0.027231898
H -1.113502996 -3.424376698 -0.181810513
H -2.435997570 -0.345481922 2.772674162
H -5.141782420 -0.123870451 0.811792026
H -2.010843812 3.181410566 -0.272535092
H -2.428422943 1.030899439 -2.831892000
H 1.762878769 1.630337007 -4.441926545
H 2.251310422 3.987478384 -2.087561515
H 4.297844395 1.324631268 -2.250496366

