10

N -2.615343105 -0.690776365 -0.361847706
C -1.640294881 -1.661346902 1.669411006
O -2.162925304 -2.968171621 3.407542998
O 1.268364616 -0.775651373 1.876783598
C 2.339048157 0.647109273 0.250475828
N 1.217292972 1.529983441 -1.728523869
H -0.822498023 0.802057385 -1.705362856
H -4.442762503 -1.209850381 -0.554213946
H 4.315255916 1.085187151 0.643296467
H 2.183024602 2.639793251 -2.928449691

