12

C 2.140803112 -3.740777681 -0.622286832
C 2.896188306 -1.567672592 -1.605583049
C 2.726364798 0.951038952 -0.324553054
C 1.065984794 2.814708796 -1.776372831
H -0.869146329 2.114340162 -1.920751138
H 1.773074521 3.103743427 -3.694461061
H 1.017048862 4.651178337 -0.839129692
H 2.000744435 0.700399682 1.593551352
H 4.629561722 1.743942144 -0.141220310
H 3.686243738 -1.556606866 -3.505568648
H 2.295445731 -5.500793685 -1.656153632
H 1.334275467 -3.837582322 1.261291636

