18

C -3.146604551 0.939939532 1.226481161
C -2.704373810 -1.679363986 1.489901367
C 0.651690573 -2.621858427 0.803318796
C 1.781448843 -1.284180981 -1.165570299
C 3.404616455 0.992748477 -0.888100830
C 1.121025996 2.639224084 -1.147057144
H -0.978778147 1.721594546 -0.121798745
H -3.076551912 2.121138603 2.902770033
H -4.489865136 1.566479117 -0.191581398
H -2.717195658 -2.453103012 3.388329851
H -3.700884845 -2.893336955 0.170254308
H 0.210042189 -4.575854345 0.370526255
H 1.534187099 -2.396320143 2.645817452
H 1.282830054 -1.793525364 -3.092119041
H 4.272348380 1.105698976 0.977109141
H 4.861396611 1.208840076 -2.327345915
H 0.662992780 3.104885880 -3.092982892
H 1.056972879 4.307476235 0.055478825

