10

O 1.474858202 4.152441044 1.466946883
C 1.028218334 2.195566922 0.421310830
C -1.433598867 1.275699569 -0.700968130
H -2.142207897 2.546215733 -2.168897387
H -2.938065166 1.160222185 0.711655306
C -0.938970537 -1.303863556 -1.796545562
O 1.434833954 -1.825273954 -1.375463748
C 2.892942588 0.082293226 -0.057032369
H 4.458384547 0.670303828 -1.258858595
H 3.626657461 -0.727455571 1.688618957

