13

N -4.274296537 -1.611145345 -0.261692940
C -2.062954881 -0.710756798 -0.104381517
C -1.113658691 2.000183961 0.171542421
C 1.719680083 1.715389554 0.212963990
C 2.231948080 -0.747657915 0.008473154
O 4.407061948 -2.047989535 -0.051707612
N 0.070444096 -2.208012960 -0.166280328
H -5.582396727 -0.213146518 -0.178333587
H -1.882639859 2.824947105 1.903901678
H -1.805695597 3.138469903 -1.408511581
H 3.073362829 3.226227575 0.394320722
H 5.794885129 -0.887435854 0.071947524
H 0.038143309 -4.092437099 -0.374341385

