13

N -4.354430184 -1.386367751 -0.197464588
C -1.921145561 -0.290958278 0.046610832
C -0.791821986 2.119367363 -0.398430007
C 1.850249311 1.857076495 -0.371055076
C 2.331275166 -0.679744314 0.001792273
O 4.496988232 -1.962289321 0.268943441
N 0.149851389 -1.950999209 0.255942560
H -5.560470669 0.021800372 -0.703410072
H -2.825802452 0.147163915 1.985020175
H -1.856858250 3.847880971 -0.583416772
H 3.245675351 3.338351413 -0.478339306
H 5.897179670 -0.838683754 0.015894203
H -0.046806815 -3.835963715 0.375809116

