15

C -1.548934578 2.244907557 0.561009023
C -0.975686914 -0.227104281 -0.003791093
C 3.518903765 -0.611953696 -0.270179586
C 3.714451453 1.910563246 -0.219820747
N 3.078432775 4.061755052 -0.047121247
C -1.527255999 -2.829646892 0.695992349
N -1.572915411 -1.911830686 -1.947748219
H -2.572866616 3.330703427 -0.847714774
H -1.917897273 2.708111972 2.522458210
H 0.811300640 3.631826447 0.269583642
H 3.548399952 -1.581211063 -2.069551291
H 4.084913967 -1.659160659 1.393834059
H -3.319018495 -3.178963711 1.633464881
H -0.051709218 -4.184874602 1.103218767
H -3.328182608 -1.639723692 -2.660959072

