8

C -2.025665482 -0.003475584 -1.224337607
O -0.565919627 0.086849639 -3.293162903
H 1.182104855 0.196004000 -2.831915810
C -4.533616226 -0.159879901 -1.391692130
C -6.042933471 -0.251906804 0.830594668
N -7.278133507 -0.327515540 2.616956005
H -5.471908635 -0.217219029 -3.207817750
H -1.077702872 0.054570132 0.595397786

