10

O 3.906836098 -0.940376815 -0.256073386
C 1.492283575 -0.244221004 -0.019788475
C -0.540349951 -1.843814643 0.458085789
N -2.754174424 -0.198068091 0.625563277
C -1.763879587 2.070539788 0.107903135
N 0.731734553 2.143952038 -0.226545243
H 4.873513989 0.561145745 -0.603958718
H -0.607731726 -3.751648595 1.165433332
H -2.330220604 -1.575925744 -1.195415197
H -2.947085263 3.726521682 -0.055818674

