17

C -2.515847494 -0.575412988 0.860796290
C -1.235341331 -2.788070914 -0.499892313
O 1.217339138 -2.206461061 -1.404737930
C 2.866518453 -1.079063513 0.398344459
C 2.730943321 1.757175821 0.231291101
C 0.422108465 3.018230050 -0.301515479
C -2.028363104 1.962416405 -0.296117892
H -1.888290915 -0.535263262 2.838304993
H -4.544533306 -0.952253195 0.909480133
H -1.170367615 -4.451457870 0.740777989
H -2.305122282 -3.300837685 -2.188352571
H 2.443512085 -1.822842991 2.288072020
H 4.775571374 -1.701505302 -0.075303545
H 4.465143153 2.825119920 0.079818687
H 0.575291592 4.998141654 -0.820693259
H 0.673545350 1.741539036 -2.134957112
H -3.552896423 3.076833217 -1.069478708

