12

C -2.437827335 0.569307509 1.793724863
N 0.014174477 1.054855497 0.668917903
C 0.196510976 0.934390351 -2.057622036
C 1.277179376 -1.073150503 -0.434372541
C 6.060865611 -1.483540814 0.226715470
N 3.888867089 -1.273673556 -0.052549428
H -2.177023077 -0.077635921 3.732219773
H -3.542717149 -0.851791159 0.755778238
H -3.510250577 2.327704415 1.831989757
H 1.448119504 2.299782464 -2.927129037
H -1.483833211 0.443262626 -3.132068910
H 0.338388306 -2.896551020 -0.394940307

