10

O -1.654263283 1.866891524 -2.380100265
C -2.175692521 -0.333430005 -1.433652460
N -2.231040161 -0.699292226 0.976270594
C 2.346061252 0.093639180 1.788855076
C 2.281910946 1.514202451 -0.266569302
N 1.568833149 2.589310899 -2.131292858
H -2.457877953 -1.867707395 -2.805705781
H -2.629775095 -2.551040771 1.327034395
H 2.012952028 0.942407155 3.617733437
H 3.065582656 -1.817459993 1.693114597

