17

C -2.440547313 -2.381644323 0.180176712
C -0.664971304 -1.316018879 -1.769866863
C 0.090426834 1.410384715 -1.821723291
C -0.867835747 3.303277435 0.073703911
C 2.025829113 -0.580115099 -1.102844695
C 2.910189003 -0.778117106 1.458397100
C 3.658281498 -0.948172955 3.590417975
H -4.402569748 -2.007344738 -0.339804316
H -2.200179063 -4.424501512 0.336582597
H -2.110935632 -1.582332445 2.048712979
H -0.831363409 -2.198905973 -3.612295278
H 0.379349858 2.188724412 -3.695909460
H 0.366496206 4.954918534 0.134309223
H -2.763444853 3.943775047 -0.432784605
H -0.941137694 2.522405618 1.977205156
H 3.458401519 -1.004150082 -2.502150173
H 4.334010730 -1.102182630 5.477873027

