16

O 4.613896781 0.612490605 0.150337993
C 2.583888009 -1.032280149 0.654588506
C 0.135160809 -0.356607534 -0.724700274
C -1.878561453 -2.343861686 -0.155595911
C -3.029734684 2.729950970 -1.400626963
C -0.693215302 2.379291859 0.043047338
H 4.425626504 2.116505713 1.140578388
H 3.186903452 -2.898780935 0.008152732
H 2.218926242 -1.170242345 2.693540407
H 0.527200783 -0.334572911 -2.750736332
H -2.478587027 -2.255131051 1.819968604
H -1.143250309 -4.240047481 -0.506774544
H -3.549797140 -2.101806686 -1.340375729
H -4.631185375 2.290383004 -0.126374698
H -0.825833579 2.460912872 2.115091820
H 0.800128731 3.633076482 -0.641292318

