16

O 4.868811160 0.424053465 0.379555990
C 2.734593082 -1.088664512 0.905842259
C 0.453538446 -0.381950556 -0.672251285
C -1.868447241 -2.034984988 -0.244604940
C -3.376030700 1.711275677 -1.132724610
C -0.718902425 2.214818015 -0.155465066
H 4.497212486 2.134229095 0.851623975
H 3.296387550 -3.033150194 0.490876108
H 2.245520131 -1.004450568 2.923924629
H 0.968020749 -0.482187034 -2.670500715
H -2.407977392 -2.212845387 1.732829931
H -1.868257891 -3.883677353 -1.160067984
H -3.439952727 -0.980508305 -1.450643516
H -4.741758523 1.805338685 0.435228720
H -0.604259752 2.643259651 1.873596518
H 0.175716751 3.754093844 -1.201661385

