12

C -3.647799244 -0.619187908 0.939725691
C -0.980897777 0.137165638 0.615126414
O -0.289205406 1.953263649 -0.727528495
C 2.497194026 1.701071534 -1.213855164
H 3.198246552 3.637403842 -1.173104486
C 3.182424366 0.206489882 1.124323871
H 3.510626292 1.229478021 2.917701534
H 4.686229185 -1.165416079 0.838819418
O 0.824309061 -1.239263287 1.552764486
H -3.985278497 -2.346128545 -0.141386852
H -4.885959101 0.866110805 0.249349381
H -4.038042145 -1.020543400 2.920156383

