10

O 3.428859884 -0.986635439 0.628631606
C 1.080212258 -0.205889762 0.200873371
C 0.489759885 2.327186441 0.062477520
N -1.874165477 3.041922624 -0.364289440
N -3.709573238 1.400673337 -0.669147164
C -3.340322379 -1.139582955 -0.570365643
N -0.839957373 -1.803708626 -0.117526471
H 3.556053324 -2.799785213 0.675871339
H 1.916827991 3.770453279 0.301339545
H -0.520130127 -3.686112988 -0.031695639

