10

O 3.679688316 -0.821040175 0.383893856
C 1.267755501 -0.179957107 0.208769761
C 0.491356760 2.331382332 0.063021327
N -1.903763426 2.914883782 -0.324553092
N -3.670319280 1.172855099 -0.670069124
C -3.065600779 -1.245914027 -0.305925136
N -0.562573187 -1.870474200 0.233573834
H 3.821170788 -2.629455429 0.556882636
H 1.821294077 3.874461329 0.259542054
H -1.855137768 -3.551800382 -0.398557961

