17

O 5.091822502 -0.931043117 -1.889575872
C 4.497507321 -0.142269033 0.582279251
C 1.688057784 -0.269965291 1.085901619
C -3.577754580 -0.968125799 -1.339672146
C -3.845970061 0.421097518 1.146081535
C -2.090636194 1.378196538 -0.845736439
O 0.535309692 1.422161148 -0.619092628
H 4.033699555 0.026989106 -3.012640543
H 5.159903325 1.792748725 0.928336368
H 5.491853580 -1.402406802 1.877596880
H 1.029387980 -2.211379451 0.778002324
H -2.600944356 -2.764051040 -1.290858650
H -5.097258771 -0.872336999 -2.703940496
H -3.053037936 -0.493539300 2.793053763
H -5.553440359 1.482122328 1.518781390
H 1.290080895 0.268015737 3.048705947
H -2.675981412 3.059922095 -1.852152983

