17

O 5.479968695 -0.189117063 -1.764512777
C 3.876369121 -0.256135180 0.351895124
C 1.146028698 -0.764401871 -0.416001304
C -2.996366826 -2.023690510 0.244766379
C -3.608016465 0.592930560 0.771451683
C -1.248625860 2.258520011 0.331432470
O 0.175505479 1.379335854 -1.680864428
H 4.900984465 1.144620361 -2.851177222
H 3.943287649 1.515157009 1.428429653
H 4.539186194 -1.791475106 1.558936143
H 1.120164130 -2.468538881 -1.570394592
H -3.388763410 -3.482843482 1.628307101
H -2.966268270 -2.643606737 -1.702690935
H -4.376085633 0.959028109 2.645926112
H -4.963709974 1.273989159 -0.647749965
H 0.174164492 0.035144786 1.620109601
H -1.529452617 4.306473168 0.237500156

