11

C -3.289831183 -0.656233021 -1.074934726
C -0.804795050 -0.432049615 -0.758982401
C 1.339328027 -0.956528228 -2.369803072
H 1.323691564 -1.682314188 -4.268859171
C 3.314941146 -0.321344148 -0.918645682
O 5.785075768 -0.389929547 -1.372614476
H 6.639260549 0.213828823 0.118069710
N 2.502862959 0.559711631 1.487535298
N 0.141480923 0.505133941 1.598713536
H -4.546575118 -0.128559939 0.449965182
H -4.097346079 -1.356501745 -2.818955256

