10

C -2.690039047 2.267503769 -0.404575094
C -1.955504241 0.474537461 1.653566918
C -2.442169397 -1.976728095 1.587721150
O -1.748946328 -3.572312074 3.491169068
H -2.270222442 -5.256351847 3.090779206
H -3.422194612 -2.842283282 0.001146440
H -0.970235470 1.222286177 3.290951678
H -1.034176489 3.195692908 -1.219461660
H -3.932999319 3.758019920 0.302878273
H -3.679763697 1.295087536 -1.931673018

