13

C -4.506930364 0.552453496 -0.269396805
C -2.108283136 -0.009427258 1.108172759
O -0.473156336 -0.853205279 -0.509496789
C 2.011572453 -1.427292227 0.458656732
C 3.804397239 0.694247999 -0.189032120
H -4.907025655 2.561846338 0.012478447
H -6.040951961 -0.446131665 0.687998297
H -4.491736437 0.101806482 -2.288125858
H 1.831997958 -1.698708696 2.492996359
H 2.562737590 -3.196921721 -0.443467321
H 3.210330783 2.437859914 0.737300212
H 5.707708208 0.226912833 0.452282137
H 3.865296970 1.013727271 -2.224871736

