13

C -3.174925838 0.749284421 0.143592257
C -1.925704979 -1.719325778 0.826629758
O -0.365809612 -2.556702863 -1.204652160
C 1.489568662 -1.471570268 0.329742015
C 2.806975545 0.848102603 -0.635680322
H -3.550407994 1.883929598 1.822945547
H -5.016170208 0.144486740 -0.582743462
H -2.274250072 1.878246284 -1.333962660
H 0.242928545 -1.140431159 2.244321931
H 2.742255921 -2.926095300 1.089573206
H 1.496778591 2.375477201 -1.058899965
H 4.176480722 1.510833448 0.755969478
H 3.818236138 0.380928781 -2.371339438

