11

C 1.484721514 1.982277219 -2.398700102
C -0.191527428 0.832855499 -0.977805052
C -2.095909607 0.979075533 1.032496995
H -3.850392814 1.935664573 0.574391345
H -1.510616885 1.117814048 2.991801588
C -1.561317028 -1.479347738 -0.391085152
O -3.287164799 -2.375118040 -2.167545099
H -4.642043137 -3.191179959 -1.281108098
H -0.552125949 -2.937445336 0.652954989
H 2.474926401 0.978349519 -3.883814415
H 1.912795731 3.968917797 -2.142474650

