12

C -1.425017432 -1.804348771 -1.959246446
C 0.068245059 -0.307497293 -0.608415770
C -0.828916006 2.016267836 0.752158108
O -0.425210639 1.828189291 3.390905396
C 2.813389389 -0.921645037 -0.357152190
O 3.788539318 -2.798673203 -1.186767470
H -1.336602249 0.386078247 4.006549141
H -3.422198127 -1.408945765 -2.188292591
H -0.659055290 -3.466000164 -2.879207680
H 0.253518211 3.668069637 0.147536248
H -2.818485905 2.380375712 0.307701780
H 3.947392682 0.508030910 0.667287277

