13

C -3.724266086 0.096768132 1.901211162
C -1.614724316 0.209737944 -0.013629234
H -2.024850254 -0.692662576 -1.812044737
C 0.069251149 2.554531889 -0.188193308
H 0.673579932 3.177707099 -2.043667977
H -0.286564986 4.069995354 1.146497709
C 1.027287662 0.151072454 0.790356031
C 2.912630095 -1.128954720 1.774486487
H 4.739185415 -0.257961694 2.093495519
H 2.698694030 -3.099308051 2.294100284
H -4.182216287 -1.857004421 2.381177806
H -3.176136019 1.057952588 3.642703465
H -5.434301706 0.996329867 1.176148287

