12

O 4.152882918 -1.508800480 0.771493276
C 2.964807757 -0.371073708 2.366855817
C 1.842644921 2.132584334 1.962585177
C -1.328597822 -0.296947708 -2.640304743
C -1.836411905 0.198404991 0.118868743
O -0.336306470 2.368637697 0.971057766
H 2.968472692 -0.963849670 4.385958243
H -1.709769301 1.388401172 -3.762813211
H 0.629191645 -0.870083803 -2.926549156
H -2.565081776 -1.809217537 -3.301108237
H -1.355056955 -1.417079713 1.307749079
H -3.786273386 0.755560787 0.469494670

