18

C -4.261586541 0.850076025 -1.050795572
C -2.318155647 -0.934043341 0.090653186
N 0.187669098 0.196422291 0.256178965
C 0.695883633 1.684605595 2.477912168
C 2.199376213 -0.862571461 -0.980769030
O 1.457106361 -1.970390596 -3.181981887
C 4.627757317 -0.788842738 -0.246409043
H -6.131202559 -0.023573086 -1.056754596
H -3.748138221 1.315078911 -2.991934568
H -4.388191974 2.611236258 0.017467022
H -2.194171642 -2.643305968 -1.044288149
H -2.907747515 -1.514773338 1.991262338
H 1.302224861 0.528099461 4.093184391
H 2.164899634 3.074574597 2.081701247
H -1.015065311 2.696889096 3.016863646
H 6.099762827 -1.450977204 -1.499471677
H 2.866874855 -2.897621493 -3.842828807
H 5.186812703 -0.031330223 1.558955777

