13

N -3.495792112 -0.711350852 -1.759755864
C -2.049781316 0.675294538 -0.149093042
O -2.833125651 2.331443654 1.197768246
C 0.511540320 -1.734788557 1.662806753
O 2.411643781 -0.598665501 2.547221880
C 3.803182504 1.449664487 0.240023696
N 2.587211074 1.823068587 -1.597108875
H -5.292528934 -0.151690848 -2.049818790
H -2.664866723 -1.732248292 -3.126506898
H 0.759952416 -3.075657353 0.098703306
H -1.084551050 -2.058291263 2.923682215
H 5.522669249 1.819427009 1.252690453
H 0.328250114 0.820311705 -0.904750186

