17

C -3.084646705 -1.439993776 0.673504400
C -1.063048103 0.560379177 0.379615422
C -1.591324745 2.043103062 -2.055107453
N 1.354736419 -1.929738713 1.737487426
C 2.438325977 0.042730374 -0.366813415
C 3.877197161 -1.203994081 1.717853304
H -2.779083905 -2.960990605 -0.682760883
H -3.076142484 -2.252892028 2.555621221
H -4.931347375 -0.593773019 0.282972106
H -0.973872229 1.827164889 1.993175402
H -1.608038730 0.803843592 -3.704450833
H -0.246912711 3.565403859 -2.390261171
H -3.471340436 2.882883425 -1.894625995
H 2.593976293 2.081853880 -0.187214714
H 2.682344895 -0.705621977 -2.253904884
H 5.208926657 -2.604186427 0.991322829
H 4.663588717 0.001955130 3.211896365

