9

C 0.363803308 -3.886378981 -0.338619797
O -0.055172708 -3.078532817 -2.825330152
C 2.098764718 -1.980558211 -3.906273073
H 1.611919906 -1.410151882 -5.823424188
H 2.716375631 -0.308047487 -2.842355980
H 3.680238094 -3.323350730 -3.986363956
H -1.394201592 -4.699375235 0.358653313
H 0.907002947 -2.306637464 0.894271220
H 1.854987497 -5.328038059 -0.245621745

