12

O -2.718664372 -2.199476576 -1.382695106
C -1.974305731 1.067292087 -1.477386939
C -0.018032352 1.463747387 0.500210467
O -0.985946634 1.141696293 2.991172101
C 2.221433361 -0.143211723 0.118949983
C 3.996164189 -1.528892351 -0.117212115
H -1.253798475 -2.993906233 -0.630991723
H -3.787497569 1.782363602 -0.811800851
H -2.058408162 -1.207648566 -2.982588493
H 0.542457770 3.446271953 0.191115808
H 0.379041701 1.292203851 4.177752980
H 5.595701759 -2.728631071 -0.343651363

