14

O 3.383153702 0.468307166 1.041320069
C 4.140391564 1.345475741 -1.097303092
C 0.734708869 -0.242692311 1.243650457
C -0.356593531 -2.067841599 -0.708365406
C -2.817978267 -0.498038945 -0.608145161
C -1.272266560 1.705272679 0.527876341
H 6.177237592 1.729347638 -0.743071530
H 0.554777197 -0.920745414 3.178117076
H 0.610553900 -1.810418155 -2.509500811
H -0.426622794 -4.065171639 -0.216160461
H -3.774072974 -0.146406569 -2.394898862
H -4.177252619 -1.266744138 0.736205834
H -0.541734610 2.936068878 -0.954392743
H -2.099839878 2.825770761 2.042875936

