14

O 4.025712022 -0.907786390 0.175514437
C 3.889863844 1.416623589 0.901354783
C 0.962398058 -0.315177216 1.026491237
C -0.472646110 -2.154457631 -0.717175102
C -2.767733738 -0.371570139 -0.494344285
C -0.915295085 1.767957710 0.193770363
H 4.331722800 2.711768422 -0.735307099
H 0.893205774 -0.781856515 3.014148563
H 0.298922566 -2.130613199 -2.624520050
H -0.627557769 -4.097794643 -0.060611567
H -3.918877282 -0.110528985 -2.179145693
H -3.992215512 -0.867764164 1.086309989
H -0.267547274 2.747830349 -1.499209364
H -1.390398027 3.146583499 1.644367581

