17

C -3.902197595 -0.577785577 1.655548523
C -1.937088406 1.286237797 0.677400845
C -0.766940831 0.468041376 -1.794703684
H -2.099142966 0.396896230 -3.352532674
C 1.866656102 1.124892300 -2.487764539
H 2.317706951 1.612212001 -4.420314030
H 3.000812067 2.090154332 -1.080587539
C 1.209267721 -1.610097567 -1.954600970
C 2.215118519 -2.789578084 0.359705286
O 2.725845275 -4.996246069 0.551603213
H 2.515327668 -1.492863021 1.983265565
H 1.083402380 -2.893273970 -3.542461431
H -0.469275877 1.575775473 2.101875170
H -2.810152439 3.138374718 0.390587153
H -5.407060453 -0.861181530 0.271192782
H -4.767291047 0.098424118 3.400482547
H -3.058395348 -2.422698320 2.037447339

