19

C -4.123858464 -0.369997075 1.736305327
C -2.194998076 1.480600173 0.662317921
C -0.780920175 0.425332470 -1.581124910
C 1.691899049 1.532731329 -2.391087473
C 1.617955294 -1.062286222 -1.253107553
C 2.746543407 -1.694764082 1.280732666
O 4.842145461 -3.050765900 1.328934723
H -5.536220721 -0.866695713 0.315480970
H -5.115284585 0.438231683 3.353618889
H -3.226547052 -2.123001741 2.355000753
H -0.856139400 2.037997476 2.138282520
H -3.150610694 3.220887587 0.085674494
H -1.999720695 -0.227671690 -3.096924048
H 2.110401916 1.694744920 -4.385106430
H 2.473132144 3.035870398 -1.236588286
H 1.976594076 -2.629920849 -2.523485427
H 3.433447213 0.760083166 2.227370502
H 1.344979197 -2.029374825 2.788936257
H 4.725103667 -0.539348528 2.150030135

