10

N -3.408257164 0.309748278 0.301094580
C -0.919927880 -0.397208847 0.253788971
N -0.072391987 -2.555748608 0.979972813
O 2.580323929 -2.350457190 0.793314926
C 3.240605141 -0.047927744 -0.091800306
O 5.342129691 0.689384468 -0.440074790
N 0.971339807 1.196286663 -0.480156977
H -4.019914097 1.231055149 -1.248844426
H -4.560925055 -1.121999545 0.803701220
H 0.847017598 3.046867376 -0.870996030

