10

N -3.206080940 -0.296554664 -0.236579689
C -0.936849603 -0.912649128 0.741569501
N -0.087919187 -2.272147071 2.504949292
O 1.255980296 -2.230374184 -0.158245968
C 3.045314493 0.569771815 -0.405105975
O 5.175219385 0.261894668 -0.897818916
N 1.115401245 1.955792273 0.023748245
H -3.187267980 0.778105012 -1.800653619
H -4.533676301 -1.653583189 -0.137521417
H 1.377579693 3.811978574 0.369511661

