11

O 0.519034294 0.174189323 0.753625046
C -1.336612245 -1.736011039 1.082157788
H -0.687006852 -3.575389153 1.695426317
C -3.839880059 -0.405141804 1.614324280
H -3.859106851 0.751192855 3.318524539
H -5.453297951 -1.684821874 1.624838225
C -3.537285453 0.994185311 -0.961929538
H -4.989109273 0.459727035 -2.320841081
H -3.361523934 3.045489123 -0.902609277
C -1.053590723 -0.423632491 -1.336595219
H -0.131268597 -0.993862659 -3.070251111

