15

C -2.767284626 0.171765617 0.884225530
C -2.689091633 1.708292934 -1.527882840
O -0.463418104 2.519412217 -2.157641460
C 1.852359417 2.114929095 -0.723197980
C 2.630374119 -0.630699666 -0.546677302
O 1.347378091 -1.989856721 1.329453736
C -1.253491640 -2.297357586 0.845087035
H -2.130419124 1.331017257 2.485735294
H -4.745111955 -0.291786885 1.229346496
H -1.531109132 -3.269156521 -0.970419284
H 1.640624789 2.941374851 1.155488232
H 3.267564030 3.182302195 -1.769577016
H 2.409215653 -1.530570824 -2.406775601
H 4.628861900 -0.703938836 -0.038280466
H -1.946131123 -3.540435172 2.333618993

