15

C -2.793319326 0.313013253 1.436762817
C -2.543245556 0.568448194 -1.405623380
O -0.495931995 1.854422904 -2.287739957
C 1.782773390 2.004801847 -0.859134163
C 2.774193710 -0.630127079 -0.373282874
O 1.214607690 -2.049102565 1.288682158
C -1.348303017 -2.012270763 0.775753701
H -1.774962528 1.610875549 2.650951989
H -4.727951315 0.037407714 2.056839103
H -1.999157935 -1.874419173 -1.657099761
H 1.522414634 3.054012827 0.902833437
H 3.106847415 3.043985014 -2.046234943
H 2.952929336 -1.620769191 -2.186803657
H 4.623530567 -0.562431552 0.530687725
H -2.218059387 -3.841222596 1.121236228

