14

O -3.931907322 0.732657854 -1.980303438
C -3.204740274 1.823827727 -0.113938278
N -1.880999785 0.726530814 1.791998522
C -0.969906110 -1.823424743 1.586098801
C 1.433685851 -2.054411164 0.064654012
C 3.011461203 -0.040310504 -0.368780922
C 3.788160447 2.277531166 -0.093283590
H -3.593521812 3.841819353 0.242723434
H -1.136504214 1.861582755 3.120852327
H -2.413975496 -2.952794031 0.635825302
H -0.720881554 -2.611231628 3.478312977
H 4.338775485 -1.570208094 0.553820410
H 1.948710203 -3.920221633 -0.606338375
H 3.240324252 3.707365207 -1.470175007

