14

O 4.176395779 -0.310460875 1.343106648
C 1.689906201 0.255279682 0.993193054
C -0.187698786 2.815012191 -1.656581353
N -2.432687809 1.666465603 -1.143017684
C -2.345987042 -1.076635857 -1.289993174
C 0.303396739 -1.780182462 -0.427449454
O 1.347480363 -3.751695876 -0.911213446
H 4.465984799 -1.913087713 0.498330454
H 0.708551223 0.756658964 2.752084406
H 1.411703366 2.621772180 0.118849581
H 0.751454866 1.930415197 -3.276102323
H -3.467463719 2.410097494 0.269316851
H -2.600560949 -1.727819795 -3.232654515
H -3.774930758 -2.003397082 -0.122341191

