13

C -3.104720226 -0.720585282 0.016011990
N -2.297899220 1.805813535 0.801041015
C -0.965592375 0.552905934 -1.240194752
C 1.697320239 -0.363270916 -0.923857396
C 3.835645958 1.204830909 -0.034161241
O 2.157461842 -1.193229408 1.674573152
H -2.674683170 -2.292965579 1.257700514
H -4.930849583 -0.807606736 -0.905327724
H -1.286116099 1.694540489 2.425787078
H -1.269388583 1.393675039 -3.088937234
H 2.144144715 -1.852016848 -2.279732016
H 3.440495400 -2.479605911 1.662683638
H 2.967609787 2.842923144 0.916475407

