15

C -2.603905897 -2.363908657 0.971478683
N -0.500330673 -1.097539743 -0.398048661
C 1.783651810 -2.087312335 0.647609785
C 3.547020679 -0.020470024 0.536765745
C 2.368081153 2.040011508 -0.476917684
C -0.194204867 1.313185197 -0.955183669
N -2.150419796 2.781470894 -1.667691695
H -3.509998884 -0.986682286 2.221041564
H -3.970109363 -3.216455140 -0.316766135
H 0.177484382 -3.001920826 2.276604312
H 2.384825128 -3.873586292 -0.191085610
H 5.511628127 -0.122661764 1.084572083
H 3.137708646 3.908009259 -0.763567141
H -3.885667046 2.023510363 -1.440981517
H -1.997437169 4.659971554 -1.467797278

