9

O 4.234502722 0.452766701 -0.470232419
C 1.818105561 0.937366386 -0.141475216
C -0.031410517 2.315395343 0.106675758
N -3.102185442 -0.491670833 0.592091975
N -1.696707155 -2.334333631 0.190227731
N 0.432744542 -2.716030812 -0.020030133
H 4.471553595 -1.350838368 -0.530726710
H -1.266014005 3.880467729 0.348278282
H -4.886406721 -0.715974937 -0.076955978

