9

N 3.371054522 -1.663060638 -1.519838389
C 1.424197196 -0.389807508 -1.100824805
C -1.227897983 -1.428123612 -0.840101314
O -2.580398441 0.557072969 -0.422881552
C -1.135253328 2.907373859 -0.362401604
H -1.858479276 4.128835152 -1.856525413
H -1.377896317 3.745865145 1.504676720
O 1.343253102 2.202675278 -0.797051935
H 4.944400696 -0.559607602 -1.615842543

