13

C 2.565789497 -0.892402470 -0.626737004
C 0.729644478 0.436158522 1.133666317
C -1.461269616 1.717922411 -0.291861019
C -2.996016339 -0.132905421 -1.646850567
N -4.146230478 -1.666276158 -2.660539949
O -0.205850097 -1.190617504 3.024340726
H 4.099173822 -1.726895568 0.465603535
H 3.375462498 0.425607198 -1.991888366
H 1.618712470 -2.397807263 -1.678697120
H 1.717902096 1.931991815 2.157328030
H -2.669334319 2.704759371 1.056018907
H -0.742752734 3.102622441 -1.642826773
H -0.929761184 -2.659530628 2.235697958

