11

C -3.300995515 0.931726272 0.407387234
C -0.947443672 0.910079384 -1.174570913
C 1.292947118 0.401408801 -0.330972586
C 3.534313726 -0.254126117 0.482830222
N 4.433026407 -2.845154268 0.453473440
O 2.935392224 -4.389954805 -0.244566730
H -2.887161273 0.475335908 2.369990268
H -4.202100174 2.785984240 0.331717818
H -4.650932182 -0.448842061 -0.318523524
H -1.125118916 1.344968047 -3.175358038
H 4.910913955 1.072876663 1.205431710

