11

C -3.093494800 0.255193813 0.481704247
C -0.367625279 0.045778351 -0.264079947
C 1.597200187 1.896473883 -0.123141301
C 3.729678677 0.178492116 0.000681360
N 3.138680003 -2.204009689 0.132039511
O 0.624122852 -2.420997000 0.023170329
H -3.264233955 0.044029371 2.522742292
H -3.799992703 2.111523280 -0.048410796
H -4.227117332 -1.200712856 -0.430734686
H -0.053621149 0.602787220 -2.356374697
H 5.709245178 0.675747297 0.069242589

