16

C 2.770477809 -1.543237999 0.312153182
H 2.493047174 -0.252697919 1.873185446
H 3.365022158 -3.420507257 0.862338798
C 3.731081326 -0.495843802 -2.141446772
H 4.980326487 -1.655185167 -3.271384036
H 4.129484159 1.510140258 -2.236787933
C 1.018988949 -1.282194312 -1.893132583
C -1.038521102 0.688637006 -1.874964416
C -3.434250479 -0.137367782 -0.536880660
O -2.929917631 -0.378276588 2.081666420
H -4.407391233 -1.021010729 2.905113463
H -4.089518115 -1.942873255 -1.325706466
H -4.923941803 1.269094957 -0.863509994
H -1.530148414 1.197607752 -3.819675958
H -0.343306186 2.412781793 -0.966886686
H 0.506874133 -3.027635557 -2.843353907

