19

C 4.491608276 -0.733926673 1.031418490
C 3.219364676 -0.416704906 -1.520143259
C 0.620192297 -0.561205120 -0.546788097
O 0.490670865 1.289565756 3.014180575
C -1.491751163 1.037419580 -1.536997896
C -4.126823519 0.112019960 -0.881806001
O -4.514257494 0.137968678 1.764689353
H 5.818366034 0.768476876 1.475190605
H 2.219792511 0.315469575 2.920795034
H 5.225827838 -2.618966995 1.381386433
H 3.586978749 -1.877586902 -2.949279613
H 3.583058966 1.416753999 -2.396251017
H 0.101332501 -2.398173946 0.202938029
H -0.732634460 0.398144753 4.027026478
H -1.314612488 0.958788152 -3.607592581
H -1.226259874 3.008681397 -1.008389929
H -4.369206463 -1.813270300 -1.622644839
H -5.508973213 1.325625434 -1.835958012
H -6.200754043 -0.423961606 2.106569854

