14

C -3.393013953 0.406181380 -0.704158082
C -0.965306441 -0.154869840 0.663220605
C -0.006044818 -2.675233175 0.731975777
O 2.145465992 -3.362177723 1.295335997
C 2.169481501 1.542622213 0.312036264
N 4.144440869 0.847949063 -0.994338001
C 0.399034568 1.925907369 1.900448279
H -4.701430369 1.484339809 0.479432664
H -4.337452715 -1.341057089 -1.266411395
H -3.075287458 1.512919668 -2.422954340
H -1.381897018 -4.109488041 0.065414249
H 4.529034585 -1.038395095 -0.823762345
H 4.604002988 1.745906080 -2.604354348
H -0.100697590 3.258959257 3.367817988

