13

C 4.071906567 0.622380411 -0.038428809
O 1.963187017 -0.907345328 0.480866040
C -0.323219966 0.412050756 0.316392404
C -2.426533576 -1.466366926 0.895185545
C -4.913659142 -0.287454008 0.737204762
N -6.850032967 0.676553209 0.603353703
H 3.963917808 1.435436796 -1.942807341
H 4.240907344 2.168848821 1.332242556
H 5.743288878 -0.570206792 0.087003123
H -0.377084058 1.985181596 1.670596242
H -0.583056741 1.211017532 -1.582495812
H -2.169506635 -2.242540033 2.788700967
H -2.340114530 -3.037556015 -0.438028802

