9

O -3.571669246 -0.975636477 -0.178381812
C -1.098368652 -0.279824333 0.053464774
N 0.578095152 -2.232865202 0.619626286
N 2.862565543 -1.720348460 0.679774360
N 0.395360790 4.250238982 -0.179772424
C -0.357732506 2.087837755 -0.236028305
H -3.600128918 -2.790161782 -0.062024156
H 3.779577047 -3.357386946 1.149287285
H 1.014666711 4.995671933 -1.842045594

