14

C -3.337472369 0.213872079 1.163720749
N -0.873127169 -0.366785958 0.117660396
C 0.033801248 -2.762819996 -0.458486562
C 2.446021509 -2.741680273 -1.446397755
C 3.075292806 0.036340265 -1.199954490
C 0.927838028 1.326229750 -0.311493932
O 0.447475090 3.784771375 0.129377888
H -4.078204778 1.930224070 0.306431903
H -3.215694147 0.478381693 3.203550767
H -4.600863926 -1.355063191 0.756148492
H -1.228543627 -4.342184475 -0.166817237
H 3.846174756 -1.518723924 0.336851297
H 4.722732949 0.927368866 -2.017368375
H 1.889031556 4.767876995 -0.360314590

