15

C -4.887176444 0.024388768 -0.238134593
C -2.279087223 -1.087088896 0.066128830
O -0.503741647 0.731978007 -0.856513509
C 1.937967714 0.148048760 -0.536199564
O 2.588335763 -2.174685391 -1.372437427
C 3.593214373 1.783417276 0.415581369
O 6.139266626 1.148063782 0.322572640
H -5.067305856 1.771959300 0.839080729
H -5.268589109 0.438103220 -2.220908924
H -6.306101985 -1.312844064 0.433045349
H -2.086286649 -2.845968532 -0.996364959
H -1.857480896 -1.481100799 2.055474211
H 3.051552801 3.655694709 1.026295235
H 6.844813430 1.282272849 1.985777861
H 4.391572694 -2.320858466 -1.145561010

