15

C -4.348938470 -0.286373746 -0.936371843
N -2.028149527 -0.076452480 0.472542968
C 0.183856897 -1.455576401 -0.441371199
C 2.333489887 0.173518791 0.471562692
C 4.774736096 -0.383407006 0.629800988
C 1.058507563 2.521723427 1.181281595
N -1.353170517 2.341316622 1.088975258
H -4.148853890 0.361992327 -2.900906385
H -5.791509568 0.846768286 -0.006682034
H -4.958620318 -2.255844725 -0.951495831
H 0.229976967 -3.380988302 0.292488956
H 0.173769785 -1.544334720 -2.519322606
H 5.502906720 -2.210934042 0.065718268
H 6.122762438 0.989466306 1.326544994
H 1.952101052 4.253969925 1.792376090

