15

C -4.606628611 -0.410921191 -0.754544266
N -2.052529847 0.111918576 0.040156907
C -0.023981664 -1.396563202 -0.225608260
C 2.211440772 0.031526868 0.439406394
C 4.737052028 -0.807148572 1.041014085
C 1.026480334 2.503405197 0.984844962
N -1.411623015 2.480269280 0.715765309
H -4.877112764 0.033957509 -2.752466357
H -5.878000235 0.741297021 0.376030913
H -5.021512917 -2.401746039 -0.436181671
H -0.172750221 -3.323296362 -0.869583309
H 2.484589024 0.214229728 -1.718798053
H 5.267544770 -2.689471052 0.434045940
H 6.203518070 0.616429682 0.945161110
H 1.993571470 4.205864924 1.555213703

