11

C 3.723113995 2.088400969 -0.170127168
C 2.542834881 -0.435706802 -0.034566095
C 2.193976396 -2.500648635 -1.437770551
H 2.688160583 -3.118103267 -3.309953101
C 0.789179960 -3.585246248 0.778663105
H 1.653378343 -5.173475054 1.768956827
H -1.242754254 -3.865943389 0.571326852
O 1.298008920 -1.224746562 2.121274191
H 2.306224824 3.557321576 0.132120164
H 5.164577581 2.289974464 1.292122952
H 4.594780576 2.363695931 -2.013849950

