11

N 4.012239447 -0.760890363 0.053825277
C 1.558831093 -0.251480917 0.156692008
C -0.243528666 -2.264920286 0.259988501
C -2.608374929 -1.252189543 0.362667696
C -3.054809044 1.420624858 0.359549157
N -1.342781918 3.136796173 0.257277973
O 1.108482164 2.205271969 0.147045958
H 5.331855344 0.601656616 -0.025154957
H 4.481912205 -2.601151961 0.048046627
H -4.276997012 -2.448186795 0.448218546
H -4.946381828 2.210114430 0.444218997

