11

N 4.053008965 -0.700007715 0.024919081
C 1.783943735 0.214184677 0.141294917
C 0.126812472 -1.967687683 0.240421483
C -2.332520249 -1.359371578 0.368166251
C -2.983964799 1.305166012 0.387029138
N -1.485521436 3.198461508 0.297520201
O 1.133313695 2.598440166 0.163913767
H 5.649577435 0.344530351 -0.064235514
H 2.861682153 -2.798165472 0.099154723
H -3.855768328 -2.724596846 0.460640377
H -4.944142333 1.902599714 0.486542834

