11

O 3.689292187 -0.312459374 -1.868235687
C 2.913803180 0.117574734 0.608571521
C 0.113035782 0.123516468 0.914818250
N -1.300348401 -0.282691614 -0.968852455
C -3.928561297 -0.136563893 -0.652763333
O -5.008777316 1.576802256 0.359303757
H 3.694054052 -1.320275317 1.889436184
H -0.649300693 0.476014433 2.804722500
H 3.619598086 1.948356692 1.291333425
H 2.181301511 -0.576317732 -2.862204567
H -4.926288956 -1.738982842 -1.530837314

