16

C 2.968739541 -1.559429512 -0.269297859
C 0.918855782 -0.874122828 1.606032937
N 0.872388966 3.537907324 2.345083999
C -1.072757969 2.961584527 0.953737632
O -2.115897939 4.942269293 0.299748925
C -1.555584165 0.203887370 0.526742751
C -2.257082893 -0.455333951 -2.178672695
H 3.421272048 0.026340212 -1.505781511
H 2.376050563 -3.144748764 -1.450381884
H 4.694423453 -2.114297587 0.709149416
H 0.579043832 -2.386276306 2.966979960
H 1.718148422 0.706445369 2.873426177
H -3.123653978 -0.311780395 1.770431418
H -0.768041143 0.060902774 -3.505563470
H -3.960599619 0.570615521 -2.719502655
H -2.632524401 -2.473012637 -2.376913847

