10

O 3.121745903 -2.005738169 0.695424713
C 1.284391780 -0.718989465 0.027204063
C 2.102850268 1.847739264 -0.326834199
O -0.991273054 0.214719677 1.845542098
C -2.559636436 -0.848368752 -0.004315001
O -0.594164948 -1.653146398 -1.626752045
H 2.175873481 2.796519860 -2.150258546
H 2.846193239 2.774185357 1.338085457
H -3.822245966 0.517060059 -0.910549378
H -3.637599882 -2.451733206 0.740286433

