12

C 2.936419611 0.728226768 -1.488043067
H 3.487207219 1.695044933 -3.235920510
H 4.707122432 0.055453427 -0.647885383
C 1.613999171 2.521695970 0.270083872
H 2.566727690 4.224908866 0.883459794
C -0.702526738 2.111533881 1.120591095
H -1.698502962 3.370611911 2.384946997
O -2.154702256 0.062693667 0.528172102
C -1.081695051 -1.648606652 -1.077436874
H -2.359901512 -3.197942532 -1.453995475
C 1.212569130 -1.454481115 -2.055585024
H 1.843212840 -2.941566998 -3.310905088

