14

C 2.476322852 0.757112914 -1.485961609
C 1.243161263 0.957181148 1.053990192
C -1.357051277 1.869201526 1.116800077
O -2.669238831 0.809476998 -0.761684426
C -1.715533438 -1.487385783 -1.193368548
C 0.981437767 -1.489010323 -0.629623656
H 1.787107854 1.898642759 -3.038613789
H 4.501902257 0.503151467 -1.434917197
H 2.391562380 1.061524681 2.740050800
H -2.045297431 3.664247212 1.794959307
H -2.415589057 -0.770869912 2.921587000
H -2.715741798 -2.640728212 -2.545483785
H -2.551460592 -2.084505110 2.031298472
H 1.930032603 -3.257260374 -0.243179803

