13

C -3.482147043 -0.089775786 -2.368754992
O -2.395598948 -0.093130655 0.068172153
C 0.111709572 0.296762099 0.232979817
N 1.672435305 0.678508055 -1.541684115
N 0.793748070 0.283173683 2.783252717
C 3.036022918 -0.363282405 3.287385991
O 3.913764798 -0.344735991 5.634471040
H -5.491511123 -0.419316470 -2.095270879
H -2.699646471 -1.598346362 -3.545842038
H -3.213284992 1.732489459 -3.307205647
H 0.866943834 0.645309327 -3.276912770
H 2.567789754 0.251120470 6.716311203
H 4.431823729 -0.977953395 1.906359777

