8

N 4.691206516 -0.371855904 1.630741673
C 2.760594466 0.038740482 0.739557415
C 0.331918186 0.586954774 -0.446411722
C -1.576473047 -1.439226131 -0.730429074
O -1.665670822 1.217677721 1.254416321
H 0.484676106 2.034999652 -1.893357479
H -2.881918398 -0.933855597 -2.252666716
H -2.160159463 -0.718436002 1.788472804

