11

O 2.129048997 -0.899241993 3.850998282
C 1.273604109 -0.202015389 1.892988151
C 1.544865431 -1.119547248 -0.864760010
C -0.396654062 0.909408493 -1.496331236
N -2.743406632 0.325276819 -0.227089182
C -0.345818350 2.089167423 1.113413612
H 3.435457031 -0.653729210 -1.542052687
H 1.115051684 -3.077117072 -1.349654662
H -0.551278936 1.897896809 -3.280394382
H -2.817888865 -1.395663484 0.613220115
H -2.992209334 1.990850037 1.139209546

