15

C 3.051115764 -1.016548954 -0.123847435
C 0.530585075 0.168681433 0.595548095
H 0.244714677 -0.041497082 2.633067943
C 0.195827443 2.946249872 -0.172609209
H 1.752398593 3.605363025 -1.364857812
H 0.122168394 4.225439010 1.446987652
C -2.242182629 2.995654116 -1.626932155
H -3.020118151 4.736365679 -2.375818297
C -3.284574173 0.724189104 -1.899259755
H -5.012079952 0.264476998 -2.887948476
C -1.685494049 -1.204045954 -0.662111733
O -2.021762290 -3.456129804 -0.637266067
H 3.396187029 -0.824435786 -2.151077459
H 4.611785579 -0.115365229 0.878667203
H 3.047530745 -3.025798177 0.331482585

