29

C     3.56678   2.31241  -0.09063
O     2.24974   1.75520  -0.07359
C     2.07015   0.66148   0.66358
O     2.91643   0.16857   1.38294
N     0.74718   0.20349   0.48557
C    -0.14312   0.23446  -0.79230
O     0.23436   1.02818  -1.83586
C    -0.19212   2.42255  -1.79844
C    -1.17624  -0.60902  -0.65492
C    -2.36049  -1.37463  -1.18345
C    -3.70565  -0.71619  -1.09047
O    -2.21124  -2.52827  -1.54582
N    -0.87397  -1.14762   1.02378
C    -1.56225  -0.21382   1.75036
N    -2.28708   0.52749   2.28303
N     0.49533  -1.00358   1.18816
C     1.22248  -2.17774   0.71054
H     3.86056   2.65041   0.91112
H     4.29179   1.57588  -0.46322
H     3.49483   3.16029  -0.77717
H    -0.03511   2.85846  -0.79739
H    -1.24621   2.48216  -2.08481
H     0.42884   2.98727  -2.53220
H    -3.75009   0.16472  -1.72888
H    -3.88226  -0.38009  -0.04941
H    -4.51107  -1.43426  -1.37288
H     1.01568  -2.37837  -0.33764
H     0.91892  -3.01562   1.34615
H     2.30593  -1.98276   0.86274
29

C     3.56614   2.31193  -0.09060
O     2.24959   1.75258  -0.07088
C     2.07336   0.65988   0.66813
O     2.92303   0.16719   1.38381
N     0.74978   0.20556   0.50337
C    -0.15940   0.23563  -0.81869
O     0.23997   1.03368  -1.83704
C    -0.19092   2.42563  -1.79913
C    -1.18285  -0.60528  -0.67290
C    -2.36256  -1.37668  -1.18394
C    -3.70786  -0.71787  -1.08946
O    -2.21356  -2.53159  -1.54518
N    -0.86701  -1.15332   1.04542
C    -1.56027  -0.21362   1.75106
N    -2.28739   0.52774   2.28067
N     0.49371  -1.00157   1.18195
C     1.22481  -2.17716   0.71232
H     3.86060   2.65046   0.91101
H     4.29168   1.57590  -0.46337
H     3.49407   3.16003  -0.77724
H    -0.03569   2.85880  -0.79724
H    -1.24570   2.48231  -2.08565
H     0.42928   2.98889  -2.53175
H    -3.75092   0.16402  -1.72884
H    -3.88259  -0.38038  -0.04915
H    -4.51191  -1.43471  -1.37217
H     1.01595  -2.37809  -0.33700
H     0.91918  -3.01499   1.34697
H     2.30647  -1.98197   0.86305
29

C     3.56550   2.31145  -0.09057
O     2.24944   1.74997  -0.06816
C     2.07658   0.65828   0.67269
O     2.92962   0.16582   1.38468
N     0.75237   0.20762   0.52117
C    -0.17569   0.23679  -0.84509
O     0.24558   1.03918  -1.83823
C    -0.18972   2.42872  -1.79982
C    -1.18945  -0.60154  -0.69089
C    -2.36462  -1.37873  -1.18443
C    -3.71007  -0.71956  -1.08846
O    -2.21588  -2.53490  -1.54454
N    -0.86005  -1.15903   1.06706
C    -1.55828  -0.21342   1.75176
N    -2.28771   0.52798   2.27831
N     0.49209  -0.99955   1.17573
C     1.22714  -2.17659   0.71410
H     3.86064   2.65050   0.91089
H     4.29157   1.57593  -0.46351
H     3.49332   3.15978  -0.77731
H    -0.03628   2.85914  -0.79708
H    -1.24519   2.48246  -2.08648
H     0.42972   2.99051  -2.53129
H    -3.75175   0.16332  -1.72879
H    -3.88293  -0.38067  -0.04889
H    -4.51275  -1.43516  -1.37146
H     1.01623  -2.37781  -0.33635
H     0.91945  -3.01435   1.34780
H     2.30701  -1.98117   0.86336
29

C     3.56486   2.31097  -0.09053
O     2.24929   1.74735  -0.06545
C     2.07980   0.65668   0.67724
O     2.93622   0.16444   1.38556
N     0.75496   0.20969   0.53896
C    -0.19197   0.23795  -0.87148
O     0.25120   1.04468  -1.83941
C    -0.18852   2.43180  -1.80050
C    -1.19606  -0.59780  -0.70888
C    -2.36668  -1.38078  -1.18492
C    -3.71227  -0.72125  -1.08745
O    -2.21820  -2.53822  -1.54389
N    -0.85309  -1.16473   1.08869
C    -1.55629  -0.21322   1.75246
N    -2.28803   0.52823   2.27595
N     0.49047  -0.99754   1.16952
C     1.22947  -2.17602   0.71588
H     3.86068   2.65054   0.91077
H     4.29147   1.57596  -0.46366
H     3.49257   3.15952  -0.77738
H    -0.03686   2.85948  -0.79693
H    -1.24468   2.48261  -2.08732
H     0.43016   2.99214  -2.53083
H    -3.75257   0.16262  -1.72874
H    -3.88326  -0.38096  -0.04864
H    -4.51359  -1.43561  -1.37074
H     1.01651  -2.37753  -0.33571
H     0.91971  -3.01372   1.34862
H     2.30755  -1.98037   0.86367
29

C     3.56422   2.31049  -0.09050
O     2.24914   1.74474  -0.06274
C     2.08301   0.65509   0.68179
O     2.94281   0.16306   1.38643
N     0.75756   0.21175   0.55676
C    -0.20826   0.23912  -0.89788
O     0.25681   1.05018  -1.84059
C    -0.18732   2.43488  -1.80119
C    -1.20266  -0.59406  -0.72686
C    -2.36875  -1.38283  -1.18541
C    -3.71448  -0.72294  -1.08644
O    -2.22053  -2.54154  -1.54325
N    -0.84613  -1.17043   1.11033
C    -1.55430  -0.21302   1.75316
N    -2.28834   0.52847   2.27359
N     0.48885  -0.99552   1.16331
C     1.23180  -2.17544   0.71766
H     3.86073   2.65058   0.91066
H     4.29136   1.57599  -0.46380
H     3.49181   3.15926  -0.77745
H    -0.03745   2.85982  -0.79677
H    -1.24417   2.48276  -2.08815
H     0.43060   2.99376  -2.53038
H    -3.75340   0.16191  -1.72869
H    -3.88360  -0.38125  -0.04838
H    -4.51443  -1.43607  -1.37003
H     1.01679  -2.37725  -0.33507
H     0.91998  -3.01308   1.34944
H     2.30809  -1.97957   0.86398
29

C     3.56358   2.31001  -0.09047
O     2.24899   1.74212  -0.06002
C     2.08623   0.65349   0.68635
O     2.94941   0.16168   1.38731
N     0.76015   0.21382   0.57455
C    -0.22455   0.24028  -0.92428
O     0.26242   1.05567  -1.84178
C    -0.18613   2.43796  -1.80188
C    -1.20927  -0.59032  -0.74485
C    -2.37081  -1.38488  -1.18590
C    -3.71669  -0.72463  -1.08544
O    -2.22285  -2.54486  -1.54261
N    -0.83917  -1.17614   1.13197
C    -1.55232  -0.21282   1.75386
N    -2.28866   0.52872   2.27123
N     0.48724  -0.99350   1.15710
C     1.23414  -2.17487   0.71944
H     3.86077   2.65062   0.91054
H     4.29125   1.57601  -0.46395
H     3.49106   3.15900  -0.77752
H    -0.03803   2.86015  -0.79662
H    -1.24366   2.48291  -2.08899
H     0.43104   2.99538  -2.52992
H    -3.75423   0.16121  -1.72864
H    -3.88393  -0.38154  -0.04812
H    -4.51527  -1.43652  -1.36932
H     1.01706  -2.37697  -0.33443
H     0.92024  -3.01244   1.35027
H     2.30863  -1.97878   0.86429
29

C     3.56295   2.30953  -0.09043
O     2.24884   1.73951  -0.05731
C     2.08945   0.65189   0.69090
O     2.95601   0.16031   1.38818
N     0.76275   0.21588   0.59235
C    -0.24083   0.24144  -0.95067
O     0.26804   1.06117  -1.84296
C    -0.18493   2.44104  -1.80256
C    -1.21587  -0.58657  -0.76284
C    -2.37287  -1.38693  -1.18639
C    -3.71890  -0.72632  -1.08443
O    -2.22517  -2.54818  -1.54196
N    -0.83221  -1.18184   1.15361
C    -1.55033  -0.21262   1.75456
N    -2.28898   0.52896   2.26887
N     0.48562  -0.99149   1.15089
C     1.23647  -2.17429   0.72122
H     3.86081   2.65066   0.91042
H     4.29115   1.57604  -0.46409
H     3.49031   3.15874  -0.77759
H    -0.03861   2.86049  -0.79647
H    -1.24315   2.48307  -2.08982
H     0.43148   2.99700  -2.52946
H    -3.75506   0.16051  -1.72859
H    -3.88427  -0.38183  -0.04786
H    -4.51611  -1.43697  -1.36861
H     1.01734  -2.37669  -0.33378
H     0.92050  -3.01181   1.35109
H     2.30917  -1.97798   0.86460
29

C     3.56231   2.30905  -0.09040
O     2.24869   1.73689  -0.05460
C     2.09267   0.65029   0.69546
O     2.96260   0.15893   1.38905
N     0.76534   0.21795   0.61014
C    -0.25712   0.24261  -0.97707
O     0.27365   1.06667  -1.84415
C    -0.18373   2.44413  -1.80325
C    -1.22248  -0.58283  -0.78082
C    -2.37494  -1.38898  -1.18688
C    -3.72111  -0.72800  -1.08342
O    -2.22749  -2.55150  -1.54132
N    -0.82526  -1.18754   1.17524
C    -1.54834  -0.21242   1.75526
N    -2.28929   0.52921   2.26650
N     0.48400  -0.98947   1.14467
C     1.23880  -2.17372   0.72300
H     3.86085   2.65070   0.91031
H     4.29104   1.57607  -0.46424
H     3.48955   3.15848  -0.77767
H    -0.03920   2.86083  -0.79631
H    -1.24264   2.48322  -2.09066
H     0.43192   2.99862  -2.52901
H    -3.75589   0.15981  -1.72854
H    -3.88460  -0.38212  -0.04760
H    -4.51695  -1.43742  -1.36790
H     1.01762  -2.37641  -0.33314
H     0.92077  -3.01117   1.35191
H     2.30971  -1.97718   0.86491
29

C     3.56167   2.30857  -0.09037
O     2.24854   1.73428  -0.05189
C     2.09588   0.64870   0.70001
O     2.96920   0.15755   1.38993
N     0.76793   0.22001   0.62794
C    -0.27341   0.24377  -1.00346
O     0.27926   1.07217  -1.84533
C    -0.18253   2.44721  -1.80394
C    -1.22909  -0.57909  -0.79881
C    -2.37700  -1.39103  -1.18737
C    -3.72332  -0.72969  -1.08242
O    -2.22982  -2.55482  -1.54067
N    -0.81830  -1.19324   1.19688
C    -1.54635  -0.21222   1.75595
N    -2.28961   0.52945   2.26414
N     0.48238  -0.98745   1.13846
C     1.24113  -2.17315   0.72478
H     3.86089   2.65074   0.91019
H     4.29093   1.57609  -0.46438
H     3.48880   3.15823  -0.77774
H    -0.03978   2.86117  -0.79616
H    -1.24213   2.48337  -2.09149
H     0.43236   3.00024  -2.52855
H    -3.75672   0.15911  -1.72850
H    -3.88494  -0.38241  -0.04735
H    -4.51778  -1.43787  -1.36718
H     1.01790  -2.37613  -0.33250
H     0.92103  -3.01053   1.35274
H     2.31026  -1.97639   0.86522
29

C     3.56103   2.30809  -0.09034
O     2.24839   1.73167  -0.04917
C     2.09910   0.64710   0.70457
O     2.97580   0.15617   1.39080
N     0.77053   0.22208   0.64573
C    -0.28969   0.24493  -1.02986
O     0.28487   1.07767  -1.84652
C    -0.18133   2.45029  -1.80463
C    -1.23569  -0.57535  -0.81680
C    -2.37906  -1.39308  -1.18786
C    -3.72552  -0.73138  -1.08141
O    -2.23214  -2.55814  -1.54003
N    -0.81134  -1.19895   1.21852
C    -1.54437  -0.21202   1.75665
N    -2.28992   0.52970   2.26178
N     0.48076  -0.98544   1.13225
C     1.24346  -2.17257   0.72656
H     3.86094   2.65078   0.91008
H     4.29083   1.57612  -0.46453
H     3.48804   3.15797  -0.77781
H    -0.04037   2.86151  -0.79601
H    -1.24162   2.48352  -2.09233
H     0.43280   3.00186  -2.52809
H    -3.75755   0.15840  -1.72845
H    -3.88527  -0.38270  -0.04709
H    -4.51862  -1.43832  -1.36647
H     1.01817  -2.37585  -0.33186
H     0.92130  -3.00990   1.35356
H     2.31080  -1.97559   0.86552
29

C     3.56039   2.30761  -0.09030
O     2.24824   1.72905  -0.04646
C     2.10232   0.64550   0.70912
O     2.98239   0.15480   1.39167
N     0.77312   0.22415   0.66353
C    -0.30598   0.24610  -1.05626
O     0.29049   1.08317  -1.84770
C    -0.18013   2.45337  -1.80531
C    -1.24230  -0.57161  -0.83478
C    -2.38113  -1.39514  -1.18835
C    -3.72773  -0.73307  -1.08040
O    -2.23446  -2.56146  -1.53939
N    -0.80438  -1.20465   1.24016
C    -1.54238  -0.21182   1.75735
N    -2.29024   0.52995   2.25942
N     0.47914  -0.98342   1.12604
C     1.24579  -2.17200   0.72834
H     3.86098   2.65082   0.90996
H     4.29072   1.57615  -0.46467
H     3.48729   3.15771  -0.77788
H    -0.04095   2.86185  -0.79585
H    -1.24111   2.48367  -2.09316
H     0.43324   3.00349  -2.52763
H    -3.75838   0.15770  -1.72840
H    -3.88561  -0.38299  -0.04683
H    -4.51946  -1.43877  -1.36576
H     1.01845  -2.37557  -0.33121
H     0.92156  -3.00926   1.35439
H     2.31134  -1.97479   0.86583
29

C     3.55975   2.30712  -0.09027
O     2.24809   1.72644  -0.04375
C     2.10553   0.64390   0.71368
O     2.98899   0.15342   1.39255
N     0.77571   0.22621   0.68132
C    -0.32227   0.24726  -1.08265
O     0.29610   1.08867  -1.84889
C    -0.17893   2.45645  -1.80600
C    -1.24890  -0.56787  -0.85277
C    -2.38319  -1.39719  -1.18884
C    -3.72994  -0.73476  -1.07940
O    -2.23678  -2.56478  -1.53874
N    -0.79742  -1.21035   1.26179
C    -1.54039  -0.21162   1.75805
N    -2.29056   0.53019   2.25706
N     0.47752  -0.98140   1.11982
C     1.24812  -2.17142   0.73012
H     3.86102   2.65086   0.90984
H     4.29061   1.57618  -0.46482
H     3.48654   3.15745  -0.77795
H    -0.04153   2.86219  -0.79570
H    -1.24059   2.48382  -2.09400
H     0.43368   3.00511  -2.52718
H    -3.75921   0.15700  -1.72835
H    -3.88594  -0.38329  -0.04657
H    -4.52030  -1.43922  -1.36505
H     1.01873  -2.37529  -0.33057
H     0.92183  -3.00863   1.35521
H     2.31188  -1.97399   0.86614
29

C     3.55911   2.30664  -0.09024
O     2.24794   1.72382  -0.04103
C     2.10875   0.64231   0.71823
O     2.99558   0.15204   1.39342
N     0.77831   0.22828   0.69912
C    -0.33855   0.24842  -1.10905
O     0.30171   1.09416  -1.85007
C    -0.17774   2.45953  -1.80669
C    -1.25551  -0.56413  -0.87076
C    -2.38525  -1.39924  -1.18932
C    -3.73215  -0.73645  -1.07839
O    -2.23911  -2.56810  -1.53810
N    -0.79046  -1.21606   1.28343
C    -1.53840  -0.21142   1.75875
N    -2.29087   0.53044   2.25470
N     0.47591  -0.97939   1.11361
C     1.25045  -2.17085   0.73189
H     3.86106   2.65090   0.90973
H     4.29051   1.57620  -0.46496
H     3.48578   3.15719  -0.77802
H    -0.04212   2.86252  -0.79554
H    -1.24008   2.48397  -2.09483
H     0.43412   3.00673  -2.52672
H    -3.76003   0.15630  -1.72830
H    -3.88628  -0.38358  -0.04632
H    -4.52114  -1.43967  -1.36434
H     1.01900  -2.37500  -0.32993
H     0.92209  -3.00799   1.35603
H     2.31242  -1.97320   0.86645
29

C     3.55848   2.30616  -0.09021
O     2.24779   1.72121  -0.03832
C     2.11197   0.64071   0.72279
O     3.00218   0.15066   1.39429
N     0.78090   0.23034   0.71691
C    -0.35484   0.24959  -1.13545
O     0.30733   1.09966  -1.85125
C    -0.17654   2.46262  -1.80738
C    -1.26212  -0.56039  -0.88875
C    -2.38732  -1.40129  -1.18981
C    -3.73436  -0.73813  -1.07738
O    -2.24143  -2.57141  -1.53746
N    -0.78350  -1.22176   1.30507
C    -1.53642  -0.21122   1.75945
N    -2.29119   0.53068   2.25234
N     0.47429  -0.97737   1.10740
C     1.25279  -2.17028   0.73367
H     3.86110   2.65094   0.90961
H     4.29040   1.57623  -0.46511
H     3.48503   3.15693  -0.77809
H    -0.04270   2.86286  -0.79539
H    -1.23957   2.48412  -2.09567
H     0.43456   3.00835  -2.52626
H    -3.76086   0.15559  -1.72825
H    -3.88662  -0.38387  -0.04606
H    -4.52198  -1.44012  -1.36363
H     1.01928  -2.37472  -0.32929
H     0.92236  -3.00735   1.35686
H     2.31296  -1.97240   0.86676
29

C     3.55784   2.30568  -0.09017
O     2.24764   1.71859  -0.03561
C     2.11518   0.63911   0.72734
O     3.00878   0.14929   1.39517
N     0.78350   0.23241   0.73471
C    -0.37112   0.25075  -1.16184
O     0.31294   1.10516  -1.85244
C    -0.17534   2.46570  -1.80806
C    -1.26872  -0.55665  -0.90673
C    -2.38938  -1.40334  -1.19030
C    -3.73657  -0.73982  -1.07638
O    -2.24375  -2.57473  -1.53681
N    -0.77654  -1.22746   1.32671
C    -1.53443  -0.21102   1.76015
N    -2.29150   0.53093   2.24997
N     0.47267  -0.97536   1.10119
C     1.25512  -2.16970   0.73545
H     3.86114   2.65099   0.90950
H     4.29029   1.57626  -0.46525
H     3.48428   3.15668  -0.77816
H    -0.04329   2.86320  -0.79524
H    -1.23906   2.48428  -2.09651
H     0.43500   3.00997  -2.52581
H    -3.76169   0.15489  -1.72820
H    -3.88695  -0.38416  -0.04580
H    -4.52282  -1.44057  -1.36291
H     1.01956  -2.37444  -0.32864
H     0.92262  -3.00672   1.35768
H     2.31350  -1.97160   0.86707
29

C     3.55720   2.30520  -0.09014
O     2.24749   1.71598  -0.03289
C     2.11840   0.63751   0.73190
O     3.01537   0.14791   1.39604
N     0.78609   0.23447   0.75250
C    -0.38741   0.25191  -1.18824
O     0.31855   1.11066  -1.85362
C    -0.17414   2.46878  -1.80875
C    -1.27533  -0.55291  -0.92472
C    -2.39144  -1.40539  -1.19079
C    -3.73877  -0.74151  -1.07537
O    -2.24607  -2.57805  -1.53617
N    -0.76958  -1.23317   1.34834
C    -1.53244  -0.21082   1.76085
N    -2.29182   0.53117   2.24761
N     0.47105  -0.97334   1.09498
C     1.25745  -2.16913   0.73723
H     3.86119   2.65103   0.90938
H     4.29019   1.57628  -0.46540
H     3.48352   3.15642  -0.77823
H    -0.04387   2.86354  -0.79508
H    -1.23855   2.48443  -2.09734
H     0.43544   3.01159  -2.52535
H    -3.76252   0.15419  -1.72816
H    -3.88729  -0.38445  -0.04554
H    -4.52366  -1.44102  -1.36220
H     1.01984  -2.37416  -0.32800
H     0.92288  -3.00608   1.35850
H     2.31404  -1.97081   0.86738
29

C     3.55656   2.30472  -0.09011
O     2.24735   1.71337  -0.03018
C     2.12162   0.63592   0.73645
O     3.02197   0.14653   1.39691
N     0.78868   0.23654   0.77030
C    -0.40370   0.25308  -1.21463
O     0.32417   1.11616  -1.85481
C    -0.17294   2.47186  -1.80944
C    -1.28193  -0.54917  -0.94271
C    -2.39351  -1.40744  -1.19128
C    -3.74098  -0.74320  -1.07436
O    -2.24840  -2.58137  -1.53553
N    -0.76262  -1.23887   1.36998
C    -1.53045  -0.21062   1.76155
N    -2.29214   0.53142   2.24525
N     0.46943  -0.97132   1.08876
C     1.25978  -2.16855   0.73901
H     3.86123   2.65107   0.90926
H     4.29008   1.57631  -0.46554
H     3.48277   3.15616  -0.77831
H    -0.04445   2.86388  -0.79493
H    -1.23804   2.48458  -2.09818
H     0.43588   3.01322  -2.52489
H    -3.76335   0.15349  -1.72811
H    -3.88762  -0.38474  -0.04528
H    -4.52449  -1.44147  -1.36149
H     1.02011  -2.37388  -0.32736
H     0.92315  -3.00544   1.35933
H     2.31458  -1.97001   0.86769
29

C     3.55592   2.30424  -0.09008
O     2.24720   1.71075  -0.02747
C     2.12483   0.63432   0.74101
O     3.02857   0.14516   1.39779
N     0.79128   0.23860   0.78809
C    -0.41998   0.25424  -1.24103
O     0.32978   1.12166  -1.85599
C    -0.17174   2.47494  -1.81013
C    -1.28854  -0.54542  -0.96069
C    -2.39557  -1.40949  -1.19177
C    -3.74319  -0.74489  -1.07336
O    -2.25072  -2.58469  -1.53488
N    -0.75567  -1.24457   1.39162
C    -1.52847  -0.21042   1.76224
N    -2.29245   0.53166   2.24289
N     0.46781  -0.96931   1.08255
C     1.26211  -2.16798   0.74079
H     3.86127   2.65111   0.90915
H     4.28997   1.57634  -0.46569
H     3.48202   3.15590  -0.77838
H    -0.04504   2.86422  -0.79478
H    -1.23753   2.48473  -2.09901
H     0.43632   3.01484  -2.52444
H    -3.76418   0.15279  -1.72806
H    -3.88796  -0.38503  -0.04503
H    -4.52533  -1.44192  -1.36078
H     1.02039  -2.37360  -0.32672
H     0.92341  -3.00481   1.36015
H     2.31512  -1.96921   0.86800
29

C     3.55528   2.30376  -0.09004
O     2.24705   1.70814  -0.02475
C     2.12805   0.63272   0.74556
O     3.03516   0.14378   1.39866
N     0.79387   0.24067   0.80589
C    -0.43627   0.25540  -1.26743
O     0.33539   1.12716  -1.85718
C    -0.17054   2.47803  -1.81081
C    -1.29514  -0.54168  -0.97868
C    -2.39763  -1.41154  -1.19226
C    -3.74540  -0.74657  -1.07235
O    -2.25304  -2.58801  -1.53424
N    -0.74871  -1.25028   1.41326
C    -1.52648  -0.21022   1.76294
N    -2.29277   0.53191   2.24053
N     0.46619  -0.96729   1.07634
C     1.26444  -2.16741   0.74257
H     3.86131   2.65115   0.90903
H     4.28987   1.57636  -0.46583
H     3.48126   3.15564  -0.77845
H    -0.04562   2.86456  -0.79462
H    -1.23702   2.48488  -2.09985
H     0.43676   3.01646  -2.52398
H    -3.76501   0.15208  -1.72801
H    -3.88829  -0.38532  -0.04477
H    -4.52617  -1.44237  -1.36007
H     1.02067  -2.37332  -0.32607
H     0.92368  -3.00417   1.36097
H     2.31567  -1.96841   0.86830
29

C     3.55464   2.30328  -0.09001
O     2.24690   1.70552  -0.02204
C     2.13127   0.63112   0.75012
O     3.04176   0.14240   1.39953
N     0.79646   0.24273   0.82368
C    -0.45256   0.25657  -1.29382
O     0.34100   1.13265  -1.85836
C    -0.16935   2.48111  -1.81150
C    -1.30175  -0.53794  -0.99667
C    -2.39970  -1.41360  -1.19275
C    -3.74761  -0.74826  -1.07134
O    -2.25536  -2.59133  -1.53360
N    -0.74175  -1.25598   1.43489
C    -1.52449  -0.21002   1.76364
N    -2.29308   0.53216   2.23817
N     0.46458  -0.96527   1.07013
C     1.26677  -2.16683   0.74435
H     3.86135   2.65119   0.90891
H     4.28976   1.57639  -0.46598
H     3.48051   3.15538  -0.77852
H    -0.04621   2.86489  -0.79447
H    -1.23651   2.48503  -2.10068
H     0.43720   3.01808  -2.52352
H    -3.76584   0.15138  -1.72796
H    -3.88863  -0.38561  -0.04451
H    -4.52701  -1.44282  -1.35935
H     1.02095  -2.37304  -0.32543
H     0.92394  -3.00354   1.36180
H     2.31621  -1.96762   0.86861
29

C     3.55401   2.30280  -0.08998
O     2.24675   1.70291  -0.01933
C     2.13449   0.62953   0.75467
O     3.04835   0.14102   1.40041
N     0.79906   0.24480   0.84148
C    -0.46884   0.25773  -1.32022
O     0.34662   1.13815  -1.85955
C    -0.16815   2.48419  -1.81219
C    -1.30836  -0.53420  -1.01465
C    -2.40176  -1.41565  -1.19324
C    -3.74982  -0.74995  -1.07034
O    -2.25769  -2.59465  -1.53295
N    -0.73479  -1.26168   1.45653
C    -1.52250  -0.20982   1.76434
N    -2.29340   0.53240   2.23581
N     0.46296  -0.96326   1.06392
C     1.26911  -2.16626   0.74613
H     3.86139   2.65123   0.90880
H     4.28966   1.57642  -0.46612
H     3.47976   3.15513  -0.77859
H    -0.04679   2.86523  -0.79431
H    -1.23600   2.48518  -2.10152
H     0.43764   3.01970  -2.52307
H    -3.76667   0.15068  -1.72791
H    -3.88896  -0.38590  -0.04425
H    -4.52785  -1.44327  -1.35864
H     1.02122  -2.37276  -0.32479
H     0.92421  -3.00290   1.36262
H     2.31675  -1.96682   0.86892
29

C     3.55464   2.30328  -0.09001
O     2.24690   1.70552  -0.02204
C     2.13127   0.63112   0.75012
O     3.04176   0.14240   1.39953
N     0.79646   0.24273   0.82368
C    -0.45256   0.25657  -1.29382
O     0.34100   1.13265  -1.85836
C    -0.16935   2.48111  -1.81150
C    -1.30175  -0.53794  -0.99667
C    -2.39970  -1.41360  -1.19275
C    -3.74761  -0.74826  -1.07134
O    -2.25536  -2.59133  -1.53360
N    -0.74175  -1.25598   1.43489
C    -1.52449  -0.21002   1.76364
N    -2.29308   0.53216   2.23817
N     0.46458  -0.96527   1.07013
C     1.26677  -2.16683   0.74435
H     3.86135   2.65119   0.90891
H     4.28976   1.57639  -0.46598
H     3.48051   3.15538  -0.77852
H    -0.04621   2.86489  -0.79447
H    -1.23651   2.48503  -2.10068
H     0.43720   3.01808  -2.52352
H    -3.76584   0.15138  -1.72796
H    -3.88863  -0.38561  -0.04451
H    -4.52701  -1.44282  -1.35935
H     1.02095  -2.37304  -0.32543
H     0.92394  -3.00354   1.36180
H     2.31621  -1.96762   0.86861
29

C     3.55528   2.30376  -0.09004
O     2.24705   1.70814  -0.02475
C     2.12805   0.63272   0.74556
O     3.03516   0.14378   1.39866
N     0.79387   0.24067   0.80589
C    -0.43627   0.25540  -1.26743
O     0.33539   1.12716  -1.85718
C    -0.17054   2.47803  -1.81081
C    -1.29514  -0.54168  -0.97868
C    -2.39763  -1.41154  -1.19226
C    -3.74540  -0.74657  -1.07235
O    -2.25304  -2.58801  -1.53424
N    -0.74871  -1.25028   1.41326
C    -1.52648  -0.21022   1.76294
N    -2.29277   0.53191   2.24053
N     0.46619  -0.96729   1.07634
C     1.26444  -2.16741   0.74257
H     3.86131   2.65115   0.90903
H     4.28987   1.57636  -0.46583
H     3.48126   3.15564  -0.77845
H    -0.04562   2.86456  -0.79462
H    -1.23702   2.48488  -2.09985
H     0.43676   3.01646  -2.52398
H    -3.76501   0.15208  -1.72801
H    -3.88829  -0.38532  -0.04477
H    -4.52617  -1.44237  -1.36007
H     1.02067  -2.37332  -0.32607
H     0.92368  -3.00417   1.36097
H     2.31567  -1.96841   0.86830
29

C     3.55592   2.30424  -0.09008
O     2.24720   1.71075  -0.02747
C     2.12483   0.63432   0.74101
O     3.02857   0.14516   1.39779
N     0.79128   0.23860   0.78809
C    -0.41998   0.25424  -1.24103
O     0.32978   1.12166  -1.85599
C    -0.17174   2.47494  -1.81013
C    -1.28854  -0.54542  -0.96069
C    -2.39557  -1.40949  -1.19177
C    -3.74319  -0.74489  -1.07336
O    -2.25072  -2.58469  -1.53488
N    -0.75567  -1.24457   1.39162
C    -1.52847  -0.21042   1.76224
N    -2.29245   0.53166   2.24289
N     0.46781  -0.96931   1.08255
C     1.26211  -2.16798   0.74079
H     3.86127   2.65111   0.90915
H     4.28997   1.57634  -0.46569
H     3.48202   3.15590  -0.77838
H    -0.04504   2.86422  -0.79478
H    -1.23753   2.48473  -2.09901
H     0.43632   3.01484  -2.52444
H    -3.76418   0.15279  -1.72806
H    -3.88796  -0.38503  -0.04503
H    -4.52533  -1.44192  -1.36078
H     1.02039  -2.37360  -0.32672
H     0.92341  -3.00481   1.36015
H     2.31512  -1.96921   0.86800
29

C     3.55656   2.30472  -0.09011
O     2.24735   1.71337  -0.03018
C     2.12162   0.63592   0.73645
O     3.02197   0.14653   1.39691
N     0.78868   0.23654   0.77030
C    -0.40370   0.25308  -1.21463
O     0.32417   1.11616  -1.85481
C    -0.17294   2.47186  -1.80944
C    -1.28193  -0.54917  -0.94271
C    -2.39351  -1.40744  -1.19128
C    -3.74098  -0.74320  -1.07436
O    -2.24840  -2.58137  -1.53553
N    -0.76262  -1.23887   1.36998
C    -1.53045  -0.21062   1.76155
N    -2.29214   0.53142   2.24525
N     0.46943  -0.97132   1.08876
C     1.25978  -2.16855   0.73901
H     3.86123   2.65107   0.90926
H     4.29008   1.57631  -0.46554
H     3.48277   3.15616  -0.77831
H    -0.04445   2.86388  -0.79493
H    -1.23804   2.48458  -2.09818
H     0.43588   3.01322  -2.52489
H    -3.76335   0.15349  -1.72811
H    -3.88762  -0.38474  -0.04528
H    -4.52449  -1.44147  -1.36149
H     1.02011  -2.37388  -0.32736
H     0.92315  -3.00544   1.35933
H     2.31458  -1.97001   0.86769
29

C     3.55720   2.30520  -0.09014
O     2.24749   1.71598  -0.03289
C     2.11840   0.63751   0.73190
O     3.01537   0.14791   1.39604
N     0.78609   0.23447   0.75250
C    -0.38741   0.25191  -1.18824
O     0.31855   1.11066  -1.85362
C    -0.17414   2.46878  -1.80875
C    -1.27533  -0.55291  -0.92472
C    -2.39144  -1.40539  -1.19079
C    -3.73877  -0.74151  -1.07537
O    -2.24607  -2.57805  -1.53617
N    -0.76958  -1.23317   1.34834
C    -1.53244  -0.21082   1.76085
N    -2.29182   0.53117   2.24761
N     0.47105  -0.97334   1.09498
C     1.25745  -2.16913   0.73723
H     3.86119   2.65103   0.90938
H     4.29019   1.57628  -0.46540
H     3.48352   3.15642  -0.77823
H    -0.04387   2.86354  -0.79508
H    -1.23855   2.48443  -2.09734
H     0.43544   3.01159  -2.52535
H    -3.76252   0.15419  -1.72816
H    -3.88729  -0.38445  -0.04554
H    -4.52366  -1.44102  -1.36220
H     1.01984  -2.37416  -0.32800
H     0.92288  -3.00608   1.35850
H     2.31404  -1.97081   0.86738
29

C     3.55784   2.30568  -0.09017
O     2.24764   1.71859  -0.03561
C     2.11518   0.63911   0.72734
O     3.00878   0.14929   1.39517
N     0.78350   0.23241   0.73471
C    -0.37112   0.25075  -1.16184
O     0.31294   1.10516  -1.85244
C    -0.17534   2.46570  -1.80806
C    -1.26872  -0.55665  -0.90673
C    -2.38938  -1.40334  -1.19030
C    -3.73657  -0.73982  -1.07638
O    -2.24375  -2.57473  -1.53681
N    -0.77654  -1.22746   1.32671
C    -1.53443  -0.21102   1.76015
N    -2.29150   0.53093   2.24997
N     0.47267  -0.97536   1.10119
C     1.25512  -2.16970   0.73545
H     3.86114   2.65099   0.90950
H     4.29029   1.57626  -0.46525
H     3.48428   3.15668  -0.77816
H    -0.04329   2.86320  -0.79524
H    -1.23906   2.48428  -2.09651
H     0.43500   3.00997  -2.52581
H    -3.76169   0.15489  -1.72820
H    -3.88695  -0.38416  -0.04580
H    -4.52282  -1.44057  -1.36291
H     1.01956  -2.37444  -0.32864
H     0.92262  -3.00672   1.35768
H     2.31350  -1.97160   0.86707
29

C     3.55848   2.30616  -0.09021
O     2.24779   1.72121  -0.03832
C     2.11197   0.64071   0.72279
O     3.00218   0.15066   1.39429
N     0.78090   0.23034   0.71691
C    -0.35484   0.24959  -1.13545
O     0.30733   1.09966  -1.85125
C    -0.17654   2.46262  -1.80738
C    -1.26212  -0.56039  -0.88875
C    -2.38732  -1.40129  -1.18981
C    -3.73436  -0.73813  -1.07738
O    -2.24143  -2.57141  -1.53746
N    -0.78350  -1.22176   1.30507
C    -1.53642  -0.21122   1.75945
N    -2.29119   0.53068   2.25234
N     0.47429  -0.97737   1.10740
C     1.25279  -2.17028   0.73367
H     3.86110   2.65094   0.90961
H     4.29040   1.57623  -0.46511
H     3.48503   3.15693  -0.77809
H    -0.04270   2.86286  -0.79539
H    -1.23957   2.48412  -2.09567
H     0.43456   3.00835  -2.52626
H    -3.76086   0.15559  -1.72825
H    -3.88662  -0.38387  -0.04606
H    -4.52198  -1.44012  -1.36363
H     1.01928  -2.37472  -0.32929
H     0.92236  -3.00735   1.35686
H     2.31296  -1.97240   0.86676
29

C     3.55911   2.30664  -0.09024
O     2.24794   1.72382  -0.04103
C     2.10875   0.64231   0.71823
O     2.99558   0.15204   1.39342
N     0.77831   0.22828   0.69912
C    -0.33855   0.24842  -1.10905
O     0.30171   1.09416  -1.85007
C    -0.17774   2.45953  -1.80669
C    -1.25551  -0.56413  -0.87076
C    -2.38525  -1.39924  -1.18932
C    -3.73215  -0.73645  -1.07839
O    -2.23911  -2.56810  -1.53810
N    -0.79046  -1.21606   1.28343
C    -1.53840  -0.21142   1.75875
N    -2.29087   0.53044   2.25470
N     0.47591  -0.97939   1.11361
C     1.25045  -2.17085   0.73189
H     3.86106   2.65090   0.90973
H     4.29051   1.57620  -0.46496
H     3.48578   3.15719  -0.77802
H    -0.04212   2.86252  -0.79554
H    -1.24008   2.48397  -2.09483
H     0.43412   3.00673  -2.52672
H    -3.76003   0.15630  -1.72830
H    -3.88628  -0.38358  -0.04632
H    -4.52114  -1.43967  -1.36434
H     1.01900  -2.37500  -0.32993
H     0.92209  -3.00799   1.35603
H     2.31242  -1.97320   0.86645
29

C     3.55975   2.30712  -0.09027
O     2.24809   1.72644  -0.04375
C     2.10553   0.64390   0.71368
O     2.98899   0.15342   1.39255
N     0.77571   0.22621   0.68132
C    -0.32227   0.24726  -1.08265
O     0.29610   1.08867  -1.84889
C    -0.17893   2.45645  -1.80600
C    -1.24890  -0.56787  -0.85277
C    -2.38319  -1.39719  -1.18884
C    -3.72994  -0.73476  -1.07940
O    -2.23678  -2.56478  -1.53874
N    -0.79742  -1.21035   1.26179
C    -1.54039  -0.21162   1.75805
N    -2.29056   0.53019   2.25706
N     0.47752  -0.98140   1.11982
C     1.24812  -2.17142   0.73012
H     3.86102   2.65086   0.90984
H     4.29061   1.57618  -0.46482
H     3.48654   3.15745  -0.77795
H    -0.04153   2.86219  -0.79570
H    -1.24059   2.48382  -2.09400
H     0.43368   3.00511  -2.52718
H    -3.75921   0.15700  -1.72835
H    -3.88594  -0.38329  -0.04657
H    -4.52030  -1.43922  -1.36505
H     1.01873  -2.37529  -0.33057
H     0.92183  -3.00863   1.35521
H     2.31188  -1.97399   0.86614
29

C     3.56039   2.30761  -0.09030
O     2.24824   1.72905  -0.04646
C     2.10232   0.64550   0.70912
O     2.98239   0.15480   1.39167
N     0.77312   0.22415   0.66353
C    -0.30598   0.24610  -1.05626
O     0.29049   1.08317  -1.84770
C    -0.18013   2.45337  -1.80531
C    -1.24230  -0.57161  -0.83478
C    -2.38113  -1.39514  -1.18835
C    -3.72773  -0.73307  -1.08040
O    -2.23446  -2.56146  -1.53939
N    -0.80438  -1.20465   1.24016
C    -1.54238  -0.21182   1.75735
N    -2.29024   0.52995   2.25942
N     0.47914  -0.98342   1.12604
C     1.24579  -2.17200   0.72834
H     3.86098   2.65082   0.90996
H     4.29072   1.57615  -0.46467
H     3.48729   3.15771  -0.77788
H    -0.04095   2.86185  -0.79585
H    -1.24111   2.48367  -2.09316
H     0.43324   3.00349  -2.52763
H    -3.75838   0.15770  -1.72840
H    -3.88561  -0.38299  -0.04683
H    -4.51946  -1.43877  -1.36576
H     1.01845  -2.37557  -0.33121
H     0.92156  -3.00926   1.35439
H     2.31134  -1.97479   0.86583
29

C     3.56103   2.30809  -0.09034
O     2.24839   1.73167  -0.04917
C     2.09910   0.64710   0.70457
O     2.97580   0.15617   1.39080
N     0.77053   0.22208   0.64573
C    -0.28969   0.24493  -1.02986
O     0.28487   1.07767  -1.84652
C    -0.18133   2.45029  -1.80463
C    -1.23569  -0.57535  -0.81680
C    -2.37906  -1.39308  -1.18786
C    -3.72552  -0.73138  -1.08141
O    -2.23214  -2.55814  -1.54003
N    -0.81134  -1.19895   1.21852
C    -1.54437  -0.21202   1.75665
N    -2.28992   0.52970   2.26178
N     0.48076  -0.98544   1.13225
C     1.24346  -2.17257   0.72656
H     3.86094   2.65078   0.91008
H     4.29083   1.57612  -0.46453
H     3.48804   3.15797  -0.77781
H    -0.04037   2.86151  -0.79601
H    -1.24162   2.48352  -2.09233
H     0.43280   3.00186  -2.52809
H    -3.75755   0.15840  -1.72845
H    -3.88527  -0.38270  -0.04709
H    -4.51862  -1.43832  -1.36647
H     1.01817  -2.37585  -0.33186
H     0.92130  -3.00990   1.35356
H     2.31080  -1.97559   0.86552
29

C     3.56167   2.30857  -0.09037
O     2.24854   1.73428  -0.05189
C     2.09588   0.64870   0.70001
O     2.96920   0.15755   1.38993
N     0.76793   0.22001   0.62794
C    -0.27341   0.24377  -1.00346
O     0.27926   1.07217  -1.84533
C    -0.18253   2.44721  -1.80394
C    -1.22909  -0.57909  -0.79881
C    -2.37700  -1.39103  -1.18737
C    -3.72332  -0.72969  -1.08242
O    -2.22982  -2.55482  -1.54067
N    -0.81830  -1.19324   1.19688
C    -1.54635  -0.21222   1.75595
N    -2.28961   0.52945   2.26414
N     0.48238  -0.98745   1.13846
C     1.24113  -2.17315   0.72478
H     3.86089   2.65074   0.91019
H     4.29093   1.57609  -0.46438
H     3.48880   3.15823  -0.77774
H    -0.03978   2.86117  -0.79616
H    -1.24213   2.48337  -2.09149
H     0.43236   3.00024  -2.52855
H    -3.75672   0.15911  -1.72850
H    -3.88494  -0.38241  -0.04735
H    -4.51778  -1.43787  -1.36718
H     1.01790  -2.37613  -0.33250
H     0.92103  -3.01053   1.35274
H     2.31026  -1.97639   0.86522
29

C     3.56231   2.30905  -0.09040
O     2.24869   1.73689  -0.05460
C     2.09267   0.65029   0.69546
O     2.96260   0.15893   1.38905
N     0.76534   0.21795   0.61014
C    -0.25712   0.24261  -0.97707
O     0.27365   1.06667  -1.84415
C    -0.18373   2.44413  -1.80325
C    -1.22248  -0.58283  -0.78082
C    -2.37494  -1.38898  -1.18688
C    -3.72111  -0.72800  -1.08342
O    -2.22749  -2.55150  -1.54132
N    -0.82526  -1.18754   1.17524
C    -1.54834  -0.21242   1.75526
N    -2.28929   0.52921   2.26650
N     0.48400  -0.98947   1.14467
C     1.23880  -2.17372   0.72300
H     3.86085   2.65070   0.91031
H     4.29104   1.57607  -0.46424
H     3.48955   3.15848  -0.77767
H    -0.03920   2.86083  -0.79631
H    -1.24264   2.48322  -2.09066
H     0.43192   2.99862  -2.52901
H    -3.75589   0.15981  -1.72854
H    -3.88460  -0.38212  -0.04760
H    -4.51695  -1.43742  -1.36790
H     1.01762  -2.37641  -0.33314
H     0.92077  -3.01117   1.35191
H     2.30971  -1.97718   0.86491
29

C     3.56295   2.30953  -0.09043
O     2.24884   1.73951  -0.05731
C     2.08945   0.65189   0.69090
O     2.95601   0.16031   1.38818
N     0.76275   0.21588   0.59235
C    -0.24083   0.24144  -0.95067
O     0.26804   1.06117  -1.84296
C    -0.18493   2.44104  -1.80256
C    -1.21587  -0.58657  -0.76284
C    -2.37287  -1.38693  -1.18639
C    -3.71890  -0.72632  -1.08443
O    -2.22517  -2.54818  -1.54196
N    -0.83221  -1.18184   1.15361
C    -1.55033  -0.21262   1.75456
N    -2.28898   0.52896   2.26887
N     0.48562  -0.99149   1.15089
C     1.23647  -2.17429   0.72122
H     3.86081   2.65066   0.91042
H     4.29115   1.57604  -0.46409
H     3.49031   3.15874  -0.77759
H    -0.03861   2.86049  -0.79647
H    -1.24315   2.48307  -2.08982
H     0.43148   2.99700  -2.52946
H    -3.75506   0.16051  -1.72859
H    -3.88427  -0.38183  -0.04786
H    -4.51611  -1.43697  -1.36861
H     1.01734  -2.37669  -0.33378
H     0.92050  -3.01181   1.35109
H     2.30917  -1.97798   0.86460
29

C     3.56358   2.31001  -0.09047
O     2.24899   1.74212  -0.06002
C     2.08623   0.65349   0.68635
O     2.94941   0.16168   1.38731
N     0.76015   0.21382   0.57455
C    -0.22455   0.24028  -0.92428
O     0.26242   1.05567  -1.84178
C    -0.18613   2.43796  -1.80188
C    -1.20927  -0.59032  -0.74485
C    -2.37081  -1.38488  -1.18590
C    -3.71669  -0.72463  -1.08544
O    -2.22285  -2.54486  -1.54261
N    -0.83917  -1.17614   1.13197
C    -1.55232  -0.21282   1.75386
N    -2.28866   0.52872   2.27123
N     0.48724  -0.99350   1.15710
C     1.23414  -2.17487   0.71944
H     3.86077   2.65062   0.91054
H     4.29125   1.57601  -0.46395
H     3.49106   3.15900  -0.77752
H    -0.03803   2.86015  -0.79662
H    -1.24366   2.48291  -2.08899
H     0.43104   2.99538  -2.52992
H    -3.75423   0.16121  -1.72864
H    -3.88393  -0.38154  -0.04812
H    -4.51527  -1.43652  -1.36932
H     1.01706  -2.37697  -0.33443
H     0.92024  -3.01244   1.35027
H     2.30863  -1.97878   0.86429
29

C     3.56422   2.31049  -0.09050
O     2.24914   1.74474  -0.06274
C     2.08301   0.65509   0.68179
O     2.94281   0.16306   1.38643
N     0.75756   0.21175   0.55676
C    -0.20826   0.23912  -0.89788
O     0.25681   1.05018  -1.84059
C    -0.18732   2.43488  -1.80119
C    -1.20266  -0.59406  -0.72686
C    -2.36875  -1.38283  -1.18541
C    -3.71448  -0.72294  -1.08644
O    -2.22053  -2.54154  -1.54325
N    -0.84613  -1.17043   1.11033
C    -1.55430  -0.21302   1.75316
N    -2.28834   0.52847   2.27359
N     0.48885  -0.99552   1.16331
C     1.23180  -2.17544   0.71766
H     3.86073   2.65058   0.91066
H     4.29136   1.57599  -0.46380
H     3.49181   3.15926  -0.77745
H    -0.03745   2.85982  -0.79677
H    -1.24417   2.48276  -2.08815
H     0.43060   2.99376  -2.53038
H    -3.75340   0.16191  -1.72869
H    -3.88360  -0.38125  -0.04838
H    -4.51443  -1.43607  -1.37003
H     1.01679  -2.37725  -0.33507
H     0.91998  -3.01308   1.34944
H     2.30809  -1.97957   0.86398
29

C     3.56486   2.31097  -0.09053
O     2.24929   1.74735  -0.06545
C     2.07980   0.65668   0.67724
O     2.93622   0.16444   1.38556
N     0.75496   0.20969   0.53896
C    -0.19197   0.23795  -0.87148
O     0.25120   1.04468  -1.83941
C    -0.18852   2.43180  -1.80050
C    -1.19606  -0.59780  -0.70888
C    -2.36668  -1.38078  -1.18492
C    -3.71227  -0.72125  -1.08745
O    -2.21820  -2.53822  -1.54389
N    -0.85309  -1.16473   1.08869
C    -1.55629  -0.21322   1.75246
N    -2.28803   0.52823   2.27595
N     0.49047  -0.99754   1.16952
C     1.22947  -2.17602   0.71588
H     3.86068   2.65054   0.91077
H     4.29147   1.57596  -0.46366
H     3.49257   3.15952  -0.77738
H    -0.03686   2.85948  -0.79693
H    -1.24468   2.48261  -2.08732
H     0.43016   2.99214  -2.53083
H    -3.75257   0.16262  -1.72874
H    -3.88326  -0.38096  -0.04864
H    -4.51359  -1.43561  -1.37074
H     1.01651  -2.37753  -0.33571
H     0.91971  -3.01372   1.34862
H     2.30755  -1.98037   0.86367
29

C     3.56550   2.31145  -0.09057
O     2.24944   1.74997  -0.06816
C     2.07658   0.65828   0.67269
O     2.92962   0.16582   1.38468
N     0.75237   0.20762   0.52117
C    -0.17569   0.23679  -0.84509
O     0.24558   1.03918  -1.83823
C    -0.18972   2.42872  -1.79982
C    -1.18945  -0.60154  -0.69089
C    -2.36462  -1.37873  -1.18443
C    -3.71007  -0.71956  -1.08846
O    -2.21588  -2.53490  -1.54454
N    -0.86005  -1.15903   1.06706
C    -1.55828  -0.21342   1.75176
N    -2.28771   0.52798   2.27831
N     0.49209  -0.99955   1.17573
C     1.22714  -2.17659   0.71410
H     3.86064   2.65050   0.91089
H     4.29157   1.57593  -0.46351
H     3.49332   3.15978  -0.77731
H    -0.03628   2.85914  -0.79708
H    -1.24519   2.48246  -2.08648
H     0.42972   2.99051  -2.53129
H    -3.75175   0.16332  -1.72879
H    -3.88293  -0.38067  -0.04889
H    -4.51275  -1.43516  -1.37146
H     1.01623  -2.37781  -0.33635
H     0.91945  -3.01435   1.34780
H     2.30701  -1.98117   0.86336
29

C     3.56614   2.31193  -0.09060
O     2.24959   1.75258  -0.07088
C     2.07336   0.65988   0.66813
O     2.92303   0.16719   1.38381
N     0.74978   0.20556   0.50337
C    -0.15940   0.23563  -0.81869
O     0.23997   1.03368  -1.83704
C    -0.19092   2.42563  -1.79913
C    -1.18285  -0.60528  -0.67290
C    -2.36256  -1.37668  -1.18394
C    -3.70786  -0.71787  -1.08946
O    -2.21356  -2.53159  -1.54518
N    -0.86701  -1.15332   1.04542
C    -1.56027  -0.21362   1.75106
N    -2.28739   0.52774   2.28067
N     0.49371  -1.00157   1.18195
C     1.22481  -2.17716   0.71232
H     3.86060   2.65046   0.91101
H     4.29168   1.57590  -0.46337
H     3.49407   3.16003  -0.77724
H    -0.03569   2.85880  -0.79724
H    -1.24570   2.48231  -2.08565
H     0.42928   2.98889  -2.53175
H    -3.75092   0.16402  -1.72884
H    -3.88259  -0.38038  -0.04915
H    -4.51191  -1.43471  -1.37217
H     1.01595  -2.37809  -0.33700
H     0.91918  -3.01499   1.34697
H     2.30647  -1.98197   0.86305
