13

C 2.049111654 -1.527444121 0.467847660
C 0.816097578 0.859688155 -0.428038028
C 1.624774919 -1.118496012 -2.298031009
C -3.553238709 -0.787314913 1.411624432
N -2.963973972 1.298702242 2.480015925
C -1.941413063 1.247240672 -0.006566326
H 3.958518558 -1.413195607 1.189828449
H 0.854688242 -2.896220072 1.412425695
H 1.962093640 2.560728225 -0.370904275
H 3.238413606 -0.721211916 -3.489057620
H 0.142509349 -2.208043253 -3.192176071
H -3.085994042 2.240186814 4.130394554
H -2.916031734 2.407518283 -1.393328917

