19

C -4.346962100 -0.363022587 2.233689387
C -1.626009949 2.343551318 0.351094673
C -0.640622088 0.641938717 -1.598172602
C 2.018248949 1.380131712 -2.447854524
C 1.615869415 -1.032847142 -1.066594873
C 2.659782302 -1.366871693 1.557634367
O 5.243137257 -2.072098982 1.514055809
H -5.269132802 -0.599325639 0.422485295
H -5.657479344 0.371553982 3.639015079
H -3.471837283 -2.120429351 2.846344493
H -2.616639722 1.109730290 2.367223709
H -3.271114788 3.383475635 -0.360791501
H -1.845038656 -0.019055639 -3.129147828
H 2.384411656 1.341337921 -4.458379407
H 2.879705623 2.934450139 -1.432770241
H 1.682992713 -2.733789325 -2.208083258
H 2.365931174 0.359548779 2.657534246
H 1.686780065 -2.910162925 2.522735319
H 6.161348586 -0.770497636 0.648374728

