15

C -3.038102826 0.162713148 1.683162713
N -0.937214849 1.597284355 0.478280479
C 0.750662390 0.204367588 -1.309899511
C 2.656985601 -1.275755335 0.136943652
O 4.207090468 0.381354669 1.612559767
C -0.599492539 -0.859760664 -3.319716049
N -1.762335378 -1.639372090 -5.008274535
H -2.233317149 -1.425553396 2.706932556
H -4.085523272 1.380953478 2.971979004
H -4.265397571 -0.532035912 0.187857258
H 0.275480438 2.261595049 1.827802672
H -1.647442978 3.134704511 -0.426148945
H 3.770098426 -2.405205844 -1.188019508
H 1.891865654 -2.593554771 1.553834808
H 4.951102194 1.548829528 0.432968929

