15

C -2.501891149 0.713354567 1.643456940
C -1.614066937 -1.541708209 -2.361714364
N -0.436441451 -0.094711127 -0.060240859
C 1.483935294 -1.604367105 1.157433592
C 3.697346143 -0.473472562 0.778927553
N 3.426550147 1.763529118 -0.642813944
C 1.060547239 1.964886315 -1.040525137
H -3.780103902 1.910759022 0.567363737
H -3.508548387 -0.985851770 2.208377640
H -1.728122113 1.728824676 3.262438828
H -2.425763607 -0.031232808 -3.531737538
H 0.026245461 -2.323050038 -3.358731392
H 0.943743759 -3.358358246 2.035330619
H 5.541677513 -1.106753877 1.371732125
H 0.104689051 3.447460855 -2.070168797

