15

C -3.711697895 0.518004922 -0.801505585
N -0.740903391 1.712573447 0.635485208
C -0.865150597 -1.399411964 -0.230004708
C 0.882742284 -0.172348805 1.563228920
C 3.630601659 0.087595741 0.695043045
O 3.761476683 1.016436798 -1.780532042
H -4.281455084 -0.853647966 -2.240856211
H -4.937280359 0.354751652 0.832246667
H -3.833823222 2.371140752 -1.653399489
H -2.032641085 -2.838962712 0.645051814
H -0.097868935 -1.825056579 -2.075736251
H 0.707970057 -0.749533695 3.548210167
H 4.584317370 -1.744377537 0.756670718
H 4.603404398 1.351793625 2.023673087
H 2.317754666 2.139884497 -1.917473295

