15

C 3.665818992 -1.227301453 1.839035261
C 1.513295931 -1.162011888 0.604282485
C 0.079639030 -1.705590984 -1.710217317
C -1.150515853 -0.450382037 0.576294828
O -2.778088511 -1.874184828 2.091356765
C -1.880133062 2.322478831 0.452284896
O -0.204958297 3.810360307 -0.978791470
H 5.358992378 -2.011316376 0.993533639
H 3.800771213 -0.531599480 3.761434750
H 1.440014978 3.705364195 -0.216606172
H 0.403763192 -0.548029874 -3.370038851
H -0.417725075 -3.662353480 -2.063505226
H -4.347926654 -2.080838096 1.204009086
H -3.728928267 2.499389775 -0.455193109
H -2.063192419 3.018771136 2.396864914

