15

C 3.510770913 -0.293570125 1.580494800
C 1.284119546 -0.635598629 0.237790871
C -0.253942852 -1.633411723 -1.838198301
C -1.494588719 -0.510476386 0.519389184
O -2.754156717 -2.048907242 2.213409206
C -1.812884116 2.323352300 0.391456823
O 0.622030188 2.981642269 -0.473250293
H 5.293490880 -0.810983166 0.719022706
H 3.390427730 -0.375116740 3.624556841
H 2.583693405 1.961168014 0.937567812
H -0.317462027 -0.715803406 -3.662479827
H -0.270021681 -3.687251113 -1.852621277
H -4.346886114 -2.531424658 1.492967108
H -3.277923830 2.918481783 -0.949257790
H -2.276320248 3.099518150 2.258623946

