14

N 3.571821690 -3.027002348 0.032333554
C 2.091420751 -1.211449542 -0.360403237
O 2.329732620 0.479937996 -2.356354042
C 0.525691383 2.320181642 -1.878395988
C -1.796774465 1.006176039 -0.742148267
C -2.849541890 -0.648482253 -2.572996648
C -0.075975059 -0.319067746 1.127210673
H 4.993725307 -3.042927599 -1.262618658
H 0.490233791 3.736907050 -3.370723423
H 0.971843778 2.279756602 0.824593786
H -3.075007420 2.355399806 0.126008658
H -1.609262290 -1.877590284 -3.638525489
H -4.848152693 -0.718154717 -3.016217587
H -0.695865567 -1.452179920 2.718917974

