8

O -2.808027404 0.528348697 0.081588585
C -0.673779866 -1.003589684 0.006104023
C 1.728097830 0.508358702 -0.042435331
O 1.718845391 2.779687522 -0.017158260
H -2.208811162 2.253570402 0.090970244
H -0.589857147 -2.264771546 1.655690479
H -0.681346480 -2.226485487 -1.673939357
H 3.514878856 -0.575118606 -0.100820366

