14

C -1.065984340 3.327059695 0.790005770
C 0.191751020 0.894850043 -0.779465312
C -1.696951969 -0.672965205 0.371926523
O 2.511615547 0.423624535 -0.154910356
C 2.555527358 -3.458607348 -0.530816339
O 3.419889203 -4.158996730 -2.490192610
H -3.023169303 3.774076734 0.346704121
H -0.754488292 3.143057270 2.811990179
H 0.153863958 4.811007140 0.056982688
H -0.215237009 1.362528044 -2.770659412
H -1.407260847 -1.231078562 2.322917644
H 0.351264843 -3.150181935 -0.355509546
H -3.594583064 -0.849820270 -0.392753081
H 3.466125604 -3.699903529 1.327465725

