10

C 4.762007694 -1.469432591 2.597821546
C 2.687824949 -0.948946042 1.522548748
C 0.506559002 -0.401578952 0.384370407
C -0.487411692 2.127178962 -0.331963747
O -2.876267285 1.618183592 -1.488558206
N -3.309985169 -0.886471583 -1.486184162
C -1.463485509 -2.086409840 -0.455572717
H 0.728559492 3.093948145 -1.690915428
H -0.780092947 3.346437230 1.307804013
H -1.502832385 -4.118314706 -0.297409009

