17

C 3.963485363 0.201774997 -0.454523749
C 1.842174587 -1.717881574 0.011473812
C -0.292547727 -0.498483201 1.391081106
C -2.586774622 0.513482127 -2.615496249
O 0.064596338 -0.498462905 3.840112628
C -2.407190510 0.604922781 0.243265842
C -4.337380319 1.761315266 1.610284197
H 5.525865664 -0.701852276 -1.446243988
H 4.676565863 0.951078542 1.327342742
H 3.300601677 1.781322004 -1.600891294
H 2.549222665 -3.278655778 1.158432369
H 1.164360704 -2.476291860 -1.776542169
H -4.238400036 1.600090863 -3.177798222
H -0.934698906 1.330553821 -3.549200025
H -2.821564061 -1.411984558 -3.329416883
H -1.370678924 0.384464553 4.594239510
H -3.994539970 1.698567061 3.690276999

