14

C -4.332080355 -0.141007376 -0.104580354
C -1.899529570 0.875180451 1.025711291
C 0.434516614 -0.249113203 -0.159252247
O 0.462053042 -1.794088748 -1.822119963
O 2.538319550 0.702508880 0.887145762
C 4.860207841 -0.239741862 -0.100248232
H -5.965992573 0.724669321 0.805672866
H -4.429684067 0.251687294 -2.124436704
H -4.461675241 -2.183221927 0.131959027
H -1.765141470 2.926759653 0.822785451
H -1.794200960 0.510138710 3.056510724
H 6.345998261 0.724079462 0.940545170
H 4.994380210 -2.276819022 0.177229287
H 5.012828718 0.168968350 -2.113707066

