19

C 4.438691069 0.408088568 2.600466746
C 1.729593208 1.193144786 2.062752000
C 0.649921544 -0.238382469 -0.217365766
O 0.671250921 -2.710346308 -0.106919986
C -1.599639502 0.865609234 -1.340643031
C -2.767960448 -0.204820555 -3.645840165
O -3.751052670 -1.375813990 1.307468624
H 4.541106817 -1.639636217 2.797442047
H 5.695437989 0.958751264 1.055998895
H 5.142214449 1.277568565 4.332750793
H 0.523521222 0.740275964 3.678610888
H 1.607181059 3.236643727 1.747708784
H 1.680153986 0.692316983 -1.978467569
H -2.193543479 -2.475163675 1.027963239
H -2.066689660 2.814448807 -0.865469942
H -2.277735842 -2.193026449 -3.841844486
H -4.810176738 0.063039846 -3.615847811
H -2.069051988 0.848728613 -5.282715284
H -5.143218158 -2.261422913 0.557726058

