13

C -1.544698474 1.471759505 -2.561790062
C -1.606399279 -1.904894181 3.401007456
C -0.718593228 -0.856264916 1.360676131
C 0.168051379 0.196408949 -0.681243188
C 2.951597362 0.192637245 -1.271401954
H -3.514620890 1.383953059 -1.974391524
H -1.015725505 3.456273290 -2.792391716
H -1.373206792 0.574172420 -4.415521855
H -2.177496302 -3.873376192 3.423005815
H -1.799270963 -0.844287567 5.144108408
H 4.032261416 -0.786835036 0.179644622
H 3.300887650 -0.730337498 -3.087190012
H 3.659343732 2.128463446 -1.423044010

