13

C -2.725274918 0.964466930 -1.889667430
C -2.278750417 -1.553057980 2.321491638
C 0.077031549 -1.042814824 1.452795669
C 1.605586923 -0.142009441 -0.065740038
C 4.014278556 0.539956605 -1.230447904
H -2.238754250 2.086047863 -0.287106676
H -3.836829059 1.860327485 -3.372681425
H -2.256436550 -0.981664931 -2.128273396
H -3.128963296 -3.388004591 2.001673330
H -3.119228769 -0.394454345 3.785321644
H 5.586636138 -0.103396743 -0.056230898
H 4.199611216 -0.324182970 -3.092404220
H 4.170757649 2.582368518 -1.457616492

