14

C 3.084311638 0.606096490 0.705381378
C 1.348153143 0.278017358 -1.439881866
C -0.061666280 -1.871606731 -1.736928105
C -2.671206452 -0.388505298 0.395912873
O -2.038923479 -0.268913338 2.750590294
C -2.339453163 2.267324679 0.965618246
H 1.963536748 0.307324591 2.432026046
H 3.933038209 2.473745398 0.763581824
H 4.545016339 -0.855300551 0.674941726
H 1.136703410 1.800806819 -2.788205009
H 0.370347279 -3.533415539 -0.617949211
H -1.067004225 -2.183788731 -3.492232700
H -4.088597705 -1.707803513 -0.296787724
H -4.177850415 3.015352508 1.576476732

