14

O 3.582170095 -0.642256059 -1.881624925
C 1.643350152 1.080697464 0.921139478
C -1.048385207 1.162749146 0.127537541
O -2.723290346 1.827591344 2.162870313
C -1.280041839 -1.459555540 -0.758929564
O -1.499664751 -3.252132432 1.176412678
H 3.754545678 0.414905339 -3.360554656
H 2.107809685 -0.336720661 2.318574864
H 2.920235109 2.675093921 0.775790041
H -1.304759230 2.457063538 -1.467284615
H -2.641257600 3.613361064 2.470702334
H -2.515412101 -1.796164801 -2.375966187
H 1.811771369 -1.487948827 -1.967161753
H -2.763868076 -2.670691180 2.347468663

