15

O -4.003003505 1.557854841 1.721052119
C -2.427179201 -0.501426601 1.176529237
C -2.052952163 -1.074602852 -1.695869893
C 0.617060246 -0.218452737 -1.357183974
C 4.386632913 0.464793901 -2.298050284
O 1.963599147 1.015820483 -3.017386571
C 0.463563519 -0.022580243 1.456596305
H -3.402523073 3.021091738 0.830514979
H -3.157507193 -2.080517126 2.275700437
H -3.192281782 0.065726054 -2.991730175
H -2.302030048 -3.065725784 -2.186565948
H 5.726627106 1.976787224 -2.583113297
H 4.923075741 -1.489595761 -2.460378476
H 1.044528654 1.830781976 2.186192123
H 1.437468213 -1.467426231 2.554578527

