12

C -2.491035314 0.742456500 1.625315229
N -0.270248864 1.868194339 0.457352745
C -0.028311385 1.572591341 -2.286337422
C 1.549913683 0.182722268 -0.521795033
C 3.138109306 -1.564001724 0.062328062
N 4.849733165 -3.029924545 0.621459472
H -2.075320511 0.342308222 3.602684565
H -3.067765177 -1.022224897 0.696691226
H -4.044593504 2.094362261 1.544765124
H 0.739073210 3.189636903 -3.283214496
H -1.508221260 0.533276253 -3.264025820
H 4.294988925 -4.868518366 0.741312517

