12

C -2.181663640 0.321369811 1.721933487
N -0.039537474 1.520081182 0.504847232
C 0.280823847 1.066291099 -2.254149830
C 1.984981152 0.045138112 -0.345976293
C 4.591902164 -0.390578403 0.437012092
N 3.505894305 -2.573246527 0.522263874
H -1.762951259 0.069551767 3.722719326
H -2.630950958 -1.537925355 0.900657871
H -3.830818690 1.540513354 1.543096912
H 0.844121252 2.687902787 -3.371934171
H -1.075486337 -0.196328239 -3.140774084
H 1.400006056 -2.511889123 -0.243160301

