17

C 5.091429288 0.413845505 2.387798631
C 3.365547388 0.900474133 0.639188145
C 0.763073960 -0.093135662 0.640298718
C -0.396216552 -0.678511116 -1.886542106
C -2.961572584 -1.939435408 -1.521651563
C -3.852407526 0.403250831 0.013069421
C -1.266155715 1.605411878 -0.394381175
H 6.972834797 1.209818784 2.278480375
H 4.680331955 -0.797560668 3.989555269
H 3.855864572 2.127120796 -0.938108255
H 0.295841576 -1.311193010 2.229731602
H 0.753635156 -0.756251236 -3.575722841
H -2.939611945 -3.753913659 -0.538143167
H -4.008538928 -2.151769193 -3.281154733
H -5.372382656 1.416826962 -0.935485259
H -4.392335898 0.086524607 1.979965309
H -0.898581118 3.587854278 -0.736414630

