17

C 2.414673617 -0.675615092 2.032897936
C 2.408684848 1.396584612 0.116313815
C 2.324554676 -1.366699085 -0.702518424
C -0.309497833 -0.962360207 -1.860595902
C -2.680507646 -1.392783768 -0.201357216
C -2.596202750 1.424726716 0.632228549
C -0.224612450 1.836612896 -1.031514507
H 4.225255574 -0.995317843 2.931926409
H 0.816968212 -0.995018491 3.273371291
H 3.962410600 2.720044118 -0.008280893
H 3.803396062 -2.494173715 -1.552815169
H -0.441637046 -1.461104417 -3.851027969
H -2.476021233 -2.792735665 1.298407992
H -4.359461901 -1.866743616 -1.296696921
H -4.228414175 2.508946573 -0.003175515
H -2.342984287 1.770167405 2.649152592
H -0.296604250 3.345469558 -2.426316069

