10

O 4.144052039 1.268394757 -0.293820665
C 1.919393181 0.329633469 -0.181069834
N 0.818982056 -1.952583253 -0.054766625
C -1.800246874 -1.528790438 0.022428819
C -2.152941503 1.003903190 -0.062693176
N 0.195911309 2.138044792 -0.190976402
H 1.707319063 -3.624837050 -0.016787836
H -3.132953963 -3.060999749 0.131900786
H -3.900374312 2.045114770 -0.042546107
H 2.419077000 3.215952133 -0.307216385

