14

C -2.930417614 2.051202561 -1.118137058
C -1.780359850 -0.458064454 -0.269534283
C 0.812737286 -0.170690287 0.855211016
C 2.847317664 -1.081423516 -0.204914380
C 4.830163955 -1.987252962 -1.339399553
O 0.988637226 1.195908057 3.055866819
H -1.760111964 2.928167593 -2.571084378
H -4.818131426 1.761819880 -1.895563262
H -3.094751581 3.390052166 0.442691588
H -3.011798273 -1.363079088 1.133310747
H -1.655273700 -1.758642721 -1.861932902
H 5.898023640 -0.870088395 -2.689159304
H 5.502534482 -3.889148507 -0.964324728
H -0.644297379 1.252722692 3.841647123

