16

C 4.196111443 1.348060754 -0.602014889
C 3.200028261 -1.115091462 0.486575111
O 0.850503878 -0.870636189 1.720648549
C -3.605223053 -0.868921338 1.529074596
C -5.514974057 0.742394838 1.575351646
C -1.211458783 -0.458747930 0.089022560
H 6.096233272 1.067823100 -1.356269252
H 4.285620683 2.796326258 0.863202894
H 3.012782424 2.046869645 -2.139832681
H 3.056915749 -2.556332193 -1.004741775
H 4.499999832 -1.828860238 1.920081665
H -3.712831731 -2.639248651 2.563092518
H -7.235563099 0.335382848 2.606332324
H -5.431295567 2.532548912 0.578397376
H -1.114990816 -1.800477837 -1.501111714
H -1.185374591 1.454614738 -0.711662317

