14

O 4.646436712 0.408340392 1.975790961
C 3.557962892 -1.525345637 0.685561552
C 1.131005508 -1.785983751 0.100030782
C -0.926571798 -0.013179007 0.756541876
H -0.458657147 1.464563957 2.100921708
C -3.598207313 -0.965088064 0.943836450
H -4.794489554 -0.197317001 2.413284725
H -3.911856212 -2.947945920 0.549313130
C -2.858041709 0.717331684 -1.203541020
H -2.662109839 -0.121289936 -3.058782590
H -3.545680580 2.643077690 -1.210427125
H 0.617184571 -3.459758380 -0.964758137
H 4.951534450 -2.925457650 0.154848807
H 3.397698225 1.668381842 2.356324506

