16

O 3.335032298 0.292098463 2.911575703
C 2.934473590 -1.041978601 0.796584606
C 0.602608981 -1.076418709 -0.506697425
C -2.129036902 -1.443410193 0.733439370
C -3.265130932 0.622700172 -0.908841897
C -0.514316876 1.528890348 -1.134530225
H 1.988681690 1.496266664 3.135059949
H 3.748029600 1.442638636 -1.962878368
H 4.410701239 -2.415836989 0.466239957
H 0.750375832 -2.248180469 -2.196318390
H -2.118371458 -0.959188755 2.732769761
H -2.789608055 -3.375798434 0.471627736
H -4.037629675 -0.097675162 -2.679314152
H -4.615886908 1.889074415 -0.018470183
H -0.115804250 2.922073982 0.352595305
H 2.391936470 2.111392284 -2.466708398

