10

O 1.922922490 -1.188223845 -2.056303914
C 3.045485192 1.097324295 -1.210015788
C 2.441160283 1.576529285 1.547254744
O 3.256925156 -0.434029273 3.085708372
H 2.794681006 -1.971507745 2.232938334
H 0.395506582 1.892480986 1.766802785
H 3.404903977 3.282162788 2.198356781
H 2.454623901 2.706893722 -2.373381533
H 5.078576920 0.841307280 -1.443357980
H 0.135905437 -0.932724841 -2.224098952

