18

C 5.250975538 0.000152539 0.109800987
C 2.617543181 0.812581704 0.853697458
O 0.877721452 -0.610170305 -0.603652110
C -1.605109333 0.162449248 -0.569127324
C -3.129468590 -1.238566262 -2.373726370
C -2.785273760 0.985256431 1.667960131
H 5.596940248 0.380656037 -1.886126971
H 5.503529366 -2.018548868 0.440030703
H 6.649971952 1.024445004 1.226009882
H 2.300024141 0.465221924 2.869192434
H 2.335799605 2.836064704 0.504040923
H -2.030404499 1.549390512 -2.316908806
H -5.066359501 -0.634724801 -2.628231264
H -4.134442479 -3.099746032 0.377977237
H -2.184436340 -2.119795235 -3.963787190
H -1.683575259 1.676632443 3.243319354
H -3.951840379 -2.215153536 1.702571939
H -4.668228826 1.766531553 1.494049618

