15

C -3.866878085 2.293510255 0.425919797
N -1.181405750 1.720041304 0.558777880
C -0.419001868 -0.517548213 -0.668336868
C 3.653967027 -0.179241298 -1.108136420
O 4.873666622 -2.016474270 -0.214047483
C 0.027064147 -2.756885841 0.552894312
N 1.269387600 -4.420657356 1.409723500
H -4.431363410 2.451275590 -1.551851862
H -5.062566121 0.857302772 1.326587116
H -4.215985503 4.112990271 1.326066836
H -0.531344518 1.792473316 2.351260739
H -1.083846976 -0.687066265 -2.601851311
H 3.526036839 1.596395428 -0.046799086
H 3.465543493 0.001247144 -3.164452504
H 3.291209436 -3.682238331 0.944274677

