13

C -2.873824191 -0.211351600 0.414293578
N -2.345632511 2.438103783 0.103912033
C -1.110129117 0.621256855 -1.621562120
C 1.621096378 0.161258380 -1.480827507
C 2.813061691 -0.219549704 1.018300560
O 2.483408304 -2.748424403 0.138527337
H -2.074614831 -1.234883734 1.999456625
H -4.750856685 -0.804023380 -0.146761573
H -1.092559767 3.043999924 1.420793365
H -1.866166342 0.708446249 -3.521405215
H 2.696603048 -2.174613563 -1.916854957
H 4.773953296 0.352362717 1.265785027
H 1.702065625 0.073630004 2.729833391

