13

N -3.733199936 0.273937061 -0.743099291
C -1.321900255 0.177988863 -0.003177952
O -0.125541272 2.279082574 0.553506338
C -0.245134630 -2.024798117 1.483987942
O 2.306160724 -1.305328491 1.563725389
C 2.454451502 0.680814919 -0.127790178
N 4.468491880 1.796144317 -0.678376284
H -4.364317288 1.870141457 -1.555103325
H -4.727292934 -1.319632791 -1.005979715
H -0.519029248 -3.856276684 0.568388082
H -1.025735611 -2.039060182 3.397438973
H 0.915129053 -0.360793938 -1.915024020
H 4.227915137 3.529138144 -1.434171737

