14

O -2.308957122 3.161780393 -0.753079369
C -1.419260287 0.618701606 1.392158175
C -1.964677859 -1.362007613 -0.386270243
C 0.784373744 -2.286786855 -0.088532119
C 2.517763412 -0.366940216 -1.117435271
C 1.355871313 0.109984763 1.458998203
H -0.876542150 4.170047565 -1.259327322
H -2.473112793 1.302712713 3.011923146
H -2.313041179 1.213412552 -1.743735219
H -3.596847126 -2.584064680 -0.231440088
H 1.374705836 -4.169547128 0.438555337
H 1.932693035 0.738913831 -2.744023854
H 4.526639093 -0.755231389 -1.008430104
H 2.529077939 0.363214810 3.109160629

