17

C 3.154883365 -1.539258084 -0.424121968
C 0.543551808 -0.589053447 0.118511018
C -1.990068900 -1.996970841 -0.246990285
C -2.686418861 0.677956746 0.669515963
C 0.628272747 4.007806282 -0.890256024
C -0.541025037 0.460382694 2.613834801
C -0.809433534 1.754545984 -1.354166573
H 3.519451540 -3.233208904 0.699033617
H 3.365899009 -2.032446216 -2.416176082
H 4.573518719 -0.123631949 0.058294347
H -2.339051464 -3.548818527 1.066096647
H -2.507463384 -2.493330462 -2.180148760
H -4.568911491 1.447930663 0.968667697
H 1.391260744 4.641252362 -2.730838272
H -0.829274940 -0.945014221 4.094517196
H 0.267143137 2.211818396 3.311603909
H -1.312774144 1.238891748 -3.296868164

