12

N -3.776461417 -0.433056026 -0.118868819
C -1.776050027 -0.163141039 -1.594987431
C 0.558141968 -1.517369651 -1.351010163
C 1.864267772 0.144526235 0.150798614
O 4.009351624 -0.180287960 1.450950748
C 0.333558393 2.375576960 0.488331706
O -1.285348190 2.356227128 -1.642643357
H -2.280222362 0.921960772 1.556495032
H -4.006577053 -2.257089412 0.437543804
H 0.797795977 -3.535336521 -1.517232703
H 4.558792632 -1.904936927 1.325410591
H 1.132510618 4.201985789 0.953409519

