16

C -3.608905128 -1.616986885 -1.284786525
C -1.111536472 -0.242281786 -0.987391273
O -1.537960353 2.498434065 -1.202771485
C 0.150683303 -0.882596813 1.424534928
N 2.751373661 -0.411480834 1.607458073
C 4.125056040 1.414907888 0.711061611
O 3.270934791 3.316644281 -0.641715200
H -3.298922901 -3.641460082 -1.526440658
H -4.619781634 -0.905058778 -2.931825385
H -4.788018848 -1.336928604 0.386836462
H 0.065693853 -0.605493251 -2.663504363
H -2.253558950 2.973508567 0.406346051
H 1.396359244 3.227480501 -0.910678937
H -0.335538486 -2.677173092 2.271514674
H 3.723353632 -1.604701171 2.733567773
H 6.115254329 1.463758783 1.167522462

