14

N 4.480658844 -0.586464314 -0.784569859
C 1.976195532 -0.774956860 -0.587224967
O 0.852881361 -2.871225742 -0.281990998
C -1.700179508 -1.582554941 -1.468821548
C -3.133978837 -0.862884645 0.983336620
C -1.744024442 1.678332082 1.143865717
C -0.034953546 0.996192805 -1.131320695
H 5.551590733 -2.154604236 -0.741082537
H 5.299466308 1.097797709 -1.062959096
H -2.809988449 -2.164557933 2.546511400
H -5.167317155 -0.705457174 0.683885365
H -0.781218468 2.175140532 2.898173350
H -2.958430593 3.255643921 0.621647745
H 0.326857878 2.410125916 -2.577102607

