13

O 2.333223738 3.834594968 1.463901022
C 1.431417140 1.850983678 0.803272403
C 2.784833511 -0.468653099 -0.011346105
O 1.164860405 -2.356941482 -0.033863231
C -1.054931918 -1.342313511 -0.926875062
C -2.926383805 -1.044117507 1.083364624
C -1.257347929 1.227873511 0.183136269
H 4.768811086 -0.910486846 0.199261132
H 2.012668947 0.017763633 -3.200978283
H 0.477546547 -0.560417614 -3.458148258
H -2.596579183 -1.947618225 2.890777812
H -4.892076598 -0.762688929 0.595069484
H -2.329713326 2.733170647 -0.687715556

