17

O 1.682964802 -2.037232685 1.846347480
C 2.352792967 -1.405390944 -0.249796245
C 4.746851297 -2.436028675 -1.412084411
C -4.324996415 0.374932246 1.881995066
C -2.034400552 2.111544747 1.549556941
C -0.955709561 1.894245102 -1.054912076
C 0.903421765 0.387305038 -1.848720107
H -3.751637314 -1.594866809 1.691051904
H 6.008058330 -0.888914848 -1.940034357
H 5.691238299 -3.687244858 -0.083515501
H 4.297310264 -3.470854531 -3.142267365
H -5.160049155 0.626277121 3.750204901
H -5.782324062 0.768002234 0.473788336
H -2.606952853 4.072620713 1.859120007
H -0.613624800 1.625035267 2.955482375
H -1.829280381 3.096562468 -2.476526337
H 1.468093039 0.486206501 -3.818754149

