16

C 3.700876719 0.356475404 0.251674991
C 1.556735387 0.504841109 -1.681551986
C -0.944713736 -0.364437122 -0.633144612
C -1.832983035 -2.679481260 -0.993049642
O -4.474874827 0.701171729 2.211128514
C -2.358509709 1.595344116 0.875897073
H 3.995178565 -1.592650973 0.857988837
H 3.294682129 1.484750163 1.930996175
H 5.467226310 1.053639950 -0.553155491
H 2.037901761 -0.642222516 -3.327945410
H 1.375902637 2.454108309 -2.355193013
H -3.917376953 -0.582335584 3.364830483
H -0.789649405 -4.049025952 -2.103015336
H -3.637159349 -3.269242428 -0.227943773
H -1.030343671 2.558881792 2.150273361
H -3.068987433 3.041515464 -0.420204887

