10

C -2.079801524 -0.504438975 3.190336876
C -3.087806856 -1.240024658 1.021606163
C -4.148032332 0.531612065 -0.914520599
O -2.968407043 0.240245625 -3.300032152
H -1.186159262 0.489339515 -3.079152326
H -6.146112517 0.124875918 -1.237723992
H -4.007952452 2.486497817 -0.236158053
H -3.154500261 -3.234824884 0.534229430
H -1.331634650 -1.846709911 4.542799955
H -1.982997998 1.480367094 3.700649555

