14

N 3.127407900 -2.877736585 -1.118261705
C 2.183324350 -0.921382875 -0.282529967
O 3.071087599 1.502101231 -0.228633580
C 1.016353367 3.014468267 -1.249547366
C -1.316823997 1.736100197 -0.315658076
C -1.517238145 -2.385513329 -2.168743828
C -0.733175375 -0.820490397 0.146799462
H 0.669523673 -3.702855130 -1.779586612
H 1.216661672 3.016431296 -3.314448589
H 1.169052157 4.954980422 -0.573911525
H -2.934021832 2.766097802 0.400127321
H -1.104654581 -1.497288836 -3.982961259
H -3.411341216 -3.196833509 -2.122668696
H -1.511593458 -1.662826671 1.858271350

