16

C 4.133948656 -0.125896465 0.463592299
N 1.926177297 -1.167245371 -0.785124721
C -0.316920942 -1.578181794 0.849850656
C -1.135288194 1.260994628 0.985491928
C -3.811476077 0.651995594 0.063107687
C 0.034313023 0.704798151 -1.673958859
C -2.153458419 -1.217357884 -1.397832625
H 3.708436852 1.412423673 1.795446403
H 5.443412567 0.592787716 -0.959455697
H 5.097898992 -1.627750123 1.498840546
H -0.396435496 -3.001297915 2.337926094
H -0.554101488 2.681704410 2.352979861
H -4.758165276 2.110507892 -1.047099853
H -5.105143729 -0.152441353 1.454348570
H 0.379745964 2.024764933 -3.217878576
H -2.656214158 -2.659600226 -2.773325570

