12

N 3.664394290 0.062699223 0.573865019
C 1.259707214 0.257651590 -0.702040871
C -0.426833574 2.509228445 -0.306215757
C -2.783427384 1.443695504 0.145965299
C -2.626500237 -1.208075399 0.249631876
N -0.308362353 -1.987093507 -0.149210772
H 4.915088417 1.219415607 -0.290652974
H 3.478148269 0.726360059 2.360309031
H 1.580470517 0.238149541 -2.755199619
H -4.532133131 2.450974084 0.474726263
H -4.122316693 -2.566483216 0.604588356
H 0.292820830 -3.789214007 -0.169124082

