12

N 3.745729160 0.133481787 0.778235989
C 1.191621818 0.291313206 0.017172905
C -0.465868115 2.462325083 0.265242280
C -2.909549766 1.292949594 0.086918860
C -2.704373111 -1.287999003 0.004780024
N -0.245953411 -1.952677078 0.003187722
H 4.937223781 -0.369753319 -0.623099206
H 4.291893855 1.807402115 1.510842046
H 0.869940089 1.340229294 -1.956122181
H -4.683888382 2.300879582 0.067753277
H -4.160869959 -2.717116158 -0.136506048
H 0.450439881 -3.716090753 0.064642126

