8

O 0.129706682 -2.618552918 0.478404426
C -1.624696835 -0.656811164 -0.109157233
C -0.641970408 2.041628792 0.620174345
O -0.974605877 3.789029324 1.937625901
C 0.440214309 0.781111339 -1.537765560
C 1.915099345 -1.185341181 -0.588665883
H -3.526287738 -1.169932996 -0.648278692
H 3.901815512 -1.562630160 -0.275855473

