8

O -0.027035707 -2.519029283 -0.194011189
C -1.648497426 -0.669537355 0.532234843
C -0.725818274 1.954973889 0.619988811
O -1.964630503 3.818008104 1.024788216
C 1.665847625 1.314882889 -0.501269810
C 2.119491234 -1.158390436 -0.656188367
H -3.598374591 -1.026265680 -0.011771954
H 3.848444071 -2.213998479 -0.878486111

