28
opt_min/./Product_3305_opt.xyz
  C  0.14901900 -1.75802300 -0.97928800
  C -0.56332705 -0.43591539 -0.76529831
  C -1.39542654 -0.41707771  0.55040300
  C -2.71962958 -1.15309817  0.41343761
  N -1.48192663  0.99939073  0.91288990
  C -2.78005845  1.63698856  0.83977726
  N -0.60253980  1.70867052 -0.03704358
  N  0.26234969  0.75368685 -0.61810040
  C  1.59600897  0.87561975 -0.24959374
  O  1.95980583  1.74949535  0.51692635
  N  2.46217699  0.04592044 -0.88677632
  C  3.88681726  0.19073562 -0.71898871
  H  0.59194552 -1.82166444 -1.97134970
  H  0.91426402 -1.91683274 -0.22266199
  H -0.58057106 -2.56137435 -0.89889281
  H -1.24092156 -0.23426031 -1.60846233
  H -0.80022277 -0.90347211  1.34095225
  H -3.32825969 -0.72277869 -0.37839775
  H -2.53181858 -2.19739566  0.17466311
  H -3.27486601 -1.11431925  1.34713623
  H -3.44418429  1.16459143  1.56072456
  H -2.63940226  2.67808707  1.12748385
  H -3.23258049  1.61118391 -0.15916386
  H -0.00523674  2.33415614  0.51858393
  H  2.13602781 -0.52446990 -1.64553257
  H  4.04630941  0.95557407  0.03995659
  H  4.36499951  0.50116284 -1.65106105
  H  4.33132691 -0.74970695 -0.38518666
