39
opt_min/./Product_3668_opt.xyz
  C -0.65417500  1.50456200 -0.48100500
  C -0.87613403  0.12387563  0.15218551
  C -0.74351043  0.23331260  1.67711471
  C  0.13837696 -0.91036294 -0.42043636
  C  1.52127949 -0.38020127 -0.60718358
  C  2.52821875 -0.63193621  0.22816612
  C  3.88669964 -0.13316416  0.08819701
  C  4.17827835  0.82812135 -1.02595023
  C  4.84300957 -0.53784922  0.92440586
  C -0.50765223 -1.39275688 -1.73289483
  N -1.82995252 -0.80611963 -1.74284421
  C -2.22061500 -0.43929487 -0.39646952
  C -2.76313064 -1.65152343  0.39397339
  C -3.34436119  0.60053498 -0.51103310
  C -3.97690736  1.10049806  0.76324218
  O -3.75223506  0.95705756 -1.58713027
  H -1.35783133  2.22483911 -0.07073595
  H  0.35221133  1.85847877 -0.27856495
  H -0.81119453  1.44600670 -1.55323125
  H -0.25005945  1.16192901  1.94499240
  H -1.70200182  0.20129596  2.18223908
  H -0.13917629 -0.57643817  2.07852869
  H  0.18542924 -1.74156775  0.28846403
  H  1.66775030  0.23385729 -1.48326689
  H  2.35493175 -1.26250153  1.09041163
  H  5.20442308  1.17567638 -0.96780944
  H  3.51543523  1.68972551 -0.97674463
  H  4.03272114  0.34131837 -1.98892709
  H  4.64473288 -1.23387505  1.72160280
  H  5.85739685 -0.18655565  0.84250558
  H -0.51790302 -2.49229328 -1.76921878
  H  0.04741549 -1.04154635 -2.60686813
  H -2.52806251 -1.34119420 -2.23739350
  H -2.91643810 -1.42937125  1.44478486
  H -2.06815185 -2.48407874  0.31688784
  H -3.71364094 -1.96040190 -0.03654085
  H -4.59308529  1.96450246  0.53260799
  H -3.23750363  1.36621452  1.51038855
  H -4.61780537  0.32352050  1.17369847
