32
opt_min/./Product_3682_opt.xyz
  C -0.34538700 -1.32700000 -1.18463600
  C  1.15660451 -1.42483372 -0.89308338
  N  1.37626630 -0.42236853  0.13801632
  C  2.43903514 -0.29862771  0.96813512
  C  3.58745041 -1.23817541  0.66005095
  O  2.46128754  0.50591803  1.87463018
  N  0.30108709  0.48248788  0.23650610
  C  0.55409001  1.65547101 -0.58173641
  C -0.85926586 -0.31627964 -0.13255198
  C -2.02514285  0.51217702 -0.68421332
  O -2.46321572  1.34839076  0.25328283
  C -3.61415195  2.12941182 -0.06291152
  O -2.49099629  0.39015526 -1.78244959
  C -1.44648348 -1.07135152  1.08153090
  C -0.65564871 -1.01048647  2.34479602
  O -2.49298122 -1.65516255  0.96930262
  H -0.56012397 -0.95569238 -2.18787006
  H -0.85429818 -2.28302816 -1.06818263
  H  1.42580396 -2.40819489 -0.49966129
  H  1.75300553 -1.23785563 -1.79232687
  H  4.47899639 -0.84610902  1.14331173
  H  3.38909978 -2.22832627  1.06797362
  H  3.75216154 -1.32935784 -0.40985945
  H  0.79383980  1.42064371 -1.62727247
  H  1.39201195  2.18638976 -0.12957245
  H -0.31287564  2.30951587 -0.55504096
  H -4.17288271  2.23271754  0.86693817
  H -4.21835085  1.60751781 -0.80834922
  H -3.31633665  3.10669042 -0.44256355
  H  0.28819487 -1.53831314  2.22352321
  H -0.40786054  0.02413368  2.57309469
  H -1.22365478 -1.46302217  3.15462331
