48
opt_min/./Product_1673_opt.xyz
  C  4.82782300  0.53236800  2.35893700
  O  4.05211017  0.03504164  1.27859581
  C  2.94642127 -0.63752638  1.62720165
  O  2.58486269 -0.78936141  2.76463896
  C  2.29009303 -1.22527902  0.45040555
  C  1.52499196 -2.31971149  0.37430813
  F  1.05032842 -3.10207850  1.32772733
  C  1.23527721 -2.54715986 -1.09493879
  C  0.19789737 -1.44891404 -1.47460888
  C  1.09298091 -0.19454421 -1.49667013
  C  2.44029854 -0.80507559 -1.00648159
  O  2.42362583 -2.05812541 -1.68496831
  C  0.33087347  0.81767066 -0.59623182
  C -0.44600320  1.81142694 -1.48267243
  C  1.18942915  1.62756178  0.34669745
  C  0.81323955  1.80281141  1.67072564
  C  1.54492828  2.63246051  2.50153508
  C  2.66191998  3.29177078  2.01830558
  C  3.04771122  3.11353479  0.70022828
  C  2.31283642  2.29052511 -0.13281367
  N -0.66027975  0.04436263  0.11804891
  C -0.77824170 -1.12379280 -0.36265920
  C -1.73474669 -2.09030321  0.15539104
  C -2.00849698 -3.28113335 -0.51582845
  C -2.91203811 -4.18480978  0.01113241
  C -3.54833712 -3.91600293  1.21167490
  C -3.28318354 -2.73336641  1.88473824
  C -2.38536340 -1.82539251  1.36153890
  H  5.19674423 -0.29492896  2.96933687
  H  5.65594043  1.07529450  1.91195821
  H  4.22362982  1.19071719  2.98516041
  H  1.00949547 -3.56556377 -1.39879708
  H -0.27948554 -1.67775373 -2.42605443
  H  1.24207631  0.20259426 -2.50034047
  H  3.34049287 -0.24779298 -1.24388900
  H -1.04729019  1.27558567 -2.21429177
  H -1.10803793  2.40113543 -0.85373238
  H  0.24112613  2.47810511 -1.99635355
  H -0.05907023  1.28711913  2.03850041
  H  1.23981814  2.76452924  3.52902503
  H  3.23153820  3.94382124  2.66519734
  H  3.92020951  3.62297864  0.31764403
  H  2.61148843  2.17162521 -1.16421041
  H -1.52501287 -3.49996833 -1.45637432
  H -3.11979005 -5.10447168 -0.51594346
  H -4.24914515 -4.62832484  1.62122395
  H -3.77752195 -2.52392510  2.82193719
  H -2.16033202 -0.90256118  1.87124175
