27
opt_min/./Product_251_opt.xyz
  C  3.28867600  2.94624703 -1.26936193
  O  2.21916496  2.14660812 -0.77625098
  C  2.49539225  0.85878663 -0.57601027
  O  3.55191580  0.33210421 -0.79274416
  C  1.30444577  0.14447580 -0.06029404
  C  0.03371133  0.52535511  0.10876223
  F -0.56277603  1.67539133 -0.14128611
  C -0.73638207 -0.71507605  0.55557202
  C -2.14949985 -0.57791543  1.15032255
  N -3.02579878 -0.10437866  0.25615263
  C -4.41566473  0.10928321  0.59851686
  O -2.38581871 -0.89528783  2.28936746
  N  0.26500307 -1.31979154  1.36272551
  C  1.30173759 -1.32897762  0.33498497
  C  2.54725936 -1.95310177  0.67368210
  N  3.51055042 -2.48734153  0.97230076
  C  0.49195722 -1.95305246 -0.87728790
  O  0.89061121 -2.62789959 -1.76616566
  O -0.76628179 -1.55186051 -0.67806739
  H  3.75064013  2.46625573 -2.13385173
  H  4.04347327  3.08162745 -0.49250974
  H  2.84744474  3.90220170 -1.54392890
  H -2.73445676  0.09121534 -0.68903647
  H -5.05080058 -0.17867918 -0.23644355
  H -4.64529369 -0.50242040  1.47079960
  H -4.58991726  1.15779637  0.84896731
  H  0.01742056 -2.22075991  1.76247891
