57
opt_min/./Product_2429_opt.xyz
  C -2.41651738 -2.89132354 -1.02181085
  C -1.10506082 -3.14237909 -0.33064027
  O -0.53656654 -4.20109461 -0.47055506
  C -0.47276692 -2.13048169  0.62680870
  C -0.61107756 -0.57276299  0.48052974
  C -1.23812895 -0.09015614 -0.80387983
  C -2.17959655  0.93356376 -0.81796681
  C -2.69819592  1.39785862 -2.01465832
  C -2.27162172  0.86297049 -3.21781474
  C -1.31221799 -0.13443782 -3.21651630
  C -0.79923201 -0.60342371 -2.02184786
  C -1.36811053 -0.21713718  1.78407034
  C -2.78607990 -0.81482051  1.77422295
  C -2.55094067 -2.30774628  2.06662935
  C -1.02447902 -2.40657797  2.05870343
  C -0.66879725 -1.12058043  2.80246215
  C  0.88644860 -0.05446080  0.55799040
  C  1.13259747  1.08313804  1.55933007
  O  2.26875531  0.89551121  2.21356783
  C  2.64905484  1.92554751  3.11721726
  O  0.43059326  2.05449658  1.68267097
  C  1.45856495  0.58945686 -0.70626245
  C  2.61334897  0.08061542 -1.28544460
  C  3.14683815  0.67168405 -2.41699658
  C  2.55228477  1.79389439 -2.96468400
  C  1.43799027  2.34346255 -2.35330627
  C  0.90021973  1.75526468 -1.22466306
  O  1.67797580 -1.15271484  0.97674645
  C  1.07447891 -2.36412850  0.58806734
  C  1.52967340 -2.78908229 -0.74361154
  N  1.96300793 -3.07373398 -1.76141862
  C  1.53048641 -3.43000197  1.47411983
  N  1.90647526 -4.27162357  2.14782432
  H -2.23033937 -2.90012533 -2.09525192
  H -2.89254332 -1.95706395 -0.75565163
  H -3.07722435 -3.73322278 -0.81618798
  H -2.49859629  1.39249163  0.10386728
  H -3.43162813  2.19011928 -2.00332798
  H -2.67366745  1.22987719 -4.14974569
  H -0.95178016 -0.54634736 -4.14674929
  H -0.04033835 -1.37257076 -2.04577142
  H -1.35937854  0.84552923  2.00723311
  H -3.38546713 -0.34903562  2.55602968
  H -3.29932693 -0.65325652  0.82858581
  H -2.91040628 -2.57186317  3.06226726
  H -3.03836290 -2.97266194  1.36088930
  H -0.64855333 -3.34059133  2.47439401
  H  0.39950518 -0.94743330  2.90848735
  H -1.13013788 -1.07704519  3.78733358
  H  3.59600876  1.61227430  3.54775469
  H  1.89196890  2.04546801  3.89494032
  H  2.75986071  2.87127966  2.58366046
  H  3.10211696 -0.77747059 -0.85254441
  H  4.03490364  0.25155457 -2.86391232
  H  2.96655869  2.25084698 -3.85101204
  H  0.98582163  3.23965472 -2.75080207
  H  0.05339030  2.21027434 -0.73725753
