30
opt_min/./Product_3485_opt.xyz
  C -1.12769400 -0.64112400  1.76458000
  C -0.57661528 -0.80217110  0.34752902
  C -0.82593043 -2.24667671 -0.09255738
  C  0.92655425 -0.39271610  0.32749280
  C  1.87431718 -1.45504741 -0.16383014
  O  2.88930053 -1.76768218  0.39574576
  C  0.94996283  0.72113979 -0.71086164
  C  2.15848904  1.52996790 -1.04962783
  C  3.22896865  1.55917095  0.00754406
  O  2.23799149  2.13585536 -2.08798285
  N -0.15438600  0.92961456 -1.28878146
  C -1.21571126  0.16832876 -0.70039025
  C -2.16342092  1.29725854 -0.23428877
  C -3.07029250  1.76353183 -1.33615651
  O -2.16455015  1.75552198  0.87218733
  H -0.74731125 -1.44344053  2.39406079
  H -0.84328772  0.31182475  2.20066801
  H -2.21380093 -0.69263254  1.76405684
  H -0.57619523 -2.40345094 -1.13980297
  H -1.87982375 -2.48603235  0.04036813
  H -0.24195572 -2.93807913  0.51216520
  H  1.27008926 -0.05992059  1.30788742
  H  1.59008112 -1.91207193 -1.12948206
  H  3.52377549  0.55638039  0.30649500
  H  2.83916882  2.07421257  0.88615649
  H  4.09300659  2.10041478 -0.36819744
  H -1.73754983 -0.38815739 -1.48536718
  H -2.56938888  1.71343951 -2.29853581
  H -3.94878641  1.11729324 -1.35908577
  H -3.40036021  2.77981928 -1.13225731
