35
opt_min/./Product_3851_opt.xyz
  C  1.39894200 -1.91240700 -1.27349600
  C  0.49099818 -1.20396546 -0.27039138
  C  0.17246282 -2.17278632  0.87378369
  C -0.84931170 -0.76796729 -0.93215983
  C -0.85744115 -0.78464504 -2.43114076
  O -1.61241798 -1.43102907 -3.10362033
  C -1.07921253  0.69198870 -0.47596287
  C -2.00803963  0.69133020  0.74917597
  N -3.30241758  0.94377740  0.47566899
  C -4.30507175  0.97251210  1.51769631
  O -1.60079458  0.47972925  1.87396690
  N  0.24730329  1.16645410 -0.22331179
  C  1.06649201  0.10964957  0.32677842
  C  2.53665173  0.43550953  0.07075726
  O  3.42587533 -0.33695109 -0.16255627
  O  2.74207579  1.74796871  0.24117353
  C  4.07719876  2.21153413  0.09474801
  H  0.85698689 -2.73884814 -1.72925468
  H  1.73454849 -1.23958346 -2.05835047
  H  2.28091468 -2.30268032 -0.77433220
  H  1.09562473 -2.50737969  1.34313850
  H -0.44779481 -1.68582162  1.62289050
  H -0.35553668 -3.04668197  0.49554950
  H -1.65371134 -1.41891500 -0.57548971
  H -0.12206898 -0.09887575 -2.88872733
  H -1.53078753  1.28846241 -1.27815099
  H -3.59726050  1.10984822 -0.47222326
  H -4.12945719  0.14559206  2.20798445
  H -4.24624582  1.90630762  2.08202267
  H -5.29292942  0.87468704  1.07576632
  H  0.33458197  2.06581022  0.22098420
  H  1.00328310  0.04928489  1.42971911
  H  4.77441289  1.50027600  0.54263483
  H  4.31939667  2.32408399 -0.96460546
  H  4.12476784  3.17396421  0.59844344
