45
opt_min/./Product_1702_opt.xyz
  C  0.64998800 -1.75088200  2.63719500
  C  0.98812341 -0.61816380  1.72191533
  O  1.62163683  0.34450161  2.05416978
  C  0.49678060 -0.77320767  0.26665416
  F  0.87971674 -2.03711994 -0.14790074
  C -1.04822588 -0.62251683  0.12346573
  F -1.53139200 -0.06934864  1.30634588
  C -1.76734296 -1.97437457 -0.15941282
  C -2.51023552 -2.61998530  0.97225783
  O -1.70166778 -2.43010968 -1.26700911
  N -1.23232414  0.25905484 -0.98181955
  C -2.34768928  1.07734660 -1.13737500
  C -2.24730649  2.25784878 -1.86814573
  C -3.36726771  3.03937750 -2.07140267
  C -4.59625605  2.65911487 -1.55838897
  C -4.69603106  1.48373670 -0.83509275
  C -3.58380716  0.69088004 -0.62638968
  N -0.02078146  0.61857872 -1.60814207
  C  1.05644650  0.30810385 -0.69258481
  C  1.36371214  1.64334220  0.04460572
  O  2.65439035  1.93602441 -0.02230919
  C  3.05903767  3.15603413  0.59261930
  O  0.49971003  2.35564504  0.46535044
  C  2.29397790 -0.19524016 -1.44071673
  O  2.39355117 -0.14474679 -2.63566544
  O  3.19681596 -0.67697128 -0.60579269
  C  4.41112650 -1.15323289 -1.17916682
  H  1.57393665 -2.12876706  3.07348562
  H  0.03954016 -1.36379034  3.45203603
  H  0.13164194 -2.55450390  2.12762863
  H -3.40160802 -3.10249146  0.57664219
  H -2.76951722 -1.91333267  1.75421372
  H -1.87901792 -3.40341185  1.39199213
  H -1.28526787  2.55120207 -2.25350546
  H -3.27505126  3.95613066 -2.63506988
  H -5.46964474  3.27218990 -1.72041564
  H -5.64893867  1.17544741 -0.43058938
  H -3.67538453 -0.22867229 -0.06803670
  H  0.09416164  0.11279078 -2.49174936
  H  3.96836892  3.47166259  0.08658513
  H  3.25176108  2.97532185  1.65115812
  H  2.27256503  3.90538662  0.48994173
  H  5.16273705 -1.09023714 -0.39630231
  H  4.28030441 -2.18812520 -1.50059476
  H  4.68554868 -0.53851558 -2.03737336
