19
opt_min/./Product_0_opt.xyz
  C -0.10577629  0.34798823 -0.69537185
  C -1.08731495 -0.55825337  0.06329989
  C -2.54030959 -0.10742290 -0.01145761
  C -0.51559154 -0.49829522  1.45591440
  N  0.60452438  0.05235507  1.58586157
  C  1.09548556  0.49440816  0.28222797
  C  2.29854372 -0.37634328 -0.10602064
  C  1.53384879  1.87265377  0.37468998
  N  1.85971194  2.96668277  0.41353590
  H  0.20602792 -0.05644073 -1.65624643
  H -0.56332873  1.32490591 -0.87231710
  H -1.01473288 -1.59755080 -0.28690751
  H -2.66438569  0.86124196  0.46973411
  H -3.18694521 -0.82535933  0.48911563
  H -2.85454184 -0.02152051 -1.04968066
  H -1.02075226 -0.91458114  2.31389304
  H  1.99736591 -1.42156892 -0.13018032
  H  3.08756169 -0.25780809  0.63345657
  H  2.67757052 -0.08287637 -1.08275226
