58
opt_min/./Product_2855_opt.xyz
  C -4.09043900 -0.71665200 -1.29713900
  C -2.61672308 -0.56604241 -1.07820897
  O -1.80551501 -0.84186116 -1.92510114
  C -2.11615302 -0.16704305  0.34637120
  C -2.91249628  0.98064190  1.01967818
  C -2.16999950  1.73138720  2.09717336
  O -4.07458151  1.18786387  0.80679497
  C -0.68494003  0.27967400  0.16443578
  C  0.62546599 -0.09586258  0.47163478
  C  1.44772150  0.89598685 -0.15813474
  C  2.90119380  1.11179535 -0.29989314
  C  3.58691513  1.93477441  0.58517255
  C  4.93052986  2.19508447  0.38778538
  C  5.59289411  1.65541160 -0.70121228
  C  4.90232833  0.86683543 -1.60493910
  C  3.55838402  0.60323550 -1.41414101
  N  0.69946459  1.77559062 -0.77582095
  N -0.56845721  1.40710766 -0.60616894
  C -1.56557401  2.23463663 -1.20137756
  N -1.11281415  3.48418446 -1.35520114
  C -1.88497235  4.50565877 -2.01569242
  O -2.66110653  1.83210487 -1.50842807
  C  1.17019349 -1.20543414  1.36001891
  C  2.51335271 -1.74896077  0.80785142
  F  2.46253928 -1.91474933 -0.51374986
  F  2.83457448 -2.95204876  1.31323577
  F  3.57161806 -0.98479038  1.09320776
  C  1.42885419 -0.59969229  2.75151805
  F  0.26877964 -0.20042266  3.30936144
  F  2.21073305  0.47917383  2.75541731
  F  1.97036657 -1.47764430  3.60162442
  C  0.25047720 -2.42793954  1.59191797
  C -0.57817389 -2.83631502  0.37297809
  C -2.06217562 -2.73340375  0.71012118
  C -2.44577718 -1.36242143  1.26832388
  H -4.67337227 -0.65600397 -0.38838069
  H -4.40026153  0.08977217 -1.95858335
  H -4.27339775 -1.65652160 -1.81570630
  H -1.15098700  1.99120885  1.82955819
  H -2.12351926  1.09406007  2.97983076
  H -2.72952568  2.62866590  2.35001812
  H  3.07220569  2.36264408  1.43115701
  H  5.45978891  2.82529151  1.08677530
  H  6.64337637  1.85669688 -0.85036142
  H  5.40919457  0.45718968 -2.46601871
  H  3.01574294 -0.00243076 -2.12410048
  H -0.12845528  3.63665129 -1.17609528
  H -1.99058249  5.37322294 -1.36371074
  H -2.86800990  4.09393842 -2.23657322
  H -1.40730322  4.81268872 -2.94756932
  H  0.86329380 -3.26076234  1.93634948
  H -0.41237695 -2.19804122  2.42253340
  H -0.35800081 -2.20524650 -0.48731347
  H -0.34253024 -3.86017701  0.08480344
  H -2.31538314 -3.48307139  1.46475552
  H -2.64852223 -2.94912906 -0.18305864
  H -3.52674875 -1.35621460  1.42595559
  H -1.99067488 -1.18919022  2.24346888
