72
opt_min/./Product_2923_opt.xyz
  C -4.73134188 -1.58637984  0.85871792
  C -3.25067638 -1.79955399  0.71936748
  O -2.63125168 -2.41745011  1.55183247
  C -2.48659801 -1.25586132 -0.50978367
  C -3.29193681 -0.69756025 -1.69261143
  C -4.46648656 -1.48774240 -2.20529005
  O -2.93040228  0.30913442 -2.25236749
  C -1.60217853 -0.11347166 -0.03075297
  C -0.31382768  0.22855233 -0.18666478
  C  0.95812545 -0.56877868 -0.44400817
  C  1.29975596 -1.40355080  0.79616361
  C  2.47768170 -2.15020362  0.76290034
  C  2.83656906 -2.96339011  1.81945516
  C  2.02735244 -3.04613262  2.94111098
  C  0.86764499 -2.29799670  2.99261258
  C  0.50945167 -1.48195787  1.93076056
  C  2.11802762  0.40636295 -0.68322883
  C  2.94745480  0.81198669  0.35327035
  C  4.01865511  1.65827952  0.11798276
  C  4.27976688  2.11722462 -1.15851115
  C  3.45277471  1.73204427 -2.19923931
  C  2.38461366  0.88851135 -1.96313139
  C  0.94178062 -1.57755688 -1.63761530
  C -0.17634252 -1.39082824 -2.66069720
  C -1.24707444 -2.45726231 -2.47160197
  C -1.76896574 -2.52685804 -1.03957344
  C -0.13110972  1.69156986  0.23130316
  C  0.40266863  2.60361758 -0.84706832
  C -0.17072946  2.58741385 -2.11402367
  C  0.23957384  3.49213986 -3.07530798
  C  1.20760271  4.43600812 -2.77614018
  C  1.75414453  4.47962627 -1.50602831
  C  1.34938970  3.57085801 -0.54490230
  N -1.45910158  2.18720167  0.58608311
  C -2.34663774  1.03390990  0.68461805
  C -2.54678613  0.76488182  2.20334190
  C -3.64067051  1.36547758  0.13562637
  N -4.67858686  1.67528740 -0.23821986
  H -5.00241856 -1.69504767  1.90715786
  H -5.25565129 -2.35963488  0.30112643
  H -5.04409390 -0.61518539  0.49084585
  H -4.46336759 -1.44863034 -3.29371642
  H -4.46837312 -2.51959992 -1.87415318
  H -5.37919261 -0.99193494 -1.87880812
  H  3.12811887 -2.08004839 -0.09636399
  H  3.75250336 -3.53386989  1.76702563
  H  2.30525662 -3.68595443  3.76553584
  H  0.22544079 -2.34395746  3.85913495
  H -0.40383931 -0.91771556  2.00220603
  H  2.76787014  0.46205163  1.35919091
  H  4.65326035  1.95284929  0.94129228
  H  5.11782353  2.77303052 -1.34219777
  H  3.63659495  2.09183399 -3.20073214
  H  1.74434089  0.61586464 -2.78711502
  H  0.88066033 -2.59182776 -1.24060116
  H  1.90859133 -1.51233319 -2.13560013
  H -0.62189981 -0.40208244 -2.56777506
  H  0.22016647 -1.47505387 -3.67525882
  H -0.82063547 -3.43546859 -2.71231580
  H -2.06535964 -2.28049719 -3.17263637
  H -0.96343376 -2.75273113 -0.34146104
  H -2.47965629 -3.35614976 -0.97893393
  H  0.51728546  1.74924423  1.11642323
  H -0.95105329  1.87635058 -2.34694501
  H -0.20583007  3.46330630 -4.05878704
  H  1.52450194  5.14535588 -3.52655449
  H  2.49367994  5.22473384 -1.25709513
  H  1.77470982  3.60743744  0.44687839
  H -1.78478329  2.84795087 -0.11258130
  H -2.67361070 -0.28240548  2.44626919
  H -1.67056015  1.14528209  2.72159080
  H -3.41637525  1.31221257  2.56275094
