47
opt_min/./Product_5125_opt.xyz
  C  5.31474040 -1.81910766  1.77835393
  C  5.43508245 -0.32533090  1.73982541
  C  6.65399926  0.26369926  2.38816320
  C  4.52548329  0.47563457  1.17074396
  C  3.30712415  0.05478041  0.52466017
  C  2.47878639  0.90702739 -0.07981411
  C  1.20418108  0.58125619 -0.79587001
  C  1.25271230  1.18626030 -2.20252011
  C -0.04423279  1.05272328 -0.02740149
  C -1.16685551  0.10601691 -0.51932884
  C -2.06710059  0.83650817 -1.53135683
  O -3.01937681  1.52857612 -0.89991230
  C -3.92627364  2.27835507 -1.70144373
  O -1.92365550  0.79667923 -2.72050936
  C -2.04225755 -0.43788778  0.59517155
  C -2.34442280  0.30603743  1.72667226
  C -3.15925298 -0.22637138  2.71105376
  C -3.68014163 -1.50169747  2.57511341
  C -3.39385909 -2.24039650  1.43999453
  C -2.58408032 -1.70920632  0.45232037
  O -0.51877829 -0.95418845 -1.21481990
  C  0.85455290 -0.92261784 -0.88649607
  C  1.65600910 -1.65182912 -1.84204650
  N  2.34336563 -2.23879462 -2.54104179
  H  4.66579456 -2.12303118  2.60153445
  H  4.89577593 -2.21112954  0.85456177
  H  6.28973899 -2.27571962  1.93285872
  H  7.37954224  0.55766429  1.62805662
  H  6.39982451  1.15352803  2.96126154
  H  7.13251938 -0.45252301  3.05113270
  H  4.70012224  1.54437253  1.18151448
  H  3.09284796 -1.00253512  0.53293860
  H  2.72846071  1.96070483 -0.09169790
  H  2.13629887  0.82955160 -2.72979855
  H  1.30115525  2.27203128 -2.14283660
  H  0.37275097  0.90536389 -2.77545598
  H  0.11729997  0.89455589  1.04213544
  H -0.27635553  2.10219866 -0.19839573
  H -3.91374554  3.30964847 -1.34956272
  H -3.62788385  2.23080127 -2.75045623
  H -4.92369564  1.85552709 -1.57732352
  H -1.96667899  1.31076665  1.83868953
  H -3.38716944  0.36016844  3.58861462
  H -4.31151444 -1.91346079  3.34810654
  H -3.80391662 -3.23194946  1.31959915
  H -2.35637106 -2.27981408 -0.43524961
  H  1.00035355 -1.40301199  0.10031246
