34
opt_min/./Product_3700_opt.xyz
  C -1.13431200 -2.20563600  0.39983600
  C -1.46261125 -0.72457214  0.62569831
  C -2.98236832 -0.57172852  0.63982509
  C -0.67571182  0.26881043 -0.31146233
  C -0.12470871 -0.36993705 -1.58453679
  C -1.54566327  1.46145935 -0.71755761
  C  0.45939335  0.74130863  0.67567083
  C  1.79264729  0.03877139  0.41608054
  O  1.87236359 -1.08549159  1.12574511
  C  3.10450075 -1.79271194  1.05344239
  O  2.66263571  0.42759080 -0.31527095
  C  0.66388515  2.26794217  0.72375913
  C  1.44035170  2.89203005 -0.39754025
  O  0.22418209  2.91155778  1.63819380
  N -0.00614550  0.30143122  1.99680738
  N -0.97426523 -0.41833208  1.96248999
  H -1.50499036 -2.53539610 -0.56777612
  H -0.06516770 -2.38487702  0.46735668
  H -1.61737805 -2.79137241  1.17806425
  H -3.40079213 -0.82010361 -0.33349668
  H -3.28321452  0.43354177  0.91862972
  H -3.39068605 -1.25685658  1.37883344
  H -0.94846775 -0.67529258 -2.22619639
  H  0.49841608 -1.23532099 -1.38324797
  H  0.47955439  0.34898878 -2.13547100
  H -2.42104917  1.11876614 -1.26279833
  H -0.99160673  2.12799532 -1.37372081
  H -1.86948234  2.03022302  0.15063556
  H  3.22853393 -2.23865142  0.06364514
  H  3.93914729 -1.11539618  1.23981324
  H  3.05341410 -2.56536896  1.81677796
  H  1.12345893  3.92573387 -0.51189687
  H  1.35966363  2.35036159 -1.33285622
  H  2.49192179  2.88806953 -0.11008096
