26
opt_min/./Product_74_opt.xyz
  N -0.60371546  4.39651897 -0.98904933
  C -0.42787145  3.46258315 -0.34670166
  C -0.24400790  2.29794078  0.40521331
  C -0.84945958  1.86954538  1.51802855
  C -0.29924486  0.48398818  1.74769495
  C -1.00438580 -0.37643622  0.62839314
  C -0.17953758  0.05719923 -0.60207172
  C  0.71178074  1.16815446  0.01498879
  O  1.02769588  0.60057115  1.26724152
  C  0.64123486 -1.21359595 -0.94614978
  C  2.06913666 -1.05321664 -0.66562490
  N  3.18986801 -1.06669495 -0.44596869
  C  0.53164743 -1.54463145 -2.36344046
  N  0.45536773 -1.78171599 -3.47736786
  N  0.09590863 -2.29903661 -0.13217591
  N -0.84580731 -1.79834092  0.82880051
  C -2.08693489 -2.55112269  0.71239049
  H -1.62789472  2.33373114  2.09039318
  H -0.33149025  0.05917737  2.74361479
  H -2.06191636 -0.10686971  0.56374122
  H -0.78375564  0.38321307 -1.44859045
  H  1.60259982  1.44272951 -0.54234965
  H  0.82936015 -2.81545749  0.34984934
  H -2.74711702 -2.24629568  1.52167051
  H -2.58497078 -2.40419009 -0.25268441
  H -1.84708500 -3.60554202  0.82945688
