65
opt_min/./Product_2883_opt.xyz
  C -2.86497900 -1.74010571  4.30205164
  N -2.16720900 -1.89755522  3.04906483
  C -1.33730197 -0.96527544  2.58160115
  O -1.00218782  0.03204809  3.18712213
  C -0.67094236 -1.28483086  1.19104363
  C -1.58255986 -2.10272174  0.29379839
  O -2.11825006 -3.13487353  0.62513587
  O -1.69347469 -1.59196672 -0.92962731
  C -2.55029190 -2.28505671 -1.82901774
  C -0.46378309  0.07284842  0.56204780
  C  0.50338081  0.84546008 -0.04433616
  N -0.10932485  2.06493666 -0.32892701
  C  0.38715956  3.23241864 -0.93324347
  O -0.46413806  4.22622856 -0.72397643
  C -0.11266538  5.46467943 -1.32262678
  O  1.40042796  3.31422391 -1.56513661
  N -1.39677754  2.07859118  0.01908552
  C -1.64029598  0.90445025  0.53891431
  C -2.92583733  0.49504593  0.93722034
  N -3.96043653  0.09087889  1.22253964
  C  1.96191732  0.68254309 -0.39946139
  C  2.70004931  1.76653304  0.39256987
  C  3.61855428  2.65346086 -0.15259111
  C  4.25097845  3.59074784  0.64692741
  C  3.97805014  3.66446973  2.00102876
  C  3.05096104  2.79588670  2.55178694
  C  2.42028131  1.85835895  1.75444656
  C  2.14776137  0.70784418 -1.91262633
  C  1.06843622  0.65189437 -2.78800448
  C  1.26065676  0.61020075 -4.15757071
  C  2.53841142  0.61106544 -4.68615760
  C  3.62145199  0.62456341 -3.82626849
  C  3.42677190  0.65971298 -2.45724618
  C  2.52854137 -0.67781566  0.05753529
  C  1.77364283 -1.86025289 -0.56187949
  C  1.29522864 -2.84493686  0.49809340
  C  0.51826241 -2.16657979  1.62545648
  H -2.75031705 -2.63782067  4.91022459
  H -3.92628949 -1.55473020  4.12516921
  H -2.43554730 -0.88449996  4.82040283
  H -2.43414110 -2.66790487  2.44733885
  H -2.28882733 -3.34441809 -1.85920027
  H -2.40394031 -1.82412994 -2.80224107
  H -3.58750742 -2.18049857 -1.50612873
  H  0.80628681  5.85241051 -0.87804635
  H  0.04171312  5.33981492 -2.39640339
  H -0.94485823  6.13568110 -1.12874332
  H  3.81910709  2.65082677 -1.21039116
  H  4.95982015  4.27396483  0.20149755
  H  4.47452470  4.39825363  2.61910516
  H  2.80794899  2.84615893  3.60278656
  H  1.68369678  1.20700610  2.20503959
  H  0.05398401  0.63097738 -2.41571226
  H  0.40288156  0.57588520 -4.81393313
  H  2.68605771  0.58836116 -5.75558599
  H  4.62753399  0.60123455 -4.21953028
  H  4.29373268  0.63921350 -1.81353042
  H  3.58023057 -0.71517858 -0.22634866
  H  2.50004105 -0.71950295  1.14275641
  H  0.91182784 -1.49815083 -1.12140891
  H  2.41315289 -2.38186204 -1.27645454
  H  2.15448382 -3.35287123  0.94145175
  H  0.66170810 -3.60206412  0.03212830
  H  1.17420285 -1.55862710  2.24769752
  H  0.11305619 -2.95440085  2.26618688
