54
opt_min/./Product_5739_opt.xyz
  C -0.32588700 -1.61600200  1.58688000
  C  0.87523169 -2.50375296  1.51943052
  C  1.84036069 -2.35143918  0.62202535
  N  1.93483194 -1.30420230 -0.28095549
  C  2.50826552 -1.68314916 -1.56462604
  C  0.84229652 -0.36304319 -0.30195769
  C -0.50724527 -0.84642517  0.26634144
  C -1.20448031 -1.74212701 -0.76944313
  N -2.39375793 -2.21451122 -0.35778052
  O -0.69823714 -2.02182782 -1.83466355
  C -1.22007582  0.51789728  0.48448136
  C -2.20404355  0.46879677  1.66261266
  N -2.07934384  1.49261010  2.50457300
  C -2.93378859  1.70486897  3.64282619
  O -3.02976297 -0.42763436  1.78657270
  C -1.98446381  0.95172848 -0.76762173
  C -1.35193676  1.75208137 -1.71169422
  C -1.99409678  2.11521051 -2.88228246
  C -3.28763637  1.69494778 -3.13075884
  C -3.93967842  0.93088723 -2.17909097
  C -3.29810770  0.56521864 -1.00942870
  O -0.18246397  1.45326172  0.79816912
  C  1.11044956  0.94711269  0.48329570
  C  1.93345072  0.78424484  1.77102168
  C  1.87018501  1.97651428 -0.37995564
  O  1.46869666  3.09869999 -0.59503314
  N  3.03602395  1.49684622 -0.85645944
  C  3.91990632  2.28374994 -1.68157339
  H -0.25501676 -0.91686347  2.42618925
  H -1.20590368 -2.23453249  1.77956321
  H  0.92194139 -3.31503936  2.22768256
  H  2.66948842 -3.04309592  0.56753337
  H  2.40223457 -0.87211970 -2.28150379
  H  3.57046494 -1.89967457 -1.42646331
  H  2.01667623 -2.56294364 -1.98973646
  H  0.64083993 -0.09052045 -1.34546493
  H -2.83544547 -1.80322654  0.46043655
  H -2.94627282 -2.75324283 -1.00543117
  H -1.32593242  2.13451915  2.29844035
  H -2.34982800  1.71665212  4.56456713
  H -3.64953618  0.88493453  3.67574632
  H -3.46780363  2.65138891  3.54512512
  H -0.36762186  2.14325467 -1.52010586
  H -1.47349196  2.73102040 -3.60031944
  H -3.78831210  1.97199875 -4.04607236
  H -4.96023318  0.61625163 -2.34132854
  H -3.84800846 -0.01529333 -0.28475891
  H  2.93394064  0.43036744  1.53993089
  H  2.00617450  1.75595171  2.25680530
  H  1.47215200  0.08725332  2.46044870
  H  3.28750066  0.53936452 -0.66830756
  H  4.89483228  2.39515426 -1.20327229
  H  4.05308475  1.81731621 -2.65944607
  H  3.46401171  3.26450919 -1.80484214
