46
opt_min/./Product_5202_opt.xyz
  N -1.37165233 -1.03019087 -0.66614196
  C -0.62012694 -1.34971566  0.50912171
  N  0.34629005 -2.40903388  0.22607689
  N -1.53190436 -1.65212610  1.59352260
  C -2.47466798 -2.73706957  1.40120329
  C  0.14460359 -0.00917715  0.88594182
  C  1.05562044 -0.21694194  2.10722547
  C  2.05809576  0.87251596  2.38183406
  O  1.02179936 -1.22105718  2.77772823
  C  1.10865648  0.37788193 -0.23618481
  C  2.20141832 -0.44351765 -0.50759925
  C  3.09492955 -0.12050622 -1.51236541
  C  2.92891420  1.03779435 -2.25265769
  C  1.87289415  1.87973540 -1.95539460
  C  0.97552556  1.56014598 -0.95009523
  N -0.88204682  1.00683712  1.17009994
  C -1.10364484  1.28836449  2.58095831
  C -2.08911310  0.93824081  0.44967410
  C -2.36983568  1.78178570 -0.70219238
  O -3.50321403  1.36918037 -1.31693304
  C -3.98901284  2.15760334 -2.39003119
  O -1.74675753  2.76450732 -1.04938436
  C -3.22704918  0.46723846  1.10736106
  N -4.16671161  0.09928882  1.66749642
  H -2.05632277 -1.71326905 -0.95005012
  H -0.77444542 -0.73128218 -1.42493291
  H  0.76336793 -2.73898901  1.09018562
  H -0.11642019 -3.19616947 -0.21584656
  H -0.99830419 -1.79644577  2.44358546
  H -2.01475423 -3.65996783  1.01696022
  H -3.26585458 -2.41709093  0.72326964
  H -2.93263356 -2.95667752  2.36176862
  H  3.05587164  0.45636255  2.25372576
  H  1.97564916  1.17175933  3.42666563
  H  1.92960549  1.72899790  1.73010298
  H  2.35117496 -1.34766644  0.05802009
  H  3.92933205 -0.77674982 -1.71205921
  H  3.62400868  1.28723539 -3.03996629
  H  1.74081402  2.80056203 -2.50373144
  H  0.18389966  2.24769190 -0.71162657
  H -1.33767077  0.39993349  3.17371673
  H -1.93589143  1.98503764  2.66608526
  H -0.21899106  1.77479751  2.98887644
  H -3.34483765  3.02750234 -2.53569654
  H -3.99249712  1.54889239 -3.29589727
  H -5.00495501  2.47180705 -2.15075249
