30
opt_min/./Product_4109_opt.xyz
  O -3.98583204 -0.66787451 -0.70528218
  C -3.64178874 -0.84110796 -1.78166258
  O -3.28422231 -1.04571534 -2.84769966
  C -1.01454287 -1.94423921 -0.56340832
  C -0.26601496 -0.94176407 -1.02833977
  C  2.38223818 -2.46322543 -1.30014447
  O  2.74357577 -1.70936042 -2.08002580
  O  2.02789902 -3.23161013 -0.53113940
  C  0.02346130 -0.01871471  0.14192064
  C -0.63914480  1.24531518 -0.12725848
  N -1.18134883  2.21916087 -0.37561919
  C  1.51395753  0.19660274  0.32366175
  C  2.19758444  1.03962541 -0.54254540
  C  3.56773069  1.18479081 -0.42245218
  C  4.25876778  0.48987440  0.55588195
  C  3.57422529 -0.34598911  1.42119660
  C  2.20305230 -0.49620006  1.30750093
  N -0.62364576 -0.64214805  1.27497958
  C -1.20715972 -1.70560715  0.86840351
  C -1.99759563 -2.58865872  1.75620704
  H -1.42413959 -2.77423557 -1.10867210
  H  0.11165958 -0.75474873 -2.01513461
  H  1.65915520  1.58358639 -1.30524428
  H  4.09561296  1.84194741 -1.09676486
  H  5.32874805  0.60292199  0.64589570
  H  4.10712567 -0.88569699  2.18975595
  H  1.66099782 -1.13988532  1.98291721
  H -1.87916153 -2.27979719  2.79046014
  H -1.67859855 -3.62276628  1.63605074
  H -3.05093564 -2.52312228  1.48414720
