54
opt_min/./Product_2339_opt.xyz
  C -1.42935100 -0.52260400  4.13278200
  O -0.94476569 -0.18759268  2.84087674
  C -1.66989533 -0.57381831  1.81206387
  O -2.71859264 -1.15939787  1.90169908
  C -1.09644843 -0.12828164  0.45927915
  C  0.34145334 -0.54911217  0.02078276
  C  1.10098605 -1.49735151  0.93180370
  O  0.66077213 -2.04380446  1.90576057
  O  2.33101189 -1.68677826  0.45766746
  C  3.18757029 -2.54298573  1.20476205
  C  0.10960562 -1.21952777 -1.35669331
  C -0.54031739 -2.58530516 -1.10287762
  C -1.96967703 -2.20036441 -0.67271817
  C -1.95769037 -0.65952431 -0.70941741
  C -1.07480320 -0.44655068 -1.94083530
  C  1.04952720  0.85530872 -0.09199880
  C  2.29614147  0.96911708 -0.91044188
  C  2.20103611  1.29840663 -2.25824580
  C  3.33986620  1.39978512 -3.03526037
  C  4.58501155  1.17573767 -2.47367741
  C  4.68446349  0.86748029 -1.12786867
  C  3.54826024  0.76669715 -0.34335930
  C  1.10714477  1.32103608  1.38355021
  O  2.02083152  1.30717104  2.14752804
  O -0.13141577  1.74206170  1.65068751
  C -0.90120338  1.43971364  0.48602982
  C -2.18125813  2.28825957  0.47677305
  N -2.72634353  2.41717395 -0.74435299
  C -3.94205397  3.18174039 -0.92587999
  O -2.64813012  2.75500058  1.48561179
  O -0.00964912  1.69886570 -0.55510833
  H -1.86985849 -1.52103496  4.12059331
  H -0.57046384 -0.48482630  4.79783115
  H -2.18331536  0.20461464  4.44031438
  H  4.20040647 -2.17684918  1.05328993
  H  2.91876656 -2.51540644  2.26200425
  H  3.09715138 -3.56628794  0.83539627
  H  1.01683093 -1.24732162 -1.95845010
  H -0.02363059 -3.15569171 -0.33337000
  H -0.53991330 -3.18385034 -2.01401527
  H -2.70516876 -2.55417832 -1.39610156
  H -2.23991887 -2.60038348  0.29810809
  H -2.95885959 -0.23358139 -0.72860158
  H -0.84804770  0.58428906 -2.18626869
  H -1.48160230 -0.94572448 -2.81920910
  H  1.23117287  1.48871374 -2.68978029
  H  3.25912026  1.65518734 -4.08146127
  H  5.47601630  1.25250833 -3.07891037
  H  5.65508838  0.71106721 -0.68122665
  H  3.64308261  0.55660290  0.70815818
  H -2.23828020  2.08246939 -1.55745188
  H -4.68890892  2.83720602 -0.21033718
  H -4.30685764  3.03868333 -1.93860074
  H -3.76236611  4.24265947 -0.74167480
