36
opt_min/./Product_88_opt.xyz
  C  0.19991800 -1.78418000 -0.95146800
  C -0.20013314 -0.49803719 -0.22977810
  C -1.37774219 -0.63914649  0.79377410
  C -2.13873240 -1.96793207  0.77802663
  C -2.32264931  0.50449516  0.36586472
  C -1.67528446  1.87942710  0.59441718
  C -0.59174437  1.96405489 -0.50017800
  C -0.71581086  0.60031797 -1.19431655
  C -2.23044456  0.39882000 -1.15866622
  C -0.69621164 -0.46017095  2.16830197
  N  0.65314876 -0.04490899  1.92858943
  C  0.93133811 -0.05948851  0.69258294
  C  2.33088355  0.25942780  0.28317799
  O  3.25951654  0.25143830  1.06149179
  N  2.49305839  0.54307466 -1.03330029
  C  3.78210627  0.88011049 -1.58207479
  H  0.58090689 -2.51082738 -0.23714246
  H -0.64678578 -2.22013340 -1.47317600
  H  0.98113562 -1.60454986 -1.68677111
  H -1.49257245 -2.78555426  1.08792046
  H -2.96348466 -1.89532119  1.48620399
  H -2.55489580 -2.21065705 -0.19477803
  H -3.31754499  0.41477253  0.79598288
  H -2.42715166  2.65952564  0.46360748
  H -1.24921329  1.99187244  1.58705413
  H  0.39981200  2.14347753 -0.08621086
  H -0.80928204  2.76289079 -1.20948049
  H -0.27647675  0.56789298 -2.19140194
  H -2.76943183  1.19031531 -1.67595803
  H -2.54876886 -0.56225555 -1.55485382
  H -1.19294205  0.27050402  2.81038470
  H -0.66041638 -1.39663497  2.72891134
  H  1.69629096  0.60073392 -1.64352630
  H  4.07390769  0.15593540 -2.34646336
  H  3.76765718  1.87860968 -2.02064786
  H  4.50547414  0.84863702 -0.76959526
