53
opt_min/./Product_2165_opt.xyz
  C -1.36528209  3.06540593 -2.68082804
  N -1.15863753  2.26507974 -1.49742014
  C  0.06644112  1.95083311 -1.07334028
  O  1.09664017  2.28479729 -1.61934665
  C  0.09531776  1.19389453  0.28400535
  F -0.05085125  2.25287460  1.18287186
  C -1.03577665  0.19339194  0.64770042
  C -2.34843148  0.88901499  1.12730341
  O -2.57672646  2.06605985  0.98722510
  N -3.22263970  0.02476064  1.66940313
  C -4.51286091  0.45905257  2.15310793
  C -1.50040333 -0.73008186 -0.49542505
  O -2.53028667 -0.48811768 -1.09160462
  N -0.73135891 -1.79832275 -0.76242946
  C -1.08357137 -2.76148062 -1.77799106
  C -0.36978438 -0.57439669  1.83158095
  C -0.69144406  0.08859131  3.10148653
  N -0.89638472  0.58309515  4.10857649
  C -0.89696283 -1.92773721  1.93981109
  N -1.31908097 -2.98618434  2.04498878
  N  1.07259595 -0.50653669  1.64226376
  C  1.82866459 -1.72469990  1.79987468
  C  1.44525670  0.48223021  0.60790118
  C  2.43549304  1.47255837  1.26034984
  C  2.13776745 -0.16651504 -0.59296333
  C  1.51185056 -0.42891174 -1.80702006
  C  2.18162007 -1.06320074 -2.83991087
  C  3.49130582 -1.47578814 -2.68165708
  C  4.13205471 -1.21782133 -1.48357523
  C  3.46727590 -0.56654262 -0.46089512
  H -1.57388067  4.10371121 -2.41641551
  H -2.20412669  2.66184017 -3.24645994
  H -0.45740887  3.02649849 -3.28119133
  H -1.97130041  2.07726728 -0.92783433
  H -3.00798000 -0.95468476  1.77080010
  H -5.30429430  0.11101428  1.48567499
  H -4.68690687  0.06473004  3.15319088
  H -4.51205343  1.54667368  2.17146514
  H  0.11667815 -1.97882718 -0.25047695
  H -1.93531796 -2.36976501 -2.33079439
  H -0.24297037 -2.90794405 -2.45666094
  H -1.35223955 -3.71470191 -1.32036136
  H  1.94312565 -2.31154426  0.87773691
  H  2.82381369 -1.47896688  2.17276525
  H  1.34917055 -2.34931091  2.55275869
  H  1.92197434  2.23720800  1.83227468
  H  3.07941021  0.93415279  1.94960295
  H  3.03167627  1.95825662  0.49323766
  H  0.49238979 -0.12892764 -1.98378812
  H  1.67755088 -1.21574764 -3.78315570
  H  4.00566109 -1.98368128 -3.48330088
  H  5.15431628 -1.53334284 -1.33604018
  H  4.01761560 -0.34795335  0.43923137
