42
opt_min/./Product_594_opt.xyz
  C -4.47113100 -1.23359300  1.91907800
  N -3.73522221 -0.79735195  0.75507853
  C -2.92196507  0.28205868  0.81307152
  O -2.79276256  0.93739899  1.83265638
  C -2.21213352  0.61246367 -0.43646839
  C -2.20555458  0.07298947 -1.66656306
  C -2.98528122 -1.00635076 -2.32083059
  C -1.13400072  0.85630077 -2.40251444
  C  0.21025353  0.31290619 -1.81772921
  C  0.28557618  1.09824920 -0.49222298
  C -1.14993149  1.70563506 -0.47140663
  O -1.22709253  2.14022937 -1.82457308
  C  0.70641137  0.01352122  0.50808117
  C  0.33450865  0.27742410  1.96452410
  C  2.22429769 -0.15216459  0.40021260
  C  3.04246657  0.91068205  0.77467311
  C  4.41794020  0.80986075  0.69759372
  C  5.00627880 -0.35527274  0.23327248
  C  4.20297204 -1.41058291 -0.15290318
  C  2.82312946 -1.31021048 -0.07289709
  N -0.05834442 -1.10604509 -0.03417024
  O  0.18704021 -1.05756556 -1.46427038
  H -4.88755262 -0.36063472  2.42246316
  H -3.81725756 -1.74868812  2.62831066
  H -5.27380003 -1.90026403  1.61420881
  H -3.78147422 -1.35153644 -0.07916958
  H -2.64395567 -1.98492741 -1.97978772
  H -4.04965051 -0.90320326 -2.11046392
  H -2.84400459 -0.96373204 -3.39870732
  H -1.20648517  0.90347937 -3.48627693
  H  1.06395963  0.45270947 -2.48362020
  H  0.98427413  1.93139189 -0.54004357
  H -1.31041009  2.52358533  0.22478699
  H  0.91393781 -0.36709063  2.62154426
  H -0.72138178  0.09820357  2.12636280
  H  0.54582217  1.31117980  2.21827675
  H  2.59829388  1.82491809  1.13938443
  H  5.03300338  1.64452915  1.00004665
  H  6.08125650 -0.43405110  0.17041423
  H  4.64517861 -2.32313664 -0.52555242
  H  2.22958897 -2.14780045 -0.40945022
  H  0.27569947 -2.01523148  0.27778879
