25
opt_min/./Product_73_opt.xyz
  C -1.13324475  2.49139584 -1.13520430
  O -0.22241440  1.48770033 -0.72158681
  C -0.72363893  0.32149187 -0.26207056
  C -1.98013773 -0.09453415  0.01110388
 Cl -3.50218781  0.67932993 -0.12141336
  C -1.89719155 -1.52437492  0.50478223
  C -2.51279041 -1.76010054  1.88556618
  C -2.56556991 -2.37615425 -0.46761550
  N -3.12342855 -3.00099178 -1.24130101
  N -0.49067371 -1.83089545  0.50339479
  C  0.15833844 -0.81463399  0.07216643
  C  1.65357619 -0.88148136 -0.03500795
  N  2.25085373  0.29934699 -0.30348102
  C  3.68631228  0.37346960 -0.44599372
  O  2.26597488 -1.91329960  0.12839592
  H -1.74828387  2.83351531 -0.29962593
  H -1.77615386  2.13457172 -1.94157425
  H -0.51707608  3.31302436 -1.49735934
  H -2.26309937 -2.76703569  2.20893493
  H -2.10215444 -1.04621759  2.59503798
  H -3.59721479 -1.64671038  1.83823672
  H  1.69384803  1.11855749 -0.48406031
  H  3.98859680  1.41229509 -0.54185996
  H  4.01479638 -0.18664759 -1.32458912
  H  4.16393934 -0.07064276  0.42861846
