62
opt_min/./Product_3012_opt.xyz
  C  2.70864200  2.63593200 -2.12865100
  N  2.05799158  1.75028410 -1.18888477
  C  2.22178943  0.41457409 -1.26463612
  O  2.94641435 -0.11408952 -2.08040997
  C  1.44801125 -0.41899040 -0.22918419
  C  2.17879519 -0.52711109  1.11928416
  O  1.78714063 -1.27962039  1.98635207
  N  3.25792336  0.26155543  1.26395000
  C  4.07067385  0.24881755  2.45626972
  C  0.00023702  0.02596013 -0.05981543
  C -1.14977847 -0.60919651 -0.42697279
  C -1.60763223 -1.97350456 -0.95227059
 Br -1.77229222 -3.14637075  0.83566860
  O -2.88956883 -1.74172903 -1.34964281
  C -3.77800737 -2.76957015 -1.72628750
  C -0.89253441 -2.94968743 -1.95361832
  C  0.40459905 -3.77360316 -1.68904736
  C  1.72098858 -2.97168456 -1.49013204
  C  1.09256478 -1.79382951 -0.79285515
  C -2.27503998  0.41909579 -0.23474531
  C -3.58682402 -0.05035611  0.44794210
  C -3.42158693 -0.34077905  1.90728320
  O -4.63714244 -0.08766534 -0.13285433
  C -2.59944913  1.02835435 -1.61466673
  O -2.28452559  0.56875517 -2.67652336
  O -3.23970039  2.18811107 -1.45570848
  C -3.67789471  2.83962861 -2.64180984
  N -1.67777382  1.40788778  0.65435580
  N -0.24475912  1.30480857  0.48773029
  C  0.41968077  1.54181929  1.75333816
  O -0.14151571  0.86151929  2.71879302
  C  0.43832458  0.91203530  4.01738277
  O  1.34848332  2.29729416  1.82816293
  H  2.14695264  3.56310130 -2.20301581
  H  3.73194265  2.85862037 -1.81499530
  H  2.74998166  2.14822712 -3.10278223
  H  1.44926993  2.15284524 -0.49264856
  H  3.56397618  0.85137703  0.50796873
  H  3.61863483 -0.44760501  3.16031202
  H  5.08541621 -0.07988881  2.22613229
  H  4.10406642  1.24720907  2.89529730
  H -3.69592802 -3.63002135 -1.05504921
  H -4.76775107 -2.32493566 -1.62097029
  H -3.62988727 -3.08121875 -2.76328538
  H -1.64754962 -3.72249472 -2.12064156
  H -0.79968214 -2.38829035 -2.88956188
  H  0.50055112 -4.46716363 -2.52622704
  H  0.23537851 -4.36937247 -0.78989238
  H  2.17216796 -2.68676061 -2.43816708
  H  2.42694481 -3.54530781 -0.89461652
  H  0.45025205 -1.45122701 -1.59290152
  H  0.55589317 -2.24348636  0.04176331
  H -3.60526820  0.58655268  2.44751015
  H -2.41724405 -0.67510456  2.14343714
  H -4.15820585 -1.07661402  2.21995107
  H -4.07260209  2.10604197 -3.34551929
  H -2.84404773  3.36939558 -3.10812134
  H -4.45014216  3.54145725 -2.33774117
  H -1.98197601  2.34746634  0.40418296
  H  1.24134500  1.64932445  4.04475087
  H -0.34819717  1.17414645  4.72351584
  H  0.82567080 -0.08409157  4.23466459
