39
opt_min/./Product_3538_opt.xyz
  C -1.81305500  1.10360500 -1.58275300
  C -1.00779044  0.71414058 -0.33565839
  C -0.52619449  2.02358450  0.29384654
  C  0.17606931 -0.18872486 -0.78897619
  C  1.38441099 -0.05471917  0.07207198
  C  2.55752104  0.39149364 -0.37129781
  C  3.77105930  0.53929285  0.41589360
  C  3.72927288  0.16543831  1.86724080
  C  4.88606034  0.99705906 -0.15394397
  C -0.46020633 -1.58657101 -0.67709771
  C  0.52383376 -2.74207192 -0.57016680
  O -1.26524240 -1.53515966  0.47611285
  C -1.79674075 -0.21674850  0.65174269
  C -1.60141058  0.13220269  2.13259422
  C -3.30840232 -0.26116553  0.38488467
  H -2.11551142  0.23559583 -2.16121200
  H -1.19521381  1.73390860 -2.21953853
  H -2.70061978  1.67091342 -1.31808467
  H  0.05736760  2.57714612 -0.43870482
  H  0.09928720  1.87110766  1.16595546
  H -1.37974912  2.63463788  0.57995249
  H  0.43995387  0.02663035 -1.82619793
  H  1.25879945 -0.35846010  1.10022446
  H  2.64804421  0.68244096 -1.41122755
  H  4.69948306  0.32869266  2.32828530
  H  3.46093394 -0.88340076  1.98432691
  H  2.98863023  0.76602244  2.39409096
  H  4.92507141  1.26704188 -1.19535824
  H  5.79762869  1.11652565  0.40681581
  H -1.10013676 -1.74945297 -1.56528695
  H -0.02010811 -3.68250165 -0.56111621
  H  1.09405422 -2.66387863  0.35045089
  H  1.20479071 -2.73061010 -1.41561518
  H -0.54960114  0.11579668  2.40102412
  H -2.02172411  1.10415627  2.36702042
  H -2.10580347 -0.62481411  2.72753232
  H -3.52695675 -0.61699520 -0.61620776
  H -3.76402013 -0.95485763  1.08753905
  H -3.75187823  0.72016513  0.52701440
