39
opt_min/./Product_4308_opt.xyz
  C -0.95627885  0.93593605  0.58792317
  C -0.35047987 -0.07119553 -0.39742908
  C -0.72260831 -1.51405360 -0.03057046
  N -2.07851343 -1.68993239  0.38206871
  C -2.64602733 -3.01766028  0.39386957
  C -2.85841597 -0.62032293  0.68415857
  C -2.42047362  0.65113532  0.77855302
  C -3.41079886  1.68349640  1.10476508
  N -2.93384345  2.93595893  1.34987417
  O -4.60426943  1.44534570  1.19963866
  C  0.34586184 -1.83380586  1.06158012
  C  0.57381378 -3.24761416  1.19560393
  N  0.76777577 -4.37371100  1.25802571
  N  1.55262145 -1.12098347  0.64258353
  C  1.19602589 -0.09424111 -0.35170420
  C  1.76175714  1.27940178  0.06540178
  N  2.60725573  1.22451568  1.10698367
  C  3.19572413  2.40302973  1.69497803
  O  1.49315564  2.29347051 -0.54670057
  C  1.79948909 -0.40454778 -1.72654822
  H -0.43447251  0.87040757  1.55043007
  H -0.78321518  1.93460627  0.18733793
  H -0.70958444  0.16768618 -1.39849293
  H -0.52844004 -2.16842716 -0.89326910
  H -2.87392445 -3.33467751  1.41516976
  H -1.94010292 -3.72801128 -0.03173317
  H -3.56819232 -3.04567319 -0.19059830
  H -3.90392761 -0.83131902  0.85281009
  H -3.61036651  3.66391396  1.50099448
  H -1.98698395  3.20183497  1.15497439
  H -0.00127446 -1.43842199  2.02648574
  H  2.23640712 -1.76333309  0.25551142
  H  2.67760581  0.33978565  1.59185247
  H  3.25091573  3.17204661  0.92659667
  H  2.59145003  2.78190497  2.52394257
  H  4.19547588  2.17029680  2.05646455
  H  2.88489724 -0.44381630 -1.65455172
  H  1.53389615  0.38125350 -2.42791174
  H  1.43562640 -1.35848205 -2.10574156
