43
opt_min/./Product_1308_opt.xyz
  C -2.98685533  3.02885978 -0.66814804
  N -2.26020001  1.79052809 -0.83688018
  C -1.20570056  1.49672796 -0.05463814
  O -0.78606419  2.28797901  0.76501688
  C -0.46952333  0.18167697 -0.32258492
  C -1.18515676 -1.00902305 -1.02045506
  F -2.51673532 -0.85351187 -1.33976367
  C -0.33289684 -1.16213129 -2.33071871
  C -0.71866505  0.03605012 -3.17483754
  C -0.11060074  1.06299908 -2.59717591
  C  0.63159540  0.47593909 -1.41726205
  O  0.95117199 -0.82458825 -1.87050808
  C -1.03184837 -2.21081529 -0.05633928
  C -0.87508898 -3.48351513 -0.75231069
  N -0.77266573 -4.49571825 -1.26971257
  C -2.23397114 -2.37054726  0.76939697
  N -3.15495126 -2.53875388  1.42375706
  N  0.16034522 -1.86727435  0.67795065
  C  0.16324632 -0.43612329  0.97193546
  C -0.70159386 -0.14546204  2.21275702
  C  1.60859181 -0.00835815  1.20389652
  C  2.65011703 -0.88927019  0.93258458
  C  3.96348654 -0.51919009  1.16065455
  C  4.25977217  0.73816308  1.65549284
  C  3.23116084  1.63037297  1.90261149
  C  1.91646333  1.26239928  1.67877368
  H -2.32600225  3.75090321 -0.19223014
  H -3.30246868  3.39780679 -1.64224529
  H -3.86496520  2.88512077 -0.03387804
  H -2.66282304  1.12260563 -1.47037454
  H -0.36622363 -2.14552021 -2.79058462
  H -1.38263015 -0.00620702 -4.01418506
  H -0.12592443  2.10659929 -2.83860023
  H  1.50124793  1.00580809 -1.04595197
  H  0.32199670 -2.44615623  1.49373405
  H -0.52760802 -0.91805321  2.96154213
  H -0.45602583  0.81404931  2.65379863
  H -1.76185726 -0.14199720  1.96325608
  H  2.43249583 -1.86184034  0.52250373
  H  4.75808345 -1.21880203  0.94693544
  H  5.28512576  1.02502082  1.83745406
  H  3.45061424  2.62161104  2.27093899
  H  1.12890802  1.97947349  1.84308246
