51
opt_min/./Product_5094_opt.xyz
  C  0.12655100  1.25325400 -2.17898700
  C -0.06458773 -0.08831629 -1.44740899
  C  0.35940379 -1.14533952 -2.46945313
  C -1.54042616 -0.19884124 -0.93528815
  C -2.56675143  0.54969883 -1.79597427
  C -2.06181651 -1.63085514 -0.81903953
  C -1.41128063  0.50044190  0.44218007
  C -2.55455178  0.24962355  1.41367246
  C -3.15747725  1.50704785  1.98992832
  O -2.96628701 -0.84404931  1.70520707
  N -0.10829302  0.12997001  0.98709765
  C -0.06691206 -0.71814026  2.15568230
  C  0.82118774 -0.12372314 -0.12898415
  C  1.82446879  1.05993126 -0.20507392
  N  1.62482372  2.01259496  0.72258249
  C  2.49004833  3.15239742  0.87808938
  O  2.71984381  1.11647811 -1.02730724
  C  1.66941352 -1.37109600  0.13190860
  C  1.16310135 -2.66527108  0.06161469
  C  1.93880117 -3.76947461  0.36745237
  C  3.25198877 -3.61601634  0.76587069
  C  3.76684527 -2.33746520  0.87455444
  C  2.98432685 -1.23613992  0.57450938
  H -0.52299832  1.30574043 -3.04725876
  H  1.14739571  1.33907792 -2.53615739
  H -0.08287679  2.11037305 -1.54083806
  H -0.20220216 -1.00268978 -3.39041833
  H  0.22028547 -2.16608055 -2.13857786
  H  1.41620683 -1.00449869 -2.68347908
  H -2.38388482  1.61954099 -1.84212054
  H -2.57251968  0.15299596 -2.80848261
  H -3.55872859  0.40268823 -1.37295199
  H -1.94977600 -2.15119746 -1.76625721
  H -3.11820107 -1.61919462 -0.56340612
  H -1.56528915 -2.19367297 -0.03727512
  H -1.37768246  1.58397031  0.24088773
  H -3.80783621  1.26065863  2.82651344
  H -2.39315527  2.21466898  2.29532926
  H -3.76843375  1.97261492  1.21581674
  H  0.97176568 -0.84620408  2.45373460
  H -0.51528496 -1.70952597  2.02449464
  H -0.59956379 -0.21199105  2.96351932
  H  0.86213291  1.86402769  1.36984275
  H  3.10077640  3.22918542 -0.02098858
  H  3.15107990  3.03444820  1.74170789
  H  1.89974121  4.05969657  1.00596578
  H  0.14238025 -2.84270305 -0.22399044
  H  1.50057559 -4.75438299  0.29526129
  H  3.86123201 -4.47646683  1.00058156
  H  4.78524375 -2.18645580  1.20117991
  H  3.43252173 -0.26305032  0.68865004
