30
opt_min/./Product_50_opt.xyz
  F -2.44643000 -1.64997400 -0.49527300
  C -1.59527749 -0.64686260 -0.92730530
  C -0.41949137 -0.39125084  0.03992836
  C -0.68604957  1.03131951  0.53859284
  C -1.96576312  0.98365542  1.39304976
  C -3.09386157  0.86973157  0.34778751
  C -2.32549803  0.70853701 -0.96405568
  C -1.17045079  1.68967205 -0.75324637
  C  0.76962718 -0.50388444 -0.89819065
  C  2.18243179 -0.20819508 -0.49692035
  O  3.04597691  0.09416861 -1.28865775
  N  2.39730916 -0.27265514  0.84166678
  C  3.70636952 -0.04265793  1.40381023
  N  0.48935040 -0.83632814 -2.08631827
  C -0.91363777 -1.08377646 -2.23875665
  H -0.34452248 -1.14147964  0.83153518
  H  0.15369637  1.50279563  1.04454866
  H -2.06364882  1.87523453  2.01153147
  H -1.95421721  0.11082133  2.04648676
  H -3.76396601  0.03706090  0.55198481
  H -3.69617174  1.77943104  0.31282570
  H -2.91289077  0.85281374 -1.86859118
  H -0.42846391  1.66622359 -1.54964889
  H -1.51630599  2.71441393 -0.62227900
  H  1.67167431 -0.59181264  1.46101458
  H  4.25832381 -0.97854882  1.52653222
  H  3.61313308  0.44849020  2.37200227
  H  4.25747001  0.59960822  0.71717668
  H -1.03978315 -2.16580621 -2.36946517
  H -1.30611163 -0.59770087 -3.13158257
