55
opt_min/./Product_5861_opt.xyz
  C  2.16755200 -0.34361200  0.51679200
  O  3.13126075 -0.00292915  1.17317606
  C  0.86364753  0.41195259  0.53709618
  O  0.69533166  1.23841207  1.66202024
  C  1.49902784  2.39561346  1.80874522
  C -0.40804855 -0.48969813  0.55269882
  O -0.68312347 -1.10521593  1.77896912
  C  0.24524799 -2.05920992  2.24648855
  C -0.28842180 -1.55958664 -0.55774290
  O -1.25304069 -1.98044021 -1.14794386
  C  1.07100470 -2.08040695 -0.85028587
  C  1.07603524 -3.29025971 -1.73044204
  C  2.20249608 -1.51521222 -0.38280639
  C  3.56837374 -2.04680203 -0.68464744
  C -1.48449730  0.57759003  0.17317670
  C -1.83890058  1.60193044  1.29883124
  C -2.31245436  1.12388894  2.63498678
  O -1.84329841  2.77175115  1.00453401
  C -2.82478677  0.02198067 -0.25573067
  C -3.45426800  0.54992178 -1.37461366
  C -4.70768357  0.09374430 -1.74315688
  C -5.34792270 -0.87695393 -0.99624535
  C -4.72477538 -1.39691752  0.12537158
  C -3.47315775 -0.94518497  0.50144520
  N -0.82998241  1.33173686 -0.89430899
  C  0.58620669  1.08489289 -0.85212911
  C  1.43250296  2.30837307 -1.18085380
  O  2.72071873  1.96594377 -1.19471668
  C  3.66297598  2.99202704 -1.50272263
  O  0.99628150  3.39143027 -1.45306174
  H  1.24889517  2.77419225  2.79795371
  H  2.56076144  2.15282979  1.74477979
  H  1.23511447  3.15068741  1.06360085
  H  0.29327068 -2.93735307  1.59240925
  H  1.24580672 -1.62596927  2.33744969
  H -0.12107725 -2.35163989  3.22928971
  H  1.97151593 -3.88824743 -1.59831350
  H  0.19125331 -3.89422898 -1.53586108
  H  1.01356577 -2.97394807 -2.77327531
  H  4.30944772 -1.32673427 -0.34593147
  H  3.73727583 -2.98537615 -0.15459329
  H  3.68922147 -2.22840760 -1.75049447
  H -2.11161791  1.90541227  3.36756882
  H -1.84498210  0.19671594  2.93048858
  H -3.39076722  0.98620117  2.56295459
  H -2.94435455  1.29949587 -1.95745324
  H -5.18631278  0.50388443 -2.62163998
  H -6.32688942 -1.22911016 -1.28555892
  H -5.21555966 -2.15854694  0.71471637
  H -2.98849012 -1.36263121  1.36920783
  H -1.00262098  2.33086572 -0.74358939
  H  0.85049584  0.33477888 -1.61741408
  H  4.50240650  2.50446155 -1.99501691
  H  3.20273850  3.73610831 -2.15336587
  H  3.99543858  3.46662149 -0.57806703
