38
opt_min/./Product_1818_opt.xyz
  C  0.95228600  2.31251500 -1.33492400
  O  0.11415102  1.20185036 -0.98654519
  C  0.43588098  0.35453336  0.05813769
  C  0.97920428  1.17261884  1.27331798
  F  1.07678435  0.50859762  2.40923320
  F  2.17585337  1.72019483  1.03297063
  F  0.15687192  2.21192223  1.49999187
  C  1.40851592 -0.84632729 -0.34078711
  C  1.35851260 -1.12030263 -1.87234649
  F  2.05295127 -2.20239606 -2.20011269
  F  0.11260000 -1.32841534 -2.29292777
  F  1.84714435 -0.11020051 -2.59678698
  C  2.91612567 -0.73747934  0.03340913
  F  3.52135300  0.27496837 -0.60088255
  F  3.11386054 -0.58283076  1.33608952
  F  3.56246211 -1.84768198 -0.31071247
  O  0.89046361 -1.97236435  0.29217520
  N -0.09572823 -1.51078135  1.26397504
  C -0.72569945 -2.66198933  1.85965109
  C -0.81847885 -0.45948282  0.56191271
  C -1.82240148 -1.00824954 -0.51190099
  C -2.34554962 -0.13721761 -1.61623848
  O -2.19688225 -2.14084987 -0.38656596
  C -1.67375805  0.33780476  1.59785797
  C -2.51727328  1.44575561  1.04610543
  O -1.66931177  0.02560193  2.75225293
  H  0.85657908  3.12493240 -0.61378894
  H  0.56403581  2.63384876 -2.29892923
  H  1.99802920  2.03004097 -1.44497604
  H -1.65207385 -2.34615946  2.32732022
  H -0.92815742 -3.44616607  1.12906022
  H -0.04128422 -3.02906368  2.62351853
  H -2.46045636 -0.76926046 -2.49426943
  H -3.33984011  0.21070273 -1.34210799
  H -1.71273160  0.70770697 -1.84558661
  H -3.50818092  1.04540405  0.83601917
  H -2.10075111  1.88343356  0.14651849
  H -2.62710248  2.20486887  1.81752049
