49
opt_min/./Product_2226_opt.xyz
  F -0.16469600  0.13301400 -2.57975700
  C  0.20132919 -0.34247398 -1.34676138
  C  1.70810855 -0.11382982 -1.06597843
  C  2.48402432  0.68006240 -2.09914202
  F  2.13513383  1.98089279 -2.07692519
  F  2.34371865  0.27461985 -3.36229352
  F  3.80258057  0.64763451 -1.84348053
  C  2.20110663 -1.58806131 -0.86559389
  C  2.18284230 -2.19452680 -2.25340629
  C  0.89974064 -2.37763078 -2.53266507
  C  0.14751481 -1.90135643 -1.30533241
  O  1.06487865 -2.17107916 -0.25981451
  C  1.66732212  0.68337712  0.21740092
  C  2.93571961  1.06824271  0.91904984
  N  2.97039722  2.36011882  1.27831486
  C  4.10151228  2.94419486  1.95613264
  O  3.81673334  0.25571730  1.11404079
  N  0.51919037  0.93862886  0.66019758
  C -0.53774443  0.38292731 -0.15440253
  C -1.48206337  1.51328465 -0.54090737
  C -2.33021532  1.46221417 -1.63876376
  C -3.20595015  2.50473594 -1.89269187
  C -3.25602087  3.60215915 -1.05272012
  C -2.42669134  3.64978724  0.05359738
  C -1.55027029  2.61190460  0.31008423
  C -1.33009620 -0.60854553  0.69765260
  C -0.81320692 -1.07261110  1.89977769
  C -1.52421452 -1.97957818  2.66506559
  C -2.75881222 -2.43766122  2.24162613
  C -3.27643116 -1.97976806  1.04239214
  C -2.57022424 -1.07010150  0.27635697
  H  3.08690156 -1.68590739 -0.24465455
  H  3.05313696 -2.36177847 -2.85451609
  H  0.43600697 -2.73314112 -3.42976360
  H -0.82687818 -2.33717168 -1.11251480
  H  2.16944011  2.94207645  1.09111568
  H  3.84603866  3.20384266  2.98430397
  H  4.90146488  2.20567391  1.95700725
  H  4.43320788  3.83857754  1.42811254
  H -2.31864403  0.62386645 -2.31591835
  H -3.85368065  2.45235268 -2.75466416
  H -3.94071208  4.41201623 -1.25666110
  H -2.46230133  4.49614249  0.72411851
  H -0.91258556  2.64160665  1.17928745
  H  0.14948500 -0.72539496  2.23963944
  H -1.10641863 -2.32862498  3.59777983
  H -3.31257222 -3.14729370  2.83788249
  H -4.23796544 -2.33035774  0.69569047
  H -2.99482107 -0.72733960 -0.65526900
