52
opt_min/./Product_2065_opt.xyz
  C -1.79561406 -1.78980655 -2.32259811
  O -0.48260072 -1.44402782 -1.94597709
  C -0.24688451 -1.21952273 -0.57446304
  C  1.29497025 -1.12772240 -0.34231643
 Cl  2.15957465 -0.93520405 -1.88104684
  C  1.60787507 -2.56948188  0.19373535
  C  1.21463946 -2.60923409  1.65619893
  C -0.11121453 -2.57295846  1.63621906
  C -0.50840129 -2.58155863  0.17415537
  O  0.56837810 -3.32553161 -0.39526816
  C  1.50143969  0.06707607  0.64504629
  C  2.16385456 -0.30066964  1.88955580
  N  2.73846907 -0.35674008  2.87934793
  C  2.48573694  1.13824987  0.15167766
  C  3.80171460  0.77658974 -0.11715788
  C  4.71316958  1.73065681 -0.52893054
  C  4.32589895  3.05440227 -0.65482555
  C  3.02976892  3.42224343 -0.34332111
  C  2.11387903  2.46981903  0.06992593
  N  0.17505769  0.61397990  0.89795648
  C -0.23763323  0.88438923  2.24900044
  C -0.77645062  0.18094675 -0.12660678
  C -0.56437493  1.11853545 -1.33857190
  C -2.22334112  0.25777207  0.34220074
  C -3.04984721  1.31209367 -0.04823016
  C -4.36314272  1.39860718  0.37808102
  C -4.89730985  0.43757563  1.21689393
  C -4.09109863 -0.60726352  1.62633812
  C -2.77737392 -0.68898430  1.19812699
  H -2.54834069 -1.23582354 -1.75427340
  H -1.87898988 -1.53127440 -3.37839064
  H -1.97244724 -2.86482961 -2.21428457
  H  2.58770850 -2.94998207 -0.07947432
  H  1.88706655 -2.71288239  2.48133532
  H -0.78434601 -2.60861872  2.47060974
  H -1.46216119 -3.04220055 -0.06502082
  H  4.11356227 -0.25028629  0.00152244
  H  5.72999789  1.43985868 -0.74507771
  H  5.03845631  3.79819297 -0.97896792
  H  2.72662478  4.45614137 -0.41756914
  H  1.11073085  2.75937876  0.33637759
  H -0.45405347 -0.01580791  2.84240951
  H  0.55401217  1.43978929  2.75259350
  H -1.13253834  1.50463943  2.22413763
  H -1.29327489  0.92766402 -2.12021810
  H -0.63763305  2.15333627 -1.01865064
  H  0.42711764  0.96984049 -1.75321428
  H -2.68447348  2.09231298 -0.69373471
  H -4.97097803  2.22893108  0.05013585
  H -5.92182171  0.50586834  1.54997880
  H -4.48006009 -1.36815836  2.28677431
  H -2.18649818 -1.51212860  1.54617736
