57
opt_min/./Product_1801_opt.xyz
  C -0.16602600  3.53111700  2.36208100
  N -0.17601668  2.35395048  1.52764898
  C -0.92728956  2.27868543  0.41576949
  O -1.70180386  3.16214315  0.09110836
  C -0.79347483  0.97487832 -0.38538460
  C  0.62916821  0.74751627 -1.00578762
  C  1.64544659  1.87803917 -0.79952909
  C  0.32076931  0.71961031 -2.52560244
  C -0.45728606 -0.52570081 -2.94910326
  C -1.84359795 -0.30836741 -2.31791559
  C -1.70013686  1.05446908 -1.63806888
  C -0.78330060  1.77449059 -2.62484869
  C  1.12030052 -0.59663467 -0.36214623
  C  1.88163516 -1.46539845 -1.35329182
  C  1.53768727 -2.92507643 -1.47091129
  O  2.82335896 -0.99982874 -1.96615745
  C  2.07454190 -0.20439409  0.81591695
  O  1.60058665  0.13843489  1.88926070
  N  3.39059669 -0.26959553  0.59246121
  C  4.36011001  0.11299082  1.59098317
  N -0.07467909 -1.24381734  0.15869357
  C  0.11503033 -2.24525967  1.19620888
  C -1.03874102 -0.22756659  0.54201370
  C -2.47443524 -0.76555850  0.56342234
  N -3.38737069  0.19370342  0.81682193
  C -4.79890778 -0.09313893  0.90487245
  O -2.75971751 -1.94108410  0.47557608
  H -0.09848781  3.23587454  3.40784605
  H -1.09008341  4.08187730  2.18951435
  H  0.67746542  4.18289162  2.11778209
  H  0.48130503  1.61679632  1.75867596
  H  1.91254516  2.04787041  0.23853917
  H  1.25141115  2.81096782 -1.19348506
  H  2.55394748  1.63502552 -1.34942804
  H  1.21173681  0.89093895 -3.12784190
  H -0.51335593 -0.56572292 -4.03804063
  H  0.00356039 -1.44368589 -2.60759220
  H -2.10241907 -1.11100678 -1.63696180
  H -2.62140037 -0.25033493 -3.08024443
  H -2.64711440  1.54955848 -1.43481122
  H -0.50500573  2.77232862 -2.29836152
  H -1.20989774  1.83754272 -3.62432642
  H  0.49319685 -3.12115872 -1.25696142
  H  1.80664104 -3.27278805 -2.46692912
  H  2.15025229 -3.47692042 -0.75721938
  H  3.72215647 -0.44380072 -0.34689325
  H  5.18150981 -0.60195852  1.60090095
  H  4.75656703  1.11105757  1.38775242
  H  3.86425206  0.11888412  2.56064811
  H  0.03319142 -1.81033327  2.20023185
  H  1.09544735 -2.70784665  1.11754953
  H -0.65716572 -3.00693493  1.09233639
  H -0.86965858  0.06873224  1.59463291
  H -3.10753922  1.16105401  0.84905202
  H -5.15737649  0.03555748  1.92888756
  H -4.94436709 -1.13031564  0.60631395
  H -5.36318137  0.56359845  0.24295990
