41
opt_min/./Product_1950_opt.xyz
  N -4.85932015 -4.21280395  1.17731924
  C -3.81771966 -3.73620667  1.11416304
  C -2.55115067 -3.15224077  1.08032500
  C -1.34835740 -3.66694617  0.77365146
 Br -0.88318999 -5.36332937  0.17986900
  C -0.36670237 -2.51753167  0.87848771
  C -0.63568409 -1.67227692 -0.40194853
  C -1.99450873 -1.05174575 -0.03778497
  C -2.24861935 -1.68343725  1.36726524
  O -0.94560010 -1.74052043  1.90663497
  C -1.64798241  0.40690485  0.09257498
  C -2.67422239  1.39049167  0.52842686
  O -2.25820044  2.64083717  0.38394994
  C -3.14376940  3.68088889  0.78264840
  O -3.75417551  1.05789174  0.95375119
  N -0.44255005  0.71129558 -0.14484242
  C  0.30156942 -0.44152191 -0.56748539
  C  0.67990809 -0.23054920 -2.05506824
  C  1.13890294  1.15481408 -2.37169318
  O  0.61075320 -1.12992702 -2.84763969
  C  1.63199260 -0.56809806  0.14475810
  C  2.52318560 -1.56345981 -0.23550010
  C  3.73556186 -1.69515500  0.41767828
  C  4.06499501 -0.83173949  1.44953226
  C  3.17916730  0.16354485  1.82553690
  C  1.96505217  0.29897888  1.17606126
  H  0.66917340 -2.76470926  1.08844615
  H -0.61523609 -2.28293220 -1.30456014
  H -2.82624380 -1.23019822 -0.71759899
  H -2.94822620 -1.15017488  2.00277924
  H -2.55913716  4.40772900  1.34430169
  H -3.56224748  4.15177893 -0.10815361
  H -3.95000577  3.27635653  1.39713722
  H  1.77594035  1.53753144 -1.58019977
  H  0.26001018  1.79688904 -2.42556749
  H  1.65048732  1.16988081 -3.33060901
  H  2.26936000 -2.23326087 -1.04461102
  H  4.42281271 -2.47245682  0.12021363
  H  5.01162412 -0.93510791  1.95843635
  H  3.43236873  0.83773301  2.63002300
  H  1.26598079  1.06919665  1.46248170
