53
opt_min/./Product_1884_opt.xyz
  C -2.60175600 -0.24034300  2.01110000
  O -2.85156891 -0.77535758  0.73722422
  C -1.72668005 -1.21050170 -0.04019716
  O -2.19634348 -1.54679256 -1.31703994
  C -3.36358008 -2.34243947 -1.39384006
  C -0.84583397 -0.00641612 -0.26503669
  C  0.50001871  0.27353778 -0.26301136
  N  0.60380825  1.64295204 -0.38664112
  C  1.68551937  2.55241185 -0.24792919
  O  1.71404418  3.58694095 -0.84152450
  O  2.54964925  2.15677704  0.67479930
  C  3.61540487  3.04557591  0.98662977
  N -0.58204981  2.22077071 -0.52755594
  C -1.47496240  1.26104399 -0.47593961
  C -2.89676802  1.60897602 -0.72590117
  O -3.12191527  2.86290045 -0.31556061
  C -4.40098051  3.41786613 -0.58244128
  O -3.71371949  0.91968828 -1.27277227
  C  1.80982447 -0.49094323 -0.32786955
  O  2.52035733  0.35704302 -1.24417801
  C  3.81414882  0.07691822 -1.73180830
  O  2.28914869 -0.46213724  0.99899136
  C  3.56049688 -0.97431351  1.33839649
  C  1.78529316 -1.90621280 -0.92365916
  C  1.25201427 -3.08773082 -0.11903452
  C -0.23906634 -3.38458265 -0.05326814
  C -1.15481097 -2.43366598  0.70136297
  H -1.75235676  0.44891656  2.02012943
  H -3.50581444  0.30364576  2.28231354
  H -2.42724124 -1.02897895  2.75335552
  H -3.18934461 -3.36185131 -1.03274839
  H -3.61318073 -2.36773395 -2.45216921
  H -4.17963239 -1.88192879 -0.83787481
  H  3.54740366  3.94370607  0.37052754
  H  4.55941441  2.53342275  0.79940958
  H  3.53868672  3.30509595  2.04259934
  H -4.29033004  4.20779644 -1.32647236
  H -5.07409988  2.64403351 -0.95764110
  H -4.78535666  3.83756943  0.34699643
  H  3.88661192 -0.88885841 -2.23843500
  H  4.57978024  0.13610510 -0.95404297
  H  3.99343523  0.86364980 -2.46413886
  H  3.78114974 -1.93248575  0.86298654
  H  3.52607156 -1.11302205  2.41851668
  H  4.35621146 -0.26139597  1.10442125
  H  2.84436476 -2.14293633 -1.06620198
  H  1.32890415 -1.85366035 -1.91296660
  H  1.65731693 -3.04973901  0.89449031
  H  1.68492767 -3.96913077 -0.60443209
  H -0.63336486 -3.55354286 -1.05650448
  H -0.30022382 -4.33687099  0.48407943
  H -0.70352744 -2.12277100  1.64423720
  H -2.05610292 -3.00769327  0.94240245
