39
opt_min/./Product_4183_opt.xyz
  C -1.84888104 -1.51732801 -1.62286995
  C -2.06499511 -1.10776082 -0.19537590
  C -3.24334684 -1.76599138  0.45662187
  C -1.29209778 -0.26894536  0.48558629
  C -0.08881125  0.47368074 -0.00389456
  C -0.32365287  2.01184836 -0.05080959
  C -0.09442625  2.57517883 -1.42880337
  C -1.24089389  2.37403196 -2.38334944
  C  1.02418645  3.18427386 -1.78367301
  C  0.66702532  2.47494394  1.00734561
  C  0.78621683  3.80346527  1.41092034
  N  0.85068962  4.90901766  1.72119782
  N  1.36209851  1.50745917  1.50322580
  N  1.01971728  0.35607718  0.96200178
  C  1.64544288 -0.82159170  1.31949519
  C  2.62862963 -0.79677911  2.31306068
  C  3.26501718 -1.96489228  2.67838497
  C  2.93928774 -3.16465391  2.06768735
  C  1.96960036 -3.19127621  1.07986919
  C  1.32255412 -2.03036127  0.70120317
  H -1.44008042 -2.52630360 -1.66509058
  H -2.79783005 -1.52749236 -2.15410192
  H -1.17389146 -0.84838309 -2.14866464
  H -3.36000532 -1.44430578  1.48750247
  H -3.11922493 -2.84774198  0.44131509
  H -4.15649002 -1.53452574 -0.08933979
  H -1.54044279 -0.04435735  1.51495379
  H  0.25391643  0.10622090 -0.97593978
  H -1.34507914  2.25890021  0.25804583
  H -1.95961012  1.66237892 -1.98442006
  H -1.75550225  3.31801570 -2.55133326
  H -0.88309850  2.01317978 -3.34444202
  H  1.15522224  3.56412727 -2.78219063
  H  1.84629422  3.34325105 -1.10801612
  H  2.87592325  0.14129535  2.78191451
  H  4.02279571 -1.94092930  3.44755354
  H  3.43786380 -4.07797263  2.35772585
  H  1.71352600 -4.12243715  0.59836946
  H  0.56978601 -2.06284007 -0.06853322
