50
opt_min/./Product_2337_opt.xyz
  C  1.53251500 -0.63966500 -1.98963900
  C  0.67529739 -0.89612856 -0.75151533
  C -0.87776262 -0.82807244 -0.91723754
  C -1.38143999 -0.14090729 -2.17479321
  F -1.01560787  1.15277282 -2.23493286
  F -0.92329074 -0.69572331 -3.30948691
  F -2.70844227 -0.17671929 -2.29657123
  C -1.26689051 -2.34442654 -0.84804344
  C -0.61185454 -3.09101584 -1.98756767
  C  0.66651210 -3.18744851 -1.65257431
  C  0.78260988 -2.43152304 -0.34238609
  O -0.46570737 -2.71443163  0.26184408
  C -1.34952633 -0.10893735  0.38748664
  C -2.02567482 -1.07925268  1.41692316
  O -3.00348963 -1.73098834  1.17466133
  O -1.42939424 -0.97507366  2.57713674
  C -1.89267865 -1.79922245  3.63805888
  C -2.41821475  0.98461798  0.15825955
  O -3.58601186  0.76188361  0.01332318
  O -1.86560749  2.18903456  0.20151561
  C -2.72490951  3.31449254  0.04534323
  O -0.22838330  0.46991561  0.99365628
  C  0.99492757  0.10022521  0.40445984
  C  1.88936562 -0.58851535  1.50592340
  N  3.14302631 -0.84394185  1.08704053
  C  4.12630950 -1.43345535  1.96643134
  O  1.44823933 -0.88294173  2.58671777
  C  1.78220019  1.37262365  0.05311261
  C  1.23105878  2.66226638  0.56567573
  O  2.84057993  1.31426937 -0.53458528
  H  1.55732352  0.41368694 -2.25567732
  H  1.17518281 -1.18964245 -2.85303427
  H  2.54977859 -0.96530394 -1.78598780
  H -2.32330719 -2.52811974 -0.67932858
  H -1.13097696 -3.44801785 -2.85307923
  H  1.48470178 -3.63650547 -2.17846981
  H  1.60139028 -2.68839345  0.31898304
  H -1.20463009 -2.63831790  3.74516322
  H -1.88408663 -1.19121117  4.54023450
  H -2.89744405 -2.16574497  3.41935733
  H -2.38271234  3.87785355 -0.82224872
  H -3.75286779  2.98003662 -0.10194640
  H -2.64883993  3.92524147  0.94456179
  H  3.48023725 -0.39666270  0.24412081
  H  4.69574623 -2.19071647  1.42810108
  H  3.59954781 -1.89303524  2.80130192
  H  4.81255309 -0.67775820  2.35466609
  H  0.49113253  2.50429970  1.33994746
  H  2.05192982  3.28315257  0.91792966
  H  0.76028406  3.17626693 -0.27237998
