70
opt_min/./Product_3075_opt.xyz
  C  5.15944395 -1.54228906  1.71250810
  O  4.14409100 -1.54989297  0.71287986
  C  2.91691557 -1.25156764  1.09885386
  O  2.58789850 -1.05255008  2.23900179
  C  1.88389284 -1.28568157 -0.03745018
  C  2.44032709 -1.27912323 -1.46486610
  O  3.57003413 -1.44726437 -1.82155374
  O  1.40799152 -1.11295484 -2.31181511
  C  1.69089404 -1.16686428 -3.70458968
  C  1.04955722  0.01548233  0.15436761
  C -0.15262492  0.39981162  0.64556435
  C -1.28763768 -0.47416867  1.19887089
  C -2.42275336 -0.70943830  0.22501481
  C -2.18682829 -0.60979437 -1.14222651
  C -3.19730191 -0.86354313 -2.05125699
  C -4.45457133 -1.23487036 -1.60930536
  C -4.68292889 -1.38861865 -0.25323316
  C -3.67225711 -1.13342433  0.65763568
  C -1.78500878  0.01335991  2.56434151
  F -0.84123643  0.64238291  3.27899181
  F -2.18662760 -1.01548798  3.33316683
  F -2.83427896  0.85394134  2.50656589
  C -0.44999487 -1.74356141  1.32287437
  C -0.58935206 -3.21886098  1.59635602
  C  0.85058864 -3.62246084  1.17502182
  C  1.43905019 -2.84016797 -0.03667401
  C -0.16934516  1.92414470  0.77743078
  C -1.47472109  2.66735463  0.76430247
  C -1.70189610  3.60236052  1.76952511
  C -2.86716723  4.34652118  1.78977363
  C -3.82819010  4.16557447  0.81357030
  C -3.62263635  3.22227310 -0.17570618
  C -2.45409740  2.48521756 -0.20513175
  N  0.82074240  2.37995271 -0.19930040
  C  0.31197533  2.58585593 -1.53751355
  C  1.84907188  1.33972969 -0.08140648
  C  2.89600140  1.44234875 -1.19442624
  C  2.60203422  1.62577977  1.14215512
  N  3.25751931  1.88153079  2.04211168
  H  5.34725383 -2.56562412  2.04246428
  H  6.05246508 -1.12965981  1.24827497
  H  4.84465505 -0.92754474  2.55727903
  H  2.74332578 -0.93820593 -3.88421831
  H  1.47209918 -2.16907663 -4.07703444
  H  1.04463891 -0.43976648 -4.19439556
  H -1.19347612 -0.37037084 -1.49799722
  H -3.00051737 -0.76226263 -3.10901877
  H -5.24722405 -1.41959751 -2.31823103
  H -5.64957539 -1.71308666  0.10199312
  H -3.87119390 -1.27248425  1.70781166
  H -0.18230143 -1.77937487  0.27944796
  H  0.39414726 -1.45108464  1.95170812
  H -1.34476381 -3.70658011  0.98020817
  H -0.77166060 -3.46038064  2.64149161
  H  0.88067736 -4.67276968  0.87525896
  H  1.50759434 -3.50539155  2.03722923
  H  0.77804693 -3.00925957 -0.89218591
  H  2.38913436 -3.33790789 -0.26503072
  H  0.30816691  2.13366574  1.75382465
  H -0.96426628  3.74076248  2.54506392
  H -3.02817199  5.06583925  2.57976442
  H -4.72548438  4.76759160  0.81271306
  H -4.38464579  3.04372807 -0.92179642
  H -2.32238447  1.74815104 -0.97966037
  H -0.14994881  1.69159675 -1.97785297
  H  1.11563279  2.92195670 -2.18660202
  H -0.43103372  3.38003292 -1.49053221
  H  3.13661602  2.49740750 -1.32116093
  H  2.53337326  1.05341386 -2.13912519
  H  3.80982469  0.92250314 -0.91327119
