46
opt_min/./Product_5475_opt.xyz
  C  1.03675300 -2.25275900 -0.85584800
  O  1.19699375 -2.50738149 -2.02735335
  C  0.52669187 -3.27528291  0.07731683
  C  0.04727631 -3.00839714  1.29400803
  C  0.02256159 -1.64849132  1.85544394
  O -0.17769289 -1.42890501  3.02620364
  C  0.37039392 -0.54181980  0.87941676
  C  1.40691507 -0.93804934 -0.18758453
  C  1.32350502  0.31779518 -1.10277279
  C  2.08264965  1.47387959 -0.38847024
  N  3.42098899  1.27896535 -0.31485649
  C  4.27606964  2.26430555  0.31602165
  O  1.53456401  2.43705845  0.08766682
  C  1.88469457  0.17651664 -2.51815472
  N -0.08687771  0.66833914 -1.09714320
  C -0.77788920 -0.00997470 -0.01155244
  C -1.66621863 -1.17613977 -0.46489554
  O -2.23394424 -1.90449780  0.31005997
  O -1.78214183 -1.24357557 -1.78937196
  C -2.65580572 -2.23887119 -2.31343894
  C -1.73923902  0.96054416  0.66218318
  C -1.67882934  1.29259058  2.00737695
  C -2.57358484  2.20718178  2.53801379
  C -3.53753522  2.79332429  1.73798776
  C -3.60876482  2.45663249  0.39714294
  C -2.71675158  1.54481323 -0.13505507
  H  0.50706732 -4.28357768 -0.31566641
  H -0.33633709 -3.78838880  1.93688028
  H  0.75115758  0.31356056  1.44359568
  H  2.39774863 -1.06814957  0.26168450
  H  3.84959889  0.48957409 -0.76465641
  H  4.06649894  2.31360337  1.38596106
  H  5.31578931  1.99494049  0.15864138
  H  4.07926512  3.25077000 -0.10549048
  H  2.05611187  1.16208791 -2.94509920
  H  1.18383327 -0.35894711 -3.15233457
  H  2.81891881 -0.37750061 -2.51368799
  H -0.53569814  0.45862037 -1.97945751
  H -2.05956879 -3.07271709 -2.68616437
  H -3.20943218 -1.78077840 -3.13177770
  H -3.33533465 -2.58688467 -1.53501803
  H -0.96003337  0.82974097  2.66390044
  H -2.51071727  2.45600017  3.58625643
  H -4.23184873  3.50516957  2.15886715
  H -4.36227650  2.90653107 -0.23236667
  H -2.77412485  1.29861652 -1.18481130
