59
opt_min/./Product_2350_opt.xyz
  C  2.31869100  2.00681600 -2.04572400
  C  1.70178204  0.73674276 -1.58850462
  C  2.16439189 -0.28106821 -0.84720344
  C  3.44902135 -0.49240227 -0.20232354
  C  3.97721652 -1.77662046 -0.06257198
  C  5.20459583 -1.97234320  0.54138872
  C  5.92565780 -0.89303510  1.02406214
  C  5.40798089  0.38555930  0.90096356
  C  4.18260117  0.58644436  0.29484053
  C  0.99641097 -1.25749385 -0.76694333
  C -0.02431648 -0.66896165  0.24126252
  C -0.43183159  0.62953777 -0.47784696
  C  0.25178893  0.37264087 -1.87126140
  O  0.31229360 -1.03493957 -1.98701221
  C -1.96945037  0.73041667 -0.39877699
  C -2.41003860  1.86508779  0.56005242
  C -2.56837662  1.08649613 -1.76211580
  O -3.39032572  0.47558653 -2.38576360
  O -2.06575972  2.26665345 -2.17644594
  C -2.56890637  2.78017552 -3.40340539
  N -2.38775038 -0.52729012  0.15656608
  C -3.77380998 -0.92480883  0.13992371
  C -1.34170973 -1.49163452  0.31413948
  C -1.42367108 -2.12734809  1.73274315
  N -0.52723897 -3.10150838  1.95511832
  C -0.46855745 -3.78395041  3.22805605
  O -2.18500334 -1.71031100  2.57753135
  C -1.36573164 -2.58525496 -0.76788152
  O -0.73816684 -3.62109583 -0.69767892
  O -2.17164281 -2.27852296 -1.76221588
  C -2.21312996 -3.18165521 -2.85571086
  H  2.13507780  2.80530849 -1.32508253
  H  1.88719050  2.31012597 -2.99691515
  H  3.39417668  1.88858289 -2.15721081
  H  3.43236315 -2.62325325 -0.45172086
  H  5.60013669 -2.97330128  0.63352593
  H  6.88436121 -1.04822714  1.49604762
  H  5.96267549  1.23033825  1.28281447
  H  3.77613714  1.58296897  0.22681166
  H  1.23733932 -2.30639519 -0.62985637
  H  0.39198220 -0.50692907  1.23467942
  H  0.02365038  1.51917840 -0.04569887
  H -0.22308483  0.81364219 -2.73877804
  H -1.77680814  2.74045228  0.45329268
  H -3.43626195  2.15883898  0.35582654
  H -2.35182999  1.48755120  1.57736379
  H -3.48470806  3.34528139 -3.22031161
  H -1.79979459  3.43467993 -3.80698640
  H -2.78578212  1.96261907 -4.09351933
  H -4.37360833 -0.11428673  0.55394677
  H -4.14231272 -1.16133485 -0.86162200
  H -3.88802966 -1.79155824  0.78587518
  H  0.01950305 -3.46447159  1.18845035
  H -0.52514503 -3.04819480  4.03055695
  H -1.30586769 -4.47703321  3.34391763
  H  0.46523380 -4.33489141  3.29955565
  H -2.40777334 -4.19611051 -2.50196033
  H -1.25584999 -3.15914791 -3.37974926
  H -3.01264198 -2.83159876 -3.50263987
