39
opt_min/./Product_696_opt.xyz
  C  1.00407900  3.74704000  0.79476000
  C  0.13820073  2.72678405  0.15509686
  C -1.18264423  2.57418252  0.13277958
  C -1.42897630  1.27292505 -0.60119294
  C -1.03411388  0.17202154  0.43491296
  C  0.49931881  0.32638002  0.42185770
  C  0.67322132  1.50097508 -0.57886671
  O -0.34799055  1.24119962 -1.51672171
  C  0.91856091 -1.05693913 -0.17338518
  C  2.34944270 -1.14261874 -0.70429441
  N  3.25438113 -1.21567111  0.29107197
  C  4.66574848 -1.37398809  0.02460279
  O  2.61354181 -1.07340205 -1.88035573
  N -0.12769298 -1.45639473 -1.06307827
  C -1.21015861 -1.28107643 -0.11147407
  C -2.60923155 -1.63426184 -0.59773392
  O -2.91797559 -1.58289515 -1.76675464
  N -3.46480082 -1.90598413  0.40964917
  C -4.81689335 -2.33500409  0.12510298
  C -0.61545729 -2.10360835  1.03762342
  O -1.18383878 -2.67081375  1.92748643
  O  0.71030413 -1.97767027  0.93437372
  H  1.27338000  3.42971950  1.80382065
  H  0.47986110  4.69716405  0.86610545
  H  1.92228260  3.87903794  0.22586388
  H -1.95037126  3.17265405  0.58115922
  H -2.37738722  1.12591287 -1.10679018
  H -1.53141960  0.32033562  1.39237980
  H  0.97166498  0.50114987  1.38682048
  H  1.64554969  1.57653709 -1.05639978
  H  2.93052480 -1.42828915  1.22291379
  H  4.83217174 -1.13061118 -1.02362099
  H  4.99009404 -2.40032371  0.20814100
  H  5.24030713 -0.69879877  0.65915824
  H -0.23180666 -0.92247580 -1.91846496
  H -3.07992536 -2.17108903  1.30911117
  H -5.16763640 -1.79441749 -0.75402074
  H -5.45232887 -2.10828170  0.97855531
  H -4.86143112 -3.40635998 -0.08866128
