42
opt_min/./Product_4558_opt.xyz
  C  5.78958200 -0.74948299 -0.14970694
  C  5.33078558  0.67332277 -0.21224399
  C  6.42840125  1.68039699 -0.04563098
  C  4.06288199  1.06735493 -0.38640356
  C  2.91600581  0.21435655 -0.56484063
  C  1.67438559  0.69219335 -0.68089696
  C  0.44496450 -0.16028273 -0.86947940
  C  0.51987135 -0.98782301 -2.15991211
  C -0.86290472  0.64071657 -0.78279736
  C -1.71803631 -0.11460816  0.27320352
  C -2.28995073  0.86345613  1.34206232
  N -2.97356998  1.87743239  0.78178303
  C -3.61137757  2.88172817  1.60586836
  O -2.12251389  0.71876541  2.52677736
  C -2.96931594 -0.76095031 -0.31277318
  C -3.31438926 -2.10215294  0.24441371
  O -3.63028774 -0.16480819 -1.12927628
  N -0.87192723 -1.09041929  0.87620441
  C  0.25755791 -1.12768802  0.30455224
  C  1.24352509 -2.07482154  0.66516480
  N  2.03432926 -2.87117461  0.89922739
  H  4.97176692 -1.45630497 -0.20905025
  H  6.48701643 -0.95017776 -0.96627819
  H  6.32372723 -0.92508972  0.78462041
  H  6.05775711  2.69779567 -0.13726011
  H  6.89612573  1.56573162  0.93470511
  H  7.20595394  1.52145200 -0.79477211
  H  3.85069931  2.13210200 -0.40101977
  H  3.08498427 -0.84867660 -0.60658985
  H  1.50998194  1.76305224 -0.63549806
  H  0.54446108 -0.32500891 -3.02423062
  H  1.41948745 -1.59836939 -2.17319994
  H -0.34785692 -1.64410390 -2.25529380
  H -0.66770189  1.65943375 -0.43768441
  H -1.39403503  0.68939715 -1.73399377
  H -3.16448073  1.88258266 -0.21229247
  H -2.91005103  3.21756689  2.37135228
  H -4.48842422  2.47074314  2.11419796
  H -3.91097850  3.72126372  0.98615819
  H -4.26282284 -2.44727829 -0.15899084
  H -2.52308755 -2.81365120  0.01324664
  H -3.36054362 -2.02385028  1.33133292
