60
opt_min/./Product_5874_opt.xyz
  C -0.14316700 -1.86386000 -1.11495700
  C -0.55373565 -1.44058511  0.30248572
  C -0.74960853 -2.67493014  1.17696059
  C  0.45408622 -0.44152010  0.89947671
  C  1.92087591 -0.70597193  0.92946721
  C  2.56985523 -1.85599651  0.76203730
  C  4.01404674 -2.02108390  0.86340842
  C  4.85681250 -0.82842991  1.20435324
  C  4.56265609 -3.21479930  0.64326403
  C  0.08556926  0.87561419  0.17889080
  C  0.46670907  2.11576455  1.03111007
  N  0.32786218  3.27746504  0.37067134
  C  0.58571291  4.54549601  1.01644436
  O  0.80394506  2.03808172  2.18970949
  C  0.71011602  1.04658607 -1.20116238
  O  0.09002646  1.40558317 -2.17514765
  O  2.03076108  0.86378597 -1.21663824
  C  2.67240392  1.06127314 -2.46793819
  N -1.35820172  0.83111357  0.12523469
  C -1.84684436 -0.54136897  0.24905158
  C -2.73920745 -0.83804869 -0.95266409
  O -3.15331261  0.02566762 -1.68142377
  O -3.01400513 -2.13311545 -1.10447805
  C -3.84280621 -2.49827529 -2.20362909
  C -2.68406167 -0.64068606  1.52335341
  C -2.45416223  0.26234144  2.55454354
  C -3.17972514  0.19041883  3.73062832
  C -4.15556867 -0.77635352  3.89588277
  C -4.40197411 -1.66854922  2.86842523
  C -3.67654353 -1.59868403  1.69196312
  H -0.62222236 -2.80371986 -1.38150791
  H -0.43077522 -1.12117286 -1.86023207
  H  0.93336290 -1.99793475 -1.17401551
  H  0.10032248 -3.34692627  1.09186341
  H -0.86140207 -2.40080287  2.22357540
  H -1.64135548 -3.21077925  0.85928132
  H  0.16030826 -0.28076819  1.94912774
  H  2.48166812  0.18008022  1.18852206
  H  2.03690510 -2.76966454  0.54119811
  H  4.57270602 -0.42900822  2.17737078
  H  5.90938470 -1.10142971  1.23240428
  H  4.71632795 -0.04578046  0.46175544
  H  3.96467186 -4.07677390  0.39669625
  H  5.62483490 -3.37679338  0.71348717
  H  0.07111468  3.26710866 -0.60334703
  H  1.53992551  4.49706984  1.54324376
  H  0.61503846  5.33362630  0.27019395
  H -0.19521256  4.76623919  1.74857063
  H  2.30859072  0.33298011 -3.19528961
  H  2.47440928  2.06583101 -2.84848943
  H  3.73523230  0.92238790 -2.28676324
  H -1.75748156  1.27323124 -0.69930380
  H -3.78118424 -1.73758037 -2.98455624
  H -4.87783915 -2.59029098 -1.86763414
  H -3.48305327 -3.45830449 -2.57110576
  H -1.71087901  1.03529566  2.43928971
  H -2.97658438  0.89940134  4.52031187
  H -4.72144291 -0.83064915  4.81395337
  H -5.16652413 -2.42408614  2.97841122
  H -3.88982744 -2.30886841  0.90921819
