41
opt_min/./Product_1019_opt.xyz
  F  1.33606800  1.78875200  0.63305500
  C  0.47076104  1.05321397 -0.14480094
  C -0.45452537  0.14085014  0.72353479
 Cl -0.04904639  0.32989291  2.46558662
  C -1.84472284  0.67522988  0.36753357
  C -2.00522590  2.09336905  0.94438296
  C -1.08844193  2.96085501  0.06081856
  C -0.50160060  1.94345281 -0.92367313
  C -1.67682485  0.98652368 -1.12476074
  C  0.00608254 -1.31255349  0.35240071
  C -0.75966840 -2.04633974 -0.77677670
  C -2.22407203 -2.37775351 -0.61992693
  O -0.16248986 -2.40339453 -1.75567096
  C  0.08271141 -2.24075703  1.59327503
  C -1.18661043 -2.55539746  2.33770378
  O  1.14399847 -2.68376480  1.93234767
  N  1.36866393 -1.13839595 -0.13505992
  C  1.31777522  0.04319496 -0.96202345
  C  2.66492060  0.65206370 -1.31313747
  O  3.63606620  0.20845296 -0.53166149
  C  4.93748590  0.72830288 -0.77536954
  O  2.79982051  1.45389749 -2.19831839
  H -2.66618909  0.02526204  0.65249473
  H -3.04708886  2.39910450  0.84879797
  H -1.73645453  2.13975801  1.99680833
  H -0.30791602  3.45991612  0.63154587
  H -1.65411050  3.72271887 -0.47320478
  H -0.04512052  2.37240796 -1.81227312
  H -1.41876274  0.12081055 -1.73042262
  H -2.54856910  1.47636603 -1.55014699
  H -2.76536906 -1.95870412 -1.46631476
  H -2.32465001 -3.45972427 -0.69704715
  H -2.67507144 -2.03625475  0.29927466
  H -0.92158568 -2.84928469  3.35092470
  H -1.66341856 -3.40817382  1.85892307
  H -1.87295002 -1.71677469  2.37073476
  H  1.99283211 -0.97622204  0.65312510
  H  0.81569338 -0.20080393 -1.90267551
  H  5.53603663  0.46955397  0.09398675
  H  4.89190422  1.81044002 -0.90866465
  H  5.35625677  0.27442345 -1.67522864
