38
opt_min/./Product_4025_opt.xyz
  C -0.84865000 -1.22437400 -2.29951300
  C -0.23139156 -0.81405778 -0.97029977
  C  1.19573890 -0.23144440 -1.09462275
  C  2.18993229 -1.33927366 -1.41746349
  N  1.35856798  0.39308094  0.20756802
  C  2.37940737  0.55477326  1.10638780
  N  3.64207916  0.35102870  0.62802652
  C  4.79188480  0.59695963  1.46338549
  O  2.15511906  0.93195875  2.24124997
  N  0.08073879  0.78655136  0.70914856
  C -0.95709480  0.30103081 -0.17785326
  C -1.46780905  1.45161241 -1.07859092
  C -2.76244001  1.27428951 -1.81585702
  O -0.83684471  2.48015781 -1.12135008
  C -2.14001609 -0.25604241  0.64581972
  O -2.96204150 -1.01097572  0.16643037
  N -2.17361784  0.19811039  1.90386101
  C -3.20851124 -0.23180074  2.82108170
  H -0.57480774 -2.24801100 -2.54197374
  H -1.93075811 -1.18282588 -2.24595226
  H -0.51274764 -0.56850918 -3.10318884
  H -0.17888618 -1.68681461 -0.31043951
  H  1.20713131  0.53963029 -1.88128570
  H  2.38208559 -1.95003664 -0.53894999
  H  1.75877313 -1.97622218 -2.18693898
  H  3.13027590 -0.94527504 -1.80140374
  H  3.80371841  0.19607199 -0.35066051
  H  5.40467557 -0.30260265  1.56514382
  H  4.42233634  0.89285722  2.44390458
  H  5.40603094  1.40235671  1.05191152
  H  0.06211367  1.80635526  0.79107414
  H -2.56252880  1.25819302 -2.88664709
  H -3.38479298  2.14860992 -1.62104272
  H -3.28901091  0.37352095 -1.52001749
  H -1.41627350  0.77188025  2.25212384
  H -2.96593988  0.10513350  3.82517255
  H -4.17764042  0.17208178  2.51913926
  H -3.28278257 -1.32120123  2.80581832
