41
opt_min/./Product_1397_opt.xyz
  C  3.00431800 -3.06099500  0.14701000
  N  2.49913065 -1.70767019  0.13280861
  C  1.18782673 -1.45845177 -0.03035638
  O  0.35375820 -2.33398873 -0.11371570
  C  0.77440620  0.01271197 -0.01150798
  C  1.60219264  1.13593177 -0.70683668
 Cl  3.13711189  0.76099124 -1.49048104
  C  1.80793404  2.13306849  0.48640725
  C  2.83272539  1.44502719  1.36854562
  C  2.16256442  0.46659694  1.96318584
  C  0.74219575  0.57989125  1.44759235
  O  0.62069704  1.97236464  1.22484939
  N  0.70459328  1.68086099 -1.71709094
  N -0.50443174  1.65514608 -1.06809139
  C -1.58180808  2.23461768 -1.83793301
  C -0.58364736  0.22315132 -0.77119063
  C -1.83051365 -0.22465685 -0.08353191
  C -2.39182942  0.61556122  0.87640624
  C -3.54619954  0.23729705  1.53740178
  C -4.14589322 -0.97656283  1.24727105
  C -3.58741340 -1.81025991  0.29466638
  C -2.43286563 -1.44163412 -0.37444106
  C -0.23248386 -0.33214852 -2.18913248
  O -0.59029000 -1.31815941 -2.75120651
  O  0.59453124  0.57868719 -2.72622735
  H  3.88308100 -3.13647984 -0.49162895
  H  2.21822513 -3.71754466 -0.22235505
  H  3.26977305 -3.36174769  1.16335445
  H  3.17259066 -0.95828728  0.13998657
  H  1.97225729  3.16327890  0.18991174
  H  3.86892602  1.71032591  1.41732823
  H  2.49601552 -0.28278876  2.65238523
  H -0.05931745  0.19020949  2.06605547
  H -1.79403244  1.67759292 -2.75781598
  H -1.28935585  3.25105288 -2.09160075
  H -2.47507929  2.25283172 -1.21939592
  H -1.91676790  1.56022609  1.09773596
  H -3.97617723  0.89407650  2.27997642
  H -5.04751257 -1.27035488  1.76499901
  H -4.05159719 -2.75810120  0.06783609
  H -1.99238700 -2.09409455 -1.10792865
