29
opt_min/./Product_3312_opt.xyz
  N  0.42800000  1.28912600 -0.38891800
  C  0.93836718 -0.97605830  0.59266686
  N  1.93796827 -0.62449189  1.48688646
  N  1.31683960 -1.76151145 -0.49254967
  C  2.59625618 -1.45956429 -1.11091652
  C -0.48862018 -1.02732401  1.07526303
  C -1.26288736 -2.06960112  0.29687879
  C -1.10094825 -3.49012195  0.78161120
  O -1.92468557 -1.79632496 -0.70277089
  N -1.09859380  0.31452409  1.08968785
  C -0.98400667  1.07073046 -0.14744193
  C -1.77708007  2.37385476  0.01024128
  H  0.58634584  1.64985536 -1.32151255
  H  0.82235278  1.91638917  0.30014313
  H  2.64475095 -1.32678891  1.68033264
  H  1.57032866 -0.20198989  2.32517950
  H  0.56654567 -1.79988494 -1.17117547
  H  2.73461420 -0.38481571 -1.26175417
  H  2.65296913 -1.97156800 -2.06805338
  H  3.40174647 -1.82547161 -0.47518777
  H -0.47590529 -1.34011565  2.12583027
  H -1.81781409 -4.13054001  0.27488432
  H -0.09293982 -3.83011078  0.54194221
  H -1.24481969 -3.56024253  1.85717273
  H -2.08353165  0.21024199  1.31534038
  H -1.37637651  0.51244942 -1.01357404
  H -1.70874933  2.96532579 -0.89973163
  H -1.37566928  2.94902560  0.84217074
  H -2.82505968  2.16278894  0.20519186
