36
opt_min/./Product_4270_opt.xyz
  C  0.30280558 -1.34475819 -0.24594467
  C  0.51670629 -0.92102848 -1.66986671
  C  0.26843469  0.32787266 -2.08046312
  N -0.24557375  1.29972572 -1.27428099
  C -0.62414299  2.59351019 -1.78402880
  C -0.45579402  1.02712009  0.10854509
  C -0.73894537 -0.46135069  0.45867412
  C -2.18721461 -0.80650471  0.12774922
  N -2.36496987 -1.40580912 -1.06934422
  O -3.10301206 -0.58630453  0.88889443
  C -0.46448853 -0.41543015  1.98514124
  C -0.17011346 -1.75363625  2.67171413
  C -1.51662963  0.27069793  2.73099774
  N -2.22172312  0.83237822  3.43250536
  N  0.67907726  0.50420582  2.09867786
  C  0.69466973  1.26799236  1.08849004
  C  1.71175032  2.33717245  0.93033211
  O  2.85893491  1.99259968  1.50196464
  C  3.90577149  2.95514806  1.44948796
  O  1.51737535  3.37178307  0.34250002
  H  1.24898061 -1.27021629  0.30422932
  H -0.01238841 -2.39000228 -0.21012780
  H  0.94617669 -1.64157191 -2.34472146
  H  0.43407072  0.62665963 -3.10425670
  H  0.08401792  3.36685057 -1.47710435
  H -0.67212395  2.55693270 -2.86972310
  H -1.61131087  2.86432841 -1.40010150
  H -1.29563169  1.64597759  0.46766948
  H -3.30663801 -1.58556162 -1.37269715
  H -1.61151841 -1.44622039 -1.74067601
  H -0.46797322 -2.58591755  2.04175508
  H  0.89417765 -1.82146459  2.88290072
  H -0.71204426 -1.82355511  3.61172478
  H  3.94269145  3.41810646  0.46147373
  H  3.73900838  3.73070060  2.19827014
  H  4.82643880  2.41747068  1.66187393
