54
opt_min/./Product_2054_opt.xyz
  C  0.73521000  2.71061000  3.43534500
  O  0.33019191  1.63984274  2.59575852
  C  1.20100147  1.18998284  1.68891080
  O  2.31829283  1.64834529  1.56153329
  C  0.62144995  0.11257922  0.87703360
  C -0.67790969 -0.23831506  0.86600780
  C -1.79099177  0.39117901  1.57953554
  C -2.46285466  1.45172494  0.98243912
  C -3.52730460  2.04837055  1.63126209
  C -3.92938605  1.59491691  2.87628398
  C -3.26118806  0.54097833  3.47423441
  C -2.19648463 -0.06112858  2.82973828
  C -0.90281292 -1.38417018 -0.08414890
  C -2.02482425 -1.00200163 -1.09094393
  N -1.56314686 -0.79419369 -2.32779105
  C -2.43513691 -0.39259403 -3.40533080
  O -3.18538376 -0.90881995 -0.74668266
  C -1.34343527 -2.62247276  0.70981985
  N  0.37364518 -1.52025543 -0.76579202
  C  0.72348203 -2.80731895 -1.31406488
  C  1.38695932 -0.67521414 -0.16229275
  C  1.84572464  0.27924506 -1.33361706
  O  1.25095260  0.24509843 -2.39135815
  N  2.88119808  1.06829599 -1.05903508
  C  3.42560123  1.98650254 -2.03336451
  C  2.63317384 -1.39208131  0.34761560
  O  3.25331919 -2.21477057 -0.27323147
  O  2.96349381 -0.98055587  1.57295901
  C  4.14985948 -1.50748919  2.15626026
  H  0.91567601  2.32426993  4.43949218
  H -0.08099251  3.43112176  3.45629469
  H  1.64611574  3.17042962  3.04753797
  H -2.14705935  1.80248775  0.01122325
  H -4.04825423  2.86868905  1.16003120
  H -4.76402564  2.06244266  3.37752368
  H -3.57058553  0.18327312  4.44555595
  H -1.66897900 -0.88115629  3.29386683
  H -0.55612316 -0.68871537 -2.43126402
  H -3.17995831 -1.16980169 -3.58368770
  H -1.84311802 -0.23590918 -4.30162653
  H -2.96676193  0.53005109 -3.15721036
  H -1.54615577 -3.45990128  0.04808527
  H -0.57076727 -2.91064139  1.42047875
  H -2.25845049 -2.38807059  1.24913207
  H  1.45312322 -2.65968845 -2.11015225
  H -0.17381976 -3.24751727 -1.74295811
  H  1.15068785 -3.50415241 -0.58444785
  H  3.21977200  1.12503189 -0.10584165
  H  4.29643754  1.54928067 -2.52720425
  H  3.71992980  2.91088398 -1.54059980
  H  2.66336994  2.19240251 -2.78367939
  H  4.50211966 -2.36074661  1.57420132
  H  4.90823037 -0.72417534  2.16972927
  H  3.90804335 -1.80810493  3.17415512
