46
opt_min/./Product_4898_opt.xyz
  C -5.77292309 -0.41514894 -0.89361087
  C -4.43586894 -0.71673775 -0.29281534
  C -4.36858039 -2.00507495  0.47354681
  C -3.39638765  0.10955610 -0.45660629
  C -2.05890064 -0.08738239  0.04456649
  C -1.06989758  0.78373393 -0.16466315
  C  0.33004106  0.60264115  0.35732291
  C  0.33984893  0.76286714  1.88378395
  C  0.92735427 -0.76910621 -0.03266490
  C  2.29565487 -0.44351965 -0.68710568
  C  2.19335887 -0.63131614 -2.13244319
  N  2.09856366 -0.76498813 -3.26469922
  C  3.41738758 -1.32865188 -0.18076887
  C  4.51143504 -0.78429743  0.47189298
  C  5.51709538 -1.61757391  0.93114293
  C  5.43226744 -2.98454073  0.73142193
  C  4.34286940 -3.52675608  0.07023716
  C  3.33334608 -2.70064050 -0.38821098
  O  2.55645125  0.92143754 -0.41317806
  C  1.33011999  1.59802804 -0.31071076
  C  1.54418028  2.87640168  0.49245617
  C  0.51750138  3.95056181  0.24402918
  O  2.46197207  3.00733891  1.25584790
  H -6.10719952 -1.25489888 -1.50185451
  H -6.51281503 -0.26414291 -0.10696014
  H -5.74023190  0.47591180 -1.51480352
  H -5.35796043 -2.29437743  0.81896838
  H -3.71135247 -1.93073398  1.33551380
  H -3.99215833 -2.80045188 -0.17198253
  H -3.54063873  1.02058858 -1.02483326
  H -1.86066712 -0.99057470  0.60383208
  H -1.26801276  1.68260253 -0.73257166
  H -0.11653299  1.70725148  2.17251681
  H -0.22624503 -0.04277297  2.34607580
  H  1.35999392  0.73898273  2.26147694
  H  0.27502694 -1.29383050 -0.73163663
  H  1.08406192 -1.39940911  0.84187818
  H  4.55839634  0.28254587  0.62077350
  H  6.37268653 -1.20012130  1.44081326
  H  6.21771676 -3.63208140  1.09276821
  H  4.28539977 -4.59291018 -0.09050879
  H  2.48178688 -3.11192219 -0.91151690
  H  0.95778786  1.85594050 -1.31730114
  H  0.61923074  4.31082387 -0.77773996
  H -0.48754647  3.55433962  0.36802463
  H  0.67530310  4.77763081  0.93100918
