51
opt_min/./Product_2602_opt.xyz
 Br  2.35043600 -1.07038800 -3.09256900
  C  1.97288329 -1.51225689 -1.31414439
  C  2.69990653 -1.40582295 -0.19094323
  C  4.07015137 -1.02164024  0.07015530
  C  5.06712576 -1.16430439 -0.89839575
  C  6.36586796 -0.78045948 -0.62618500
  C  6.69169328 -0.24739537  0.61027619
  C  5.71181862 -0.11099060  1.58057468
  C  4.41213491 -0.49938466  1.32089226
  C  1.69235055 -1.73617613  0.90446037
  C  0.75042740 -0.50234541  1.07375467
  C  0.07622003 -0.45081407 -0.30374027
  C  0.55553744 -1.83238453 -0.87851966
  O  0.79412346 -2.62534806  0.26092982
  C -1.40869779 -0.28227410  0.03064037
  C -1.66421727  1.25686910  0.21472211
  N -1.78179926  1.93947511 -0.93852559
  C -2.04308906  3.36382310 -0.93464957
  O -1.70246090  1.76474637  1.30811876
  C -2.40815809 -0.83780144 -0.94599949
  C -2.13719431 -0.91256678 -2.30902825
  C -3.10138289 -1.38528369 -3.18368551
  C -4.34058073 -1.77752796 -2.70985134
  C -4.62205554 -1.68205755 -1.35673483
  C -3.66497809 -1.20854735 -0.47868504
  O -1.58053824 -0.89530125  1.29718508
  N -0.33217719 -0.85573752  1.96036624
  C -0.16590827 -1.38066361  3.18894798
  C -1.40349934 -1.89667613  3.87002013
  O  0.94344483 -1.39512526  3.69412911
  H  4.82997319 -1.59716411 -1.85679878
  H  7.12545896 -0.90154007 -1.38416654
  H  7.70740121  0.05409066  0.81868109
  H  5.96299384  0.29673840  2.54847852
  H  3.65456532 -0.39385206  2.08242784
  H  2.07450805 -2.14961166  1.83067589
  H  1.22898643  0.42763363  1.38336936
  H  0.43872622  0.36066498 -0.93713449
  H -0.10789794 -2.33473537 -1.57389086
  H -1.83846945  1.44298401 -1.81259713
  H -1.22884746  3.88355428 -0.42705930
  H -2.96757697  3.58018719 -0.39553112
  H -2.12296989  3.71742743 -1.95763066
  H -1.18124573 -0.58813585 -2.69906296
  H -2.87755061 -1.44839649 -4.23829809
  H -5.08699911 -2.15079244 -3.39482815
  H -5.59256307 -1.97303138 -0.98368226
  H -3.86941146 -1.13183641  0.57688585
  H -2.29817815 -1.62365367  3.32171556
  H -1.44533557 -1.50248584  4.88249486
  H -1.32486138 -2.98030893  3.93572582
