39
opt_min/./Product_1638_opt.xyz
 Cl  1.20709700  0.51801132 -1.69545086
  C -0.15884365  0.40052690 -0.55040727
  C -0.92789588 -0.95787988 -0.57669709
 Br -0.14676002 -2.33899644 -1.72779863
  C -2.33367951 -0.54066400 -1.04442693
  C -2.28513283 -0.06181253 -2.49951872
  C -1.59724253  1.31123104 -2.39906423
  C -1.25946375  1.41904282 -0.90757208
  C -2.50380743  0.77972166 -0.28737119
  C -0.93646688 -1.44024982  0.90299914
  C -0.18789984 -2.67515008  1.15663236
  N  0.30626779 -3.65993410  1.45675305
  C -2.27894315 -1.80671216  1.36405923
  N -3.28831396 -2.14495067  1.77600070
  N -0.48139949 -0.28966021  1.68477718
  C -0.08730976 -0.58657395  3.04618349
  C  0.42869639  0.51202646  0.88107830
  C  1.82700808 -0.14573736  0.82573632
  O  2.81048806  0.73411606  0.94518111
  C  4.14573036  0.24359073  0.86574462
  O  1.97436049 -1.33504842  0.71094597
  C  0.51526497  1.93827005  1.41104084
  H -3.08456614 -1.30936167 -0.87043122
  H -1.73552305 -0.75167024 -3.13749135
  H -3.29494511  0.02238258 -2.89579030
  H -0.72304961  1.38957371 -3.03977001
  H -2.28116420  2.11647324 -2.66556313
  H -1.01798028  2.43058828 -0.59619498
  H -3.41742027  1.29795801 -0.56355683
  H -2.45890441  0.68345843  0.79533288
  H  0.08737571  0.34900663  3.57102549
  H  0.80930667 -1.21389233  3.11409622
  H -0.91310549 -1.10471503  3.53412944
  H  4.62551698  0.38963420  1.83364917
  H  4.13857255 -0.81657458  0.60672869
  H  4.66525589  0.81888263  0.10114666
  H -0.47859922  2.30971453  1.64702688
  H  0.98632609  2.57811565  0.67085303
  H  1.12154371  1.96772059  2.31178868
