44
opt_min/./Product_1508_opt.xyz
  C -1.58182200 -0.83217900  1.46422500
  C -0.83903685 -0.34284271  0.22276466
  C  0.68215789 -0.70061588  0.18703205
 Br  1.33497379 -1.64633051  1.78759693
  C  0.84102071 -1.55397616 -1.07545898
  C  0.14397229 -2.90796458 -0.89486023
  C -1.35194505 -2.53958943 -0.93972118
  C -1.33505829 -1.00954124 -1.08077958
  C -0.13699481 -0.84884019 -2.02269603
  C  1.41733256  0.64615710  0.11908960
  C  2.74941784  0.67518826  0.85585792
  O  3.61120546 -0.16688449  0.27554737
  C  4.88494511 -0.27542408  0.89618581
  O  3.01517189  1.38831165  1.78225060
  N  0.47994388  1.56620403  0.71820472
  C -0.83745092  1.23259926  0.21420405
  C -1.93230528  1.82098666  1.12919215
  C -1.46829308  2.58177307  2.33528263
  O -3.10140663  1.67153805  0.87416375
  C -1.04942533  1.94406330 -1.15117231
  C -2.35239254  1.84919282 -1.88488737
  O -0.15300913  2.65016996 -1.55537590
  H -2.65187784 -0.68125732  1.34497944
  H -1.23915314 -0.28831616  2.34144997
  H -1.40310532 -1.88906598  1.63828397
  H  1.87924760 -1.62552399 -1.39771258
  H  0.42293121 -3.39480245  0.03803814
  H  0.41401734 -3.58225070 -1.70775383
  H -1.90597537 -2.89432662 -0.07523071
  H -1.82915474 -2.96385796 -1.82432942
  H -2.29013614 -0.62185355 -1.41933472
  H -0.26320969 -1.38265304 -2.96338417
  H  0.12471219  0.18277876 -2.24482350
  H  1.65844721  0.89005691 -0.93397518
  H  5.47408485 -0.93353088  0.26423195
  H  5.34832710  0.70917465  0.97836134
  H  4.77324004 -0.70181320  1.89538299
  H  0.73079545  2.52947832  0.51781690
  H -0.40654445  2.45904841  2.51633525
  H -2.03787457  2.23147477  3.19501357
  H -1.71092606  3.63354202  2.19624457
  H -2.60550134  2.84983462 -2.23666912
  H -2.22402659  1.22503278 -2.76778155
  H -3.16138545  1.47477345 -1.26800055
