69
opt_min/./Product_3162_opt.xyz
  C -3.13516200  2.56519800 -0.28616500
  O -2.00476789  1.76826676 -0.55902993
  C -1.95940341  0.35009871 -0.29998374
  C -2.34411623 -0.40843650 -1.60530877
  C -3.30249925  0.29225494 -2.52729626
  O -1.89444035 -1.49105384 -1.85922117
  C -0.48723069  0.08727859 -0.04144957
  C  0.29128599 -0.96832317  0.24370655
  C -0.03591013 -2.42321941  0.59817575
  C  0.75068253 -3.43890361 -0.27878467
  F  0.66050093 -4.68313098  0.23912945
  F  0.27346489 -3.53389322 -1.51501699
  F  2.06218286 -3.22733027 -0.38576033
  C  0.42277319 -2.66384237  2.06894854
  F  1.73687982 -2.84862879  2.21628138
  F  0.06232198 -1.65544651  2.86042556
  F -0.11906145 -3.76654468  2.61600769
  C -1.47891659 -3.00923067  0.52278195
  C -2.58417310 -2.51695971  1.45554987
  C -3.46512120 -1.38529260  0.95515270
  C -2.84776734  0.00279335  0.91062637
  C  1.75806018 -0.51966525  0.11616743
  C  2.78582547 -0.86063684  1.21959930
  O  2.76288855 -0.33022516  2.29607674
  O  3.71349857 -1.69268622  0.78783784
  C  4.75593578 -2.05238842  1.68813802
  C  2.30778910 -0.81382313 -1.30642917
  O  3.40554504 -0.47343968 -1.66125543
  O  1.35667405 -1.28924456 -2.08754685
  C  1.61111825 -1.40351775 -3.48398746
  N  1.65905824  0.92358826  0.15773420
  C  2.80399653  1.77439235 -0.01543205
  C  0.33520495  1.36323169 -0.17341475
  C -0.14594128  2.29382875  0.96122877
  O -0.16234297  3.59007646  0.65547280
  C -0.54859416  4.49942484  1.68384748
  O -0.44064713  1.85895691  2.04074176
  C  0.27072641  1.87176763 -1.63295280
  C  0.60022409  3.30501158 -1.93319038
  O  0.03466092  1.08736991 -2.51868293
  H -4.07783622  2.12315101 -0.61468337
  H -3.20368820  2.81925956  0.77747946
  H -2.96437904  3.48136504 -0.85175268
  H -2.92820681  1.28802471 -2.74707957
  H -3.38630005 -0.28065723 -3.44608498
  H -4.28061961  0.37017850 -2.05735863
  H -1.81857065 -3.00933555 -0.51001737
  H -1.34130210 -4.05497061  0.81120358
  H -2.20009519 -2.30259482  2.45011091
  H -3.26083408 -3.37138091  1.54948864
  H -3.87037899 -1.65118880 -0.02214941
  H -4.30481861 -1.32616786  1.65300203
  H -3.69244879  0.69073746  0.87903870
  H -2.27933439  0.20472376  1.81896218
  H  5.68149054 -1.58402173  1.35165413
  H  4.50848978 -1.71749382  2.69650548
  H  4.84900073 -3.13580646  1.65439823
  H  1.43645746 -2.43974362 -3.76835677
  H  0.90843107 -0.74438970 -3.99140766
  H  2.64023436 -1.11222482 -3.69975971
  H  2.63728305  2.70158912  0.53421331
  H  3.67583656  1.27928492  0.40304715
  H  3.02464263  2.00003049 -1.06676891
  H  0.34070485  5.00106977  2.06641010
  H -1.22394834  5.22727400  1.23697585
  H -1.04092056  3.95899752  2.49349706
  H -0.32967471  3.86960321 -1.91552908
  H  1.02245517  3.36670146 -2.93427400
  H  1.27108882  3.73840634 -1.20241333
