55
opt_min/./Product_5810_opt.xyz
  C -1.05381400  1.34101600  0.50752500
  C -0.22331619  0.61364189 -0.55496770
  C -0.85977871 -0.72488001 -0.95513147
  N -2.25637841 -0.63393118 -1.22785541
  C -2.80797036 -1.41934920 -2.30503595
  C -2.98270509  0.38240099 -0.69907449
  C -2.50980495  1.31843389  0.14579809
  C -3.47731767  2.26818919  0.70780098
  N -2.98677857  3.18586520  1.59179822
  O -4.65818254  2.27195752  0.39567116
  C -0.37294399 -1.67435065  0.20545067
  C -0.31823049 -3.12622004 -0.26198086
  C  0.92877514 -3.90935827  0.04376801
  O -1.27114812 -3.64034916 -0.79741083
  C -1.28911633 -1.68903119  1.45474373
  C -2.70745106 -2.12096127  1.28550085
  O -0.81133541 -1.39830108  2.52403612
  N  0.89949535 -1.10966296  0.61029432
  C  1.15550092  0.18722944 -0.02374627
  C  1.64895375  1.20866240  1.03152228
  N  1.53261870  0.77723326  2.29458708
  C  1.86816787  1.59499569  3.43307625
  O  2.06773127  2.30270786  0.71224448
  C  2.25608559  0.04453134 -1.06099951
  C  3.52210179 -0.29505465 -0.58552494
  C  4.57804407 -0.49550736 -1.45322535
  C  4.38725516 -0.36473778 -2.81792867
  C  3.13683054 -0.02388385 -3.29997079
  C  2.07889405  0.18058560 -2.42986980
  H -0.90516660  0.87486830  1.48563036
  H -0.69076468  2.37092859  0.56517223
  H -0.13612515  1.27057621 -1.41941058
  H -0.35977081 -1.10206839 -1.85688443
  H -2.54893399 -0.98943002 -3.28097765
  H -2.43445047 -2.44010647 -2.25629420
  H -3.89275033 -1.44346536 -2.21497619
  H -4.02886614  0.40744713 -0.96695905
  H -2.08561035  3.07106943  2.02151065
  H -3.65521206  3.77932503  2.05614771
  H  1.16553521 -3.84205404  1.10488812
  H  0.76163047 -4.95030525 -0.22811845
  H  1.77146489 -3.52921792 -0.53357129
  H -3.33497319 -1.23074964  1.23859464
  H -3.00840628 -2.69165454  2.16426082
  H -2.85379362 -2.71077031  0.38687581
  H  1.68466299 -1.73496568  0.50294018
  H  1.14900057 -0.14814988  2.45907248
  H  2.75768724  1.21291729  3.94070144
  H  2.07258381  2.60379850  3.07450725
  H  1.03655508  1.61131895  4.13937456
  H  3.67929225 -0.38858846  0.48083655
  H  5.55294731 -0.75052824 -1.06400176
  H  5.21018928 -0.52130116 -3.50060759
  H  2.97795745  0.08753470 -4.36296836
  H  1.12029219  0.45786018 -2.84235399
