55
opt_min/./Product_5710_opt.xyz
  C -0.11823600  1.30115000 -2.24254200
  C  0.41931497 -0.00569009 -1.64305290
  C  1.29153997 -0.66040918 -2.71187610
  C -0.76216756 -0.93005109 -1.19977262
  C -0.28999398 -2.37937925 -1.00248649
  C -1.94504090 -0.98699619 -2.16222546
  C -1.10615499 -0.34557530  0.20009032
  C -1.82369362 -1.36456109  1.08361986
  O -2.95304715 -1.73663699  0.90363273
  O -1.06340929 -1.76731851  2.10299740
  C -1.64493221 -2.70373145  3.00196909
  C -2.06170874  0.87039828  0.31502126
  O -1.82457587  1.75795665  1.09923391
  O -3.15146609  0.81487568 -0.42409938
  C -4.09297344  1.86551521 -0.23676810
  N  0.16015693  0.07848726  0.71110014
  C  1.17478081  0.29422062 -0.29130075
  C  1.65192892  1.77646176 -0.21272730
  N  1.15369295  2.45151649  0.82794753
  C  1.46307221  3.84091424  1.05701753
  O  2.42487007  2.27142292 -1.01374696
  C  2.43380424 -0.53412719 -0.03863706
  C  3.59851063 -0.28911498 -0.76292807
  C  4.75553673 -1.00509439 -0.51667000
  C  4.78193636 -1.98379840  0.46179970
  C  3.63686375 -2.23064928  1.19665685
  C  2.47999080 -1.50969766  0.95370808
  H -0.63234862  1.10432085 -3.17861025
  H  0.70516714  1.97721793 -2.45168687
  H -0.79967374  1.80262346 -1.55864422
  H  0.66665416 -0.98942888 -3.53890906
  H  1.99966691  0.06715183 -3.09702636
  H  1.85162326 -1.50862516 -2.33166891
  H -1.10963212 -2.98700669 -0.62443598
  H  0.54347531 -2.44458216 -0.31135752
  H  0.01825925 -2.80673399 -1.95216752
  H -1.64511948 -1.48551247 -3.08125592
  H -2.74513741 -1.56306948 -1.70408357
  H -2.33841919 -0.00873925 -2.40714503
  H -1.09495838 -2.61831348  3.93614027
  H -2.70156537 -2.47564080  3.15086632
  H -1.54966899 -3.71305508  2.59729802
  H -4.94601635  1.61928644 -0.86171292
  H -3.65607709  2.82031684 -0.54023777
  H -4.38502668  1.92791718  0.81181998
  H  0.42886694 -0.20005180  1.63594783
  H  0.44068767  2.02258149  1.40524497
  H  2.20949780  3.94622943  1.84555159
  H  0.55985917  4.37694362  1.34337831
  H  1.86856863  4.26102202  0.13671377
  H  3.60748967  0.49010647 -1.50561371
  H  5.64544385 -0.79259498 -1.09092511
  H  5.68602258 -2.54180533  0.65630358
  H  3.63877780 -2.98707965  1.96774803
  H  1.61119458 -1.73462664  1.55664243
