49
opt_min/./Product_4942_opt.xyz
  C -0.30487100 -1.91488900  1.04141400
  C -0.16225381 -0.86926169 -0.07002180
  C  0.00662578 -1.51060875 -1.46524770
  C  0.94756189  0.14994800  0.27801052
  C  2.36515760 -0.10496934 -0.10641826
  C  2.93270841 -1.27286833 -0.39864865
  C  4.33908369 -1.45887909 -0.73061134
  C  5.27818980 -0.29956181 -0.57290402
  C  4.77042481 -2.63244652 -1.19125251
  C  0.38618490  1.49754711 -0.25338142
  C  0.65460886  2.64688889  0.73411289
  N -0.18815434  3.67798441  0.55048817
  C -0.14900888  4.87663163  1.34984626
  O  1.54382422  2.62635829  1.55992727
  C  0.92630845  1.94904314 -1.62145555
  N -1.04451405  1.30783084 -0.31986867
  C -1.35368800  0.08178622 -0.16885003
  C -2.75511792 -0.32146254 -0.11965765
  C -3.71342411  0.65407800  0.16710696
  C -5.05289675  0.33098309  0.23799591
  C -5.46426423 -0.97483124  0.02174839
  C -4.52509540 -1.95014382 -0.26775671
  C -3.18127798 -1.63111638 -0.33681579
  H  0.66533046 -2.11015940  1.49181610
  H -0.69402429 -2.85877555  0.66828294
  H -0.97540043 -1.55860054  1.82158807
  H  0.76897213 -0.99530678 -2.04125279
  H -0.92282492 -1.46042966 -2.02886664
  H  0.29451406 -2.55530740 -1.38458695
  H  0.95147077  0.26523910  1.37283792
  H  2.96662689  0.79134143 -0.05761351
  H  2.34560706 -2.17950508 -0.41550287
  H  6.30610435 -0.64949398 -0.54768091
  H  5.06975527  0.25129874  0.34082405
  H  5.17291320  0.38926808 -1.41223874
  H  5.80056359 -2.79537252 -1.45358896
  H  4.10743171 -3.47103201 -1.32468132
  H -0.95749778  3.53439732 -0.08520995
  H  0.23022438  5.72074886  0.76836148
  H  0.52312341  4.69596117  2.18777263
  H -1.14289428  5.12030836  1.72380931
  H  1.30497009  1.10296400 -2.18876145
  H  1.73287717  2.66797086 -1.49824728
  H  0.12559787  2.41757135 -2.18844904
  H -3.37698756  1.66480632  0.33773211
  H -5.78059080  1.09595493  0.46422004
  H -6.51189511 -1.23036607  0.07811529
  H -4.84133948 -2.96853482 -0.44085735
  H -2.47018738 -2.40433177 -0.57467788
