55
opt_min/./Product_5812_opt.xyz
  C  0.07765200 -1.53004800  1.39742500
  C -0.92644097 -1.51856171  2.50488004
  C -1.95959045 -0.68516156  2.41707251
  N -2.14024468  0.20673038  1.38830292
  C -3.34604079  0.99795858  1.42101134
  C -1.10983384  0.46244643  0.41861973
  C  0.26271914 -0.09387156  0.87791833
  C  0.80779837  0.87702722  1.93332999
  N  1.68043632  0.35449254  2.83502717
  O  0.53939700  2.05845667  1.92894394
  C  1.12259285 -0.10066595 -0.42780694
  C  2.14210016 -1.26608834 -0.43244072
  N  3.00296703 -1.25867366  0.61745597
  C  4.02681309 -2.26415492  0.77419893
  O  2.16759342 -2.10545919 -1.29653294
  C  1.84990641  1.21479852 -0.73667480
  C  3.23703470  1.32143531 -0.79155933
  C  3.85379126  2.51587798 -1.12138157
  C  3.10314595  3.63594747 -1.42393240
  C  1.72446216  3.53039794 -1.43935163
  C  1.11320444  2.33430656 -1.11577569
  N  0.12107324 -0.40691441 -1.42275072
  C -1.24545156 -0.09350057 -1.04167156
  C -1.79118679  0.83668145 -2.14792751
  C -2.65758901  2.03159680 -1.83461948
  O -1.47151929  0.60269371 -3.28783198
  C -2.05827115 -1.41737157 -1.09987179
  C -3.55745265 -1.32801259 -0.98563609
  O -1.49925010 -2.47121473 -1.21570015
  H  1.01052575 -1.99331915  1.71389567
  H -0.28464710 -2.12933000  0.55816639
  H -0.79492196 -2.15738124  3.36044415
  H -2.71792730 -0.63302796  3.18516886
  H -3.45944247  1.46857959  2.40391622
  H -3.29851116  1.79173931  0.68556825
  H -4.23441648  0.39102352  1.22957463
  H -0.98439073  1.55122912  0.36357766
  H  1.66397556 -0.63107654  3.03763150
  H  1.94797565  0.96315978  3.59431050
  H  2.98703510 -0.49428450  1.27515288
  H  3.83442199 -2.88385931  1.65363152
  H  5.01051097 -1.80237884  0.87260852
  H  4.00540510 -2.89283138 -0.11457452
  H  3.86241057  0.46324053 -0.60917388
  H  4.93265693  2.56213595 -1.14861481
  H  3.58579897  4.56898783 -1.67284664
  H  1.11791752  4.38070879 -1.71445879
  H  0.04087898  2.28078942 -1.18875110
  H  0.32519951 -0.13048814 -2.37215420
  H -2.65997493  2.68026617 -2.70918456
  H -2.29759736  2.58780395 -0.97405137
  H -3.68315107  1.71895220 -1.64848819
  H -3.83896425 -1.69983672 -0.00132582
  H -3.99813134 -1.99561204 -1.72402007
  H -3.94115300 -0.32529674 -1.11944946
