45
opt_min/./Product_1568_opt.xyz
  C -1.21050391  2.23392600 -1.34137908
  C -0.97867866  0.86458379 -1.92359859
  O -1.06356122  0.66976971 -3.10482711
  C -0.61101582 -0.22648658 -0.90823887
  C -0.42573767 -1.69150180 -1.42007663
 Cl -0.55565701 -2.04450642 -3.16569636
  C -1.46813171 -2.49298382 -0.62969723
  C -2.85735073 -2.09049627 -1.15488949
  C -3.03919289 -0.65981892 -0.60631264
  C -1.72503818 -0.40724130  0.15012270
  C -1.46483671 -1.79918314  0.72963843
  C  1.07013528 -1.93528540 -1.05073716
  C  1.46537004 -3.32200068 -1.05004675
  N  1.74311657 -4.42800886 -1.00699837
  N  1.22284979 -1.23266467  0.19832129
  C  2.54936677 -1.28647521  0.79341408
  C  0.82250426  0.07797503 -0.33249237
  C  0.96276468  1.19751895  0.65289472
  C  1.52094190  2.42238336  0.30573729
  C  1.63579186  3.42831585  1.25022725
  C  1.20115207  3.22642273  2.54817738
  C  0.65939086  2.00361217  2.90473834
  C  0.54352788  0.99408054  1.96646391
  C  1.65454658  0.12393912 -1.64158437
  O  2.05411593  1.06207478 -2.25870403
  O  1.82796594 -1.15296883 -2.01169747
  H -2.09923032  2.66265727 -1.80162748
  H -1.30323962  2.24155199 -0.26192070
  H -0.36594360  2.85881401 -1.63149077
  H -1.27479121 -3.56330519 -0.64337774
  H -3.61676944 -2.76816761 -0.76682545
  H -2.90050446 -2.11958902 -2.24092204
  H -3.21767855  0.06375904 -1.39978889
  H -3.87801053 -0.60679776  0.08910373
  H -1.77398054  0.40781288  0.86735989
  H -2.28905550 -2.13445441  1.35698975
  H -0.53060149 -1.90168514  1.27125153
  H  2.86178927 -2.32836937  0.85102669
  H  3.29693092 -0.72087311  0.22488414
  H  2.49232261 -0.87767306  1.80170609
  H  1.87366854  2.59019482 -0.69807263
  H  2.07262075  4.37381137  0.96658648
  H  1.29027538  4.01446807  3.28088891
  H  0.32732579  1.83117104  3.91836507
  H  0.13593857  0.03877697  2.25730483
