43
opt_min/./Product_4935_opt.xyz
  C -0.22766500 -2.06108500 -0.91365000
  C  0.13384262 -0.58807242 -0.85447280
  C -1.04615667  0.37093677 -0.59444549
  N -2.03381046 -0.17447356  0.32196773
  C -2.92747870  0.75148674  0.97324989
  C -2.07138926 -1.49801021  0.62962432
  C -1.26973187 -2.43792237  0.09697173
  C -1.29759448 -3.85452310  0.47998093
  N -2.34137635 -4.25752679  1.28295199
  O -0.41709670 -4.63370615  0.16189498
  N -0.38815917  1.51631856 -0.02408606
  C -0.73990006  2.84429367  0.09183501
  N -1.77443600  3.22209782 -0.71974554
  C -2.30701001  4.56407778 -0.62909132
  O -0.19695311  3.60382977  0.85653958
  O  0.92363780  1.17888347  0.42953356
  C  0.99687465 -0.23325023  0.37044839
  C  2.44594169 -0.64627130  0.34718963
  C  3.19248521 -0.69455220 -0.82080801
  C  4.53040479 -1.04817469 -0.78133616
  C  5.13987203 -1.34787637  0.42341392
  C  4.40218488 -1.29713367  1.59312763
  C  3.06499972 -0.94749177  1.55497005
  H  0.66590798 -2.66532787 -0.73967048
  H -0.58547198 -2.30302695 -1.92183295
  H  0.63462891 -0.26448640 -1.76766544
  H -1.54046982  0.63390526 -1.54639277
  H -2.37211314  1.50572572  1.53666019
  H -3.54132720  1.27541246  0.23359901
  H -3.57483469  0.20758188  1.65551008
  H -2.79429863 -1.75553974  1.39003188
  H -2.35230104 -5.24960762  1.47363742
  H -3.24867976 -3.84262849  1.16233005
  H -2.14447773  2.60672847 -1.42045206
  H -1.49105836  5.28781052 -0.63647688
  H -2.96658906  4.74746346 -1.47304383
  H -2.86889414  4.68757428  0.30076101
  H  0.51915598 -0.67664228  1.26031952
  H  2.73761366 -0.45725270 -1.77026420
  H  5.09644012 -1.08764447 -1.70050829
  H  6.18508593 -1.61931347  0.44886266
  H  4.86644090 -1.53010746  2.54014402
  H  2.48597271 -0.90537691  2.46553286
