43
opt_min/./Product_4434_opt.xyz
  C  4.07299400 -1.26787100  0.31264800
  C  2.86497050 -0.67781577 -0.34822381
  C  3.13312569  0.13837762 -1.58039330
  C  1.64388435 -0.91794849  0.11708040
  C  0.36908638 -0.41100358 -0.48986003
  C -0.76533414 -1.45959601 -0.53795546
  C -1.55132972 -1.24847354 -1.80716424
  C -1.15860003 -2.13471381 -2.95035827
  C -2.45022312 -0.28989044 -1.95263107
  C -1.55035975 -1.16183098  0.77608031
  C -1.08117355 -2.02976175  1.97316701
  C -3.05311112 -1.43198586  0.69094176
  C -3.89538759 -0.48700951  1.50104229
  O -3.49275150 -2.37594617  0.08967310
  N -1.26306689  0.21825302  1.09102665
  C -0.26472768  0.61720411  0.42231522
  C  0.26506080  2.00000761  0.54262462
  O -0.58043924  2.78564152  1.20750621
  C -0.19073560  4.13805469  1.40246133
  O  1.31914110  2.36633989  0.08351260
  H  4.52110268 -2.02663578 -0.33097144
  H  4.82081656 -0.49444174  0.48417403
  H  3.82191521 -1.72633967  1.26647901
  H  2.64141108 -0.30715142 -2.44683267
  H  2.74008243  1.14665805 -1.45468017
  H  4.19922120  0.19126734 -1.78206630
  H  1.52321948 -1.52466207  1.00382709
  H  0.57863851  0.02849889 -1.46586607
  H -0.38328619 -2.48193268 -0.52794418
  H -1.91164318 -2.10191469 -3.73379342
  H -1.03616219 -3.16669388 -2.62530134
  H -0.20967442 -1.80441868 -3.37582276
  H -2.97026570 -0.13607489 -2.88232098
  H -2.69962505  0.39509920 -1.15957314
  H -0.54869437 -1.40281741  2.68626627
  H -0.42055353 -2.82462288  1.63876880
  H -1.92805531 -2.48446403  2.48547900
  H -3.40204325 -0.24888740  2.43831815
  H -4.88074704 -0.91754487  1.66315114
  H -4.00379447  0.44199250  0.94463134
  H -0.55793745  4.75665008  0.58110068
  H  0.89810852  4.21200833  1.45209209
  H -0.64102310  4.45756686  2.34091087
