31
opt_min/./Product_864_opt.xyz
  F -2.37115173  2.94401643 -2.29786578
  C -1.28279848  2.34853130 -1.83234403
  C -0.27315831  2.82392681 -1.10784037
 Br  0.05537936  4.51275169 -0.39309996
  C  0.57645249  1.59562892 -0.80868144
  C -0.23089287  0.82922974  0.28818770
  C -1.37865856  0.25870859 -0.57510749
  C -1.02375242  0.85710371 -1.97199233
  O  0.38502434  0.81505637 -1.96408204
  C -1.15174811 -1.27152389 -0.51981490
  C -2.01633716 -1.83634717  0.52385232
  N -2.64775477 -2.25927307  1.37568891
  C -1.48334311 -1.95370803 -1.75897290
  N -1.78427899 -2.50816589 -2.70897148
  N  0.25562065 -1.40997606 -0.17283230
  C  0.73478513 -2.75866501  0.06718585
  C  0.50447258 -0.40694579  0.83549784
  C  1.99132095 -0.14820381  1.08171543
  C  2.25712187  0.82582779  2.20148504
  O  2.86007417 -0.67155232  0.44207815
  H  1.63062056  1.76512679 -0.61604638
  H -0.54944299  1.49847143  1.08608172
  H -2.38605576  0.53063252 -0.25972878
  H -1.44635598  0.35952236 -2.83946567
  H  1.37917141 -2.77757394  0.94454261
  H -0.08616203 -3.46347952  0.22913424
  H  1.31962427 -3.08685464 -0.79380330
  H  0.05220470 -0.68048529  1.81491540
  H  1.57135706  0.67968506  3.03090050
  H  2.13258652  1.84246602  1.83029671
  H  3.28325340  0.71582462  2.54299184
