25
opt_min/./Product_3718_opt.xyz
  O -2.94100400 -1.45210000 -0.94061600
  C -1.96539822 -1.53955493 -1.53319480
  O -1.00538954 -1.63758736 -2.14404790
  C -0.46075421 -0.94833548  0.87707512
  C  0.81267483 -1.25365258  0.49874332
  C  1.86599584 -1.75685956  3.21157541
  O  0.84011240 -1.52959550  3.66473318
  O  2.90819631 -1.97695024  2.79864089
  N  1.42323285 -0.07250481  0.17624974
  C  2.75294648  0.07609886 -0.26926823
  C  3.17773905  1.50106328 -0.40698269
  O  3.42317158 -0.89562244 -0.48335065
  N  0.60531971  0.96202176  0.35369885
  C -0.53824734  0.47186578  0.78670576
  C -1.71060938  1.33417116  1.05808783
  C -2.80561624  0.66556369  1.84811641
  O -1.78305765  2.46934211  0.65704928
  H -1.20124515 -1.62228540  1.25396690
  H  1.31899858 -2.18329184  0.33629037
  H  2.35083637  2.11225577 -0.75606790
  H  4.02792561  1.56218339 -1.08018322
  H  3.47780510  1.86979973  0.57269422
  H -3.50965811  1.41681575  2.19618778
  H -3.33179104 -0.03467296  1.20144214
  H -2.39501011  0.12012042  2.69366682
