47
opt_min/./Product_5639_opt.xyz
  C  0.16969800  0.91566800 -0.48611200
  O -0.14221084  1.90605817  0.14230908
  C  0.74011350  0.97647986 -1.83620949
  O  0.57400514  2.03074140 -2.66123561
  C -0.18852414  3.15783472 -2.27953418
  C  1.62259881  0.01218463 -2.25210110
  O  2.24249164  0.23269120 -3.43401371
  C  3.18563355 -0.69134610 -3.93877083
  C  1.96617762 -1.09575050 -1.36218138
  O  3.04692570 -1.65250160 -1.36993128
  C  0.84674392 -1.58891383 -0.45176090
  C  1.45521656 -2.49059875  0.62064999
  C -0.10072876 -0.48351984  0.06712801
  C -0.24606157 -0.38288367  1.58041431
  C -1.45832708 -0.90414685 -0.67041657
  C -2.51065984  0.14186750 -0.80678247
  C -3.28994465  0.50216340  0.28502564
  C -4.24589890  1.49345513  0.14699149
  C -4.43181604  2.12206865 -1.07194978
  C -3.66550860  1.75063415 -2.16385869
  C -2.70288837  0.76464334 -2.03390561
  C -1.83810285 -2.22148468  0.03060309
  O -2.66061839 -2.43820747  0.86445385
  O -0.99746010 -3.12821444 -0.48459624
  C -0.14084269 -2.40027606 -1.37935104
  C  0.44575898 -3.30819941 -2.43322220
  O -0.97252061 -1.41190593 -1.90377950
  H -0.24428430  3.76954401 -3.17948272
  H  0.29160855  3.71956196 -1.47668612
  H -1.19645039  2.87819351 -1.95985405
  H  3.39104469 -0.35230909 -4.95361301
  H  2.78957584 -1.70884679 -3.96459611
  H  4.10600354 -0.68257249 -3.35195397
  H  1.89341209 -3.36649143  0.14846419
  H  2.24916807 -1.96024610  1.14046521
  H  0.71404671 -2.82816742  1.33693673
  H  0.73613189 -0.30194236  2.03943362
  H -0.80119438  0.52415732  1.81271983
  H -0.77500745 -1.22732538  2.01194334
  H -3.16202162  0.00034136  1.22974686
  H -4.84903444  1.77343736  0.99720284
  H -5.17635175  2.89733701 -1.17546341
  H -3.81370243  2.23240731 -3.11935377
  H -2.10666543  0.46092866 -2.88100633
  H  1.37190454 -3.75589759 -2.08512461
  H  0.63367043 -2.72084088 -3.32820731
  H -0.27088764 -4.09098903 -2.66648693
