36
opt_min/./Product_3691_opt.xyz
  C -2.75362327 -0.62054680 -0.04570380
  C -1.46011146  0.05466634 -0.50202541
  C -1.69842171  0.71278182 -1.87147017
  C -0.22414546 -0.90534203 -0.55386784
  C -0.10147744 -1.75388659  0.71972568
  C -0.16859269 -1.80939505 -1.78238614
  C  0.90183157  0.15107290 -0.54605694
  C  2.28277608 -0.39224072 -0.16390662
  N  3.01138323  0.48128966  0.55021347
  C  4.34370611  0.16179779  1.00920248
  O  2.69412030 -1.47038178 -0.53375492
  O  0.48406103  1.15990017  0.36234057
  C -0.94038216  1.11454831  0.52080073
  C -1.52852710  2.52763042  0.38722270
  C -1.21634604  0.72824406  1.90287650
  N -1.41188413  0.49147050  3.00426825
  H -2.76756187 -0.80843368  1.02436469
  H -3.61344878  0.00620165 -0.27594852
  H -2.87843478 -1.56569315 -0.56970774
  H -2.72709747  1.05387794 -1.96049000
  H -1.04866339  1.56786422 -2.03355091
  H -1.51766022  0.00756813 -2.67581001
  H -1.05092893 -2.18916036  1.01337552
  H  0.60721856 -2.56017096  0.55141354
  H  0.27397792 -1.15900442  1.55068166
  H  0.21790414 -1.28384574 -2.65236675
  H  0.49992571 -2.64484120 -1.59578436
  H -1.15526655 -2.20705271 -2.01459720
  H  1.01684040  0.58756958 -1.55560219
  H  2.56104951  1.31996818  0.88004765
  H  4.93283994 -0.22141721  0.17435344
  H  4.81414542  1.05709452  1.40665482
  H  4.31066384 -0.61056089  1.78239384
  H -1.19714022  3.13359138  1.22915615
  H -1.18348035  3.00668481 -0.52329614
  H -2.61382055  2.47818865  0.39637303
