53
opt_min/./Product_1740_opt.xyz
  C  0.91746300  1.78038600 -1.66390400
  C  0.75728599  0.28051067 -1.63181188
  O  0.69061675 -0.37039943 -2.63966609
  C  0.71842631 -0.36332562 -0.22437207
  C  1.73381809  0.38492794  0.61793131
  C  3.04424070  0.40588247  0.13137851
  C  4.05373844  1.05696365  0.81266024
  C  3.77741746  1.72337864  1.99424957
  C  2.48073419  1.74111796  2.46874642
  C  1.46971043  1.08533172  1.78568782
  C -0.78278932 -0.49830910  0.23770373
  C -0.77799347 -0.86877800  1.73132371
  C -2.03104402 -0.63701411  2.55136149
  O  0.17666472 -1.42174677  2.22330259
  C -1.58911579  0.73993301 -0.11032956
  C -2.07352455  0.99757158 -1.39188948
  C -2.76778615  2.15805628 -1.68818228
  C -2.98317338  3.12120507 -0.72121002
  C -2.46545646  2.91270918  0.54267409
  C -1.77889173  1.74837832  0.83649321
  C -1.18126622 -1.93096337 -0.40108179
  C -2.15900032 -2.76103551  0.44193291
  C -1.72191149 -1.97993506 -1.83618774
  N  0.07714443 -2.63046913 -0.42885365
  C  1.06040218 -1.85215820 -0.34474884
  C  2.44758134 -2.41409688 -0.33854434
  C  2.86159215 -2.87019899  1.03221395
  O  3.13492184 -2.49732529 -1.31996752
  H  1.96390460  2.00729944 -1.86525333
  H  0.62852405  2.25447696 -0.73198898
  H  0.32993944  2.17933747 -2.48824538
  H  3.27582721 -0.08832174 -0.79897800
  H  5.05852844  1.04535631  0.41731015
  H  4.56412692  2.23070501  2.53237498
  H  2.24567005  2.26939400  3.38112103
  H  0.47561878  1.12096273  2.19247453
  H -1.80926626  0.08258770  3.33924568
  H -2.87035256 -0.28157166  1.96448285
  H -2.29181577 -1.56567873  3.05567539
  H -1.89075749  0.31487834 -2.19767798
  H -3.13171274  2.30868671 -2.69377773
  H -3.52540506  4.02517567 -0.95300547
  H -2.58744287  3.66153461  1.31167945
  H -1.38100811  1.65458813  1.83160201
  H -2.36029636 -3.68605886 -0.09282541
  H -3.09732109 -2.23198617  0.58177759
  H -1.73707749 -3.03619533  1.40286835
  H -1.06342060 -1.47608054 -2.53666372
  H -2.73467630 -1.59066781 -1.89207270
  H -1.73852389 -3.03008506 -2.12429240
  H  2.02173695 -3.33922203  1.53732564
  H  3.14932603 -1.99651262  1.61654166
  H  3.70863242 -3.54837547  0.96084882
