65
opt_min/./Product_2680_opt.xyz
  C  1.79203742  3.99322167 -1.54126031
  O  1.23944827  3.03214939 -0.65029377
  C  1.91708868  2.84960376  0.49006094
  O  2.91861638  3.44734933  0.76678395
  C  1.18374318  1.87459036  1.42816945
  C  2.13741350  1.47963805  2.44689228
  N  2.84862680  1.34115714  3.32992662
  C  0.66057700  0.70042095  0.55214368
  C -0.42947526  0.28689083 -0.15290392
  C -1.99056092  0.52945610 -0.14862986
  C -2.59646383  0.07274428 -1.49549704
  C -2.38167901  1.01724684 -2.65903237
  O -3.28036343 -0.90876725 -1.62179459
  C -2.52345641 -0.30728431  1.05065421
  C -3.96244917 -0.73577729  1.03904341
  O -1.81495666 -0.55865995  1.99124951
  C -2.74446252  1.92666087 -0.00262246
  C -2.52782076  2.70402836  1.31452884
  C -1.04456596  2.44361399  1.39792394
  C  0.16110322  2.78458530  2.22376838
  C -0.01975749 -1.01011813 -0.90709614
  C -0.63799905 -2.26313502 -0.26787471
  C -0.19811926 -1.07890314 -2.43089649
  O  1.39318033 -1.07700103 -0.77547517
  C  1.81372018 -0.28362661  0.30903350
  C  1.95692779 -1.23721536  1.52662234
  C  2.79591875 -2.45232007  1.24098895
  O  1.38320316 -1.05215239  2.56530249
  C  3.12559540  0.36671147 -0.09530448
  C  4.24583012  0.40905054  0.72268452
  C  5.40254520  1.03043950  0.28420840
  C  5.46340638  1.59188723 -0.97788640
  C  4.36172007  1.51917430 -1.81300637
  C  3.20104987  0.91114763 -1.37355746
  H  1.68110479  4.99697524 -1.12675066
  H  2.85280098  3.78906305 -1.69592376
  H  1.23897392  3.90288038 -2.47268132
  H -1.46438300  1.58941390 -2.56063702
  H -3.22505771  1.70364241 -2.71164314
  H -2.37622590  0.44860193 -3.58534543
  H -4.04164589 -1.63631957  0.43144931
  H -4.63395894  0.00352233  0.61731543
  H -4.25961950 -0.97512127  2.05741833
  H -3.80434506  1.72639987 -0.17251408
  H -2.39999895  2.58243819 -0.80003469
  H -2.82327216  3.74519995  1.18190942
  H -3.08039305  2.27899866  2.15129813
  H -1.06044467  1.38131777  1.59269252
  H -0.70033801  2.65807568  0.38565042
  H  0.08791613  2.45343000  3.25950041
  H  0.49293811  3.82410046  2.20374155
  H -0.46830951 -2.27014105  0.80553766
  H -1.70480851 -2.31672439 -0.46246734
  H -0.15778215 -3.13586686 -0.70541273
  H -1.18240770 -1.40619499 -2.73474639
  H  0.52119937 -1.82082610 -2.77456075
  H  0.05754953 -0.13428929 -2.90041593
  H  3.71016615 -2.39020302  1.82848819
  H  2.25910901 -3.34131451  1.56518567
  H  3.04224846 -2.51962876  0.18642184
  H  4.21970515 -0.01913471  1.71123983
  H  6.26007775  1.07363294  0.93778475
  H  6.36664211  2.07942261 -1.31319982
  H  4.40655689  1.93557936 -2.80984660
  H  2.34059801  0.84611236 -2.02291826
