43
opt_min/./Product_733_opt.xyz
  C -1.20616683 -2.47608046  1.56064279
  O -0.74580955 -2.07931940  0.29266070
  C -0.85560412 -0.72656436 -0.09345742
  C  0.02462115  0.29350398  0.67214676
  C -0.94585693  1.45466666  0.93761357
  C -1.42156557  2.11089977 -0.36380173
  C -2.36285248  1.05258522 -0.97840477
  C -2.27617840 -0.10305651  0.02080372
  C -2.19276942  0.66909269  1.34405930
  C  1.22340190  0.53240943 -0.25312390
  C  1.89878876  1.87741550 -0.01135257
  N  2.10184532  2.61818111 -1.10859855
  C  2.82845155  3.86724189 -1.07447889
  O  2.26956436  2.18824682  1.10562559
  C  2.31519559 -0.55597833 -0.00105557
  O  2.65805653 -1.28552107 -0.90512840
  N  2.77946508 -0.58751464  1.25452192
  C  3.82305675 -1.50802496  1.64793744
  N  0.66168955  0.35442249 -1.58492205
  N -0.30500531 -0.69410115 -1.43045545
  C -0.48912173 -1.62401143 -2.33089921
  N -0.69203762 -2.39104577 -3.16155198
  H -2.27557152 -2.28224993  1.68612983
  H -1.03108888 -3.54992221  1.59768416
  H -0.64928332 -1.99196029  2.37107759
  H  0.35639533 -0.09544880  1.63576021
  H -0.55320917  2.17016234  1.66042873
  H -1.95952333  3.02958063 -0.12286644
  H -0.60101629  2.35825142 -1.03120333
  H -2.05135829  0.75102505 -1.97616275
  H -3.38630025  1.42191295 -1.04441934
  H -3.06942618 -0.84196804 -0.07739800
  H -3.06311916  1.30342696  1.50344060
  H -2.04125627  0.04220192  2.21866670
  H  1.71757419  2.31515128 -1.99045698
  H  3.43709931  3.87634829 -0.17087785
  H  3.46775445  3.94749938 -1.95168663
  H  2.14352001  4.71820097 -1.04595150
  H  2.61385100  0.22561571  1.83749364
  H  4.81676536 -1.09437154  1.45512614
  H  3.72561777 -1.73279246  2.70834768
  H  3.70444780 -2.41831967  1.06138200
  H  1.37822245  0.03362904 -2.24263008
