36
opt_min/./Product_539_opt.xyz
  C  3.36362012  1.61815177  0.72921894
  C  1.90408789  1.36729490  0.72242915
  C  1.04853712  1.01643312  1.68510226
  C  1.23169381  0.75425273  3.13418898
  F  2.44308963  1.10257722  3.59239523
  F  0.33144900  1.40326733  3.88924577
  F  1.08357092 -0.55710205  3.42154065
  C -0.29568900  0.81893759  0.99732268
  C -0.18151669 -0.55442811  0.25798033
  C  0.85713787 -0.19402504 -0.82129236
  C  1.05353958  1.33627844 -0.53676541
  O -0.21418887  1.74157921 -0.06633915
  C  0.15460980 -0.48945530 -2.15887550
  C  0.53846837  0.41388891 -3.22410306
  N  0.86106943  1.09681504 -4.08172969
  N -1.25068370 -0.36291761 -1.83113150
  C -1.45643198 -0.96241026 -0.52511015
  C -2.70116017 -0.37824129  0.16198775
  C -3.27892985  0.84475938 -0.47463093
  O -3.11824194 -0.85961282  1.18552507
  C -1.58382370 -2.49999067 -0.56768181
  H  3.68188500  2.03333228  1.68303582
  H  3.63247850  2.30160374 -0.07403002
  H  3.89882942  0.67959804  0.57435128
  H -1.17758907  0.95865775  1.61267457
  H  0.10827190 -1.33069782  0.95860010
  H  1.80944150 -0.71495652 -0.75349776
  H  1.37980224  1.93501801 -1.38155643
  H  0.45217240 -1.50527127 -2.49941925
  H -1.85975510 -0.72573254 -2.55474544
  H -4.03731185  1.28229081  0.16797945
  H -3.70877737  0.59271075 -1.44210491
  H -2.46533633  1.54877295 -0.66069470
  H -0.60216964 -2.96966341 -0.61092164
  H -2.10796020 -2.84491621  0.32040992
  H -2.15050572 -2.79221247 -1.45275450
