30
opt_min/./Product_448_opt.xyz
 Cl  1.80646462  0.96147915 -1.67605948
  C  0.57611029  0.67768320 -0.40712722
  C -0.05344388 -0.74315995 -0.44291892
 Cl  0.66629736 -1.79381694 -1.68551257
  C  0.22629314 -1.27144507  0.97605816
  C  1.72496768 -1.56592280  1.12297556
  C  2.36335383 -0.16112793  1.11860898
  C  1.15226213  0.77755011  1.01099178
  C  0.11945734 -0.00380216  1.82773363
  C -1.55443613 -0.48640789 -0.81476633
  C -2.17988084 -1.45182185 -1.82589513
  C -2.40903004 -0.55052594  0.37149827
  N -3.12263876 -0.66878811  1.25616974
  O -1.58571846  0.81321666 -1.38709248
  C -0.62574193  1.62411064 -0.73668580
  C -0.25884376  2.73490184 -1.61831440
  N -0.01528458  3.62368356 -2.28975031
  C -1.20205117  2.28677720  0.43812619
  N -1.67241030  2.85301653  1.31114387
  H -0.42069974 -2.10157496  1.25427198
  H  2.10970804 -2.19693366  0.32576786
  H  1.89729540 -2.07535804  2.07032466
  H  3.05775446 -0.02906428  0.29209132
  H  2.89966932  0.03772608  2.04622735
  H  1.35067003  1.80184134  1.32276422
  H  0.45890230 -0.17344376  2.84776908
  H -0.86815091  0.44038996  1.86171885
  H -2.06060490 -2.47970545 -1.49148140
  H -1.70807838 -1.31919425 -2.79685144
  H -3.24000688 -1.22327711 -1.91989415
