43
opt_min/./Product_588_opt.xyz
  C -0.94322869 -1.57363455  2.29795073
  O -1.41524255 -1.93220263  1.02320586
  C -1.31430013 -0.95921395 -0.00910718
  O -1.91822220 -1.53297133 -1.14726839
  C -3.25286834 -1.98478584 -1.00568213
  C  0.12402478 -0.78995901 -0.44349216
  C  0.68414406  0.14960185 -1.20080973
  C  0.09142814  1.43167228 -1.69499748
  C  0.68359406  1.83109310 -2.95342145
  N  1.11927326  2.18965026 -3.94634086
  C  0.24243497  2.57013603 -0.65920256
  C -0.95433600  2.69210573  0.27843357
  C -1.21696649  1.43220702  1.11258990
  C -2.03662231  0.35381887  0.38738043
  C  2.11338990 -0.23022641 -1.48977740
  C  3.08917911  0.79679588 -0.87340959
  O  3.32635027  1.86347901 -1.39311499
  N  3.56673084  0.40943283  0.32788180
  C  4.62868788  1.14659497  0.97539755
  O  2.28847893 -1.51499107 -0.91325633
  C  1.07956819 -1.94283972 -0.30592608
  H -1.65707357 -0.93545427  2.83019487
  H -0.82854360 -2.51050400  2.84202403
  H  0.02273472 -1.06304638  2.25327886
  H -3.36396947 -2.60223053 -0.11368053
  H -3.44802862 -2.58233948 -1.89347864
  H -3.95945211 -1.14890888 -0.96849256
  H -0.97169780  1.26053307 -1.89653690
  H  0.39648648  3.51410901 -1.18597526
  H  1.13956731  2.38552378 -0.06527466
  H -1.85254039  2.95964315 -0.28181367
  H -0.74480153  3.51877718  0.96166341
  H -1.76626771  1.73112567  2.00812376
  H -0.25701525  1.03506551  1.44460280
  H -2.88579357  0.05608302  1.00751759
  H -2.45892697  0.77044337 -0.52840934
  H  2.31061887 -0.25794218 -2.57087147
  H  3.50204808 -0.58112644  0.52362233
  H  4.37695589  2.20623148  0.95206475
  H  5.58452801  1.01293124  0.46184404
  H  4.71979786  0.81187233  2.00612005
  H  1.28106009 -2.23619067  0.73092739
  H  0.67919054 -2.81959312 -0.83312072
