51
opt_min/./Product_832_opt.xyz
  C -3.68365900  2.28574000  1.52175200
  N -2.75769287  1.49696722  0.74575571
  C -1.51185751  1.20763251  1.19682930
  O -1.12237873  1.64107542  2.26139520
  C -0.69163094  0.37684639  0.20710361
  C  0.61778557 -0.30546822  0.75339502
  C  1.04750555 -0.01013231  2.18687860
  C  0.32676392 -1.80947503  0.54503143
  C -0.76503404 -2.28945549  1.50832594
  C -2.02754321 -1.59497212  0.96740480
  C -1.50647424 -0.85042102 -0.27425843
  C -0.43454969 -1.81350231 -0.77548522
  C  1.72423197  0.18106861 -0.23029209
  C  2.73360239 -0.91153344 -0.56517174
  N  3.71048494 -1.03068517  0.36641588
  C  4.74067965 -2.03705561  0.28531660
  O  2.69980874 -1.60115788 -1.56156208
  N  1.00414158  0.61845315 -1.39948662
  C  1.78537751  1.18970097 -2.46666821
  C -0.18788726  1.31968445 -0.93545088
  C  0.12291841  2.72066747 -0.35720985
  C -1.14888224  1.48781475 -2.11218804
  H -4.37352287  1.65216179  2.08650382
  H -3.10416350  2.88047147  2.22620636
  H -4.25548694  2.94269521  0.86808732
  H -3.09613970  1.08010396 -0.10316194
  H  0.22964938 -0.12874342  2.88670888
  H  1.41169733  1.00749010  2.29234016
  H  1.84461377 -0.69844918  2.46928811
  H  1.22376635 -2.42471404  0.58704809
  H -0.85117267 -3.37381305  1.43179003
  H -0.56564184 -2.04720067  2.54843480
  H -2.46752561 -0.92393619  1.70392071
  H -2.78909234 -2.32052438  0.68028913
  H -2.29554432 -0.62201644 -0.98793708
  H -0.83662576 -2.79186344 -1.02684550
  H  0.15135361 -1.42650249 -1.60340678
  H  2.28779993  1.00983099  0.23973067
  H  3.69217632 -0.44157643  1.18274505
  H  4.68579301 -2.71987144  1.13597140
  H  5.72975300 -1.57598095  0.25982682
  H  4.57683765 -2.59347388 -0.63513044
  H  1.25054375  1.07165105 -3.40872561
  H  2.03008721  2.25400235 -2.33322123
  H  2.71696107  0.63723125 -2.54982878
  H -0.74869793  3.36530428 -0.43076104
  H  0.92905278  3.19187084 -0.91420753
  H  0.41588570  2.66915795  0.68640176
  H -2.08963587  1.92904516 -1.79536525
  H -1.33131661  0.53594687 -2.60165185
  H -0.70267212  2.16232236 -2.83916920
