32
opt_min/./Product_326_opt.xyz
  C -0.20495600 -2.51789200 -0.31625200
  C  0.18970774 -1.09898335 -0.16851634
  C  1.38648930 -0.52595661 -0.32480842
  C  2.68841472 -1.18045336 -0.63808735
  F  2.57819281 -2.19883604 -1.50584593
  F  3.57020425 -0.32938955 -1.16928833
  F  3.27010201 -1.69805805  0.46580777
  C  1.31572818  0.95378673 -0.08237370
  C  2.27998447  1.39823203  1.05308537
  C  1.91570860  0.91999160  2.41800506
  O  3.24241789  2.06211957  0.78682456
  O -0.04357451  1.19362698  0.22249078
  C -0.80919432  0.00186570  0.13323448
  C -1.89580520  0.12719772 -0.96233304
  C -2.16477165  1.52040696 -1.42520386
  O -2.50620105 -0.83790910 -1.34468207
  C -1.51288428 -0.24664182  1.50555377
  C -2.55993988 -1.31588454  1.56819944
  O -1.20110530  0.42408334  2.44872019
  H  0.62858214 -3.11657608 -0.66980920
  H -0.54384715 -2.92065209  0.63452164
  H -1.02622983 -2.58651003 -1.03015677
  H  1.60394520  1.52155230 -0.98236824
  H  2.48186658  1.47061023  3.16438536
  H  2.17536458 -0.13659397  2.49217181
  H  0.84741859  1.02362966  2.59052608
  H -2.77640766  2.00737124 -0.66544933
  H -2.71696902  1.50102035 -2.36114001
  H -1.24465984  2.08762235 -1.51839759
  H -2.81326275 -1.72667210  0.59832973
  H -2.20340826 -2.11206732  2.22123077
  H -3.44754650 -0.89982683  2.04181583
