47
opt_min/./Product_5724_opt.xyz
  O  1.25100886 -2.56814136 -2.60577934
  C  0.21534149 -2.92126925 -2.27624871
  O -0.80908746 -3.28555889 -1.91873422
  C  0.26769657 -0.92811894  0.46542412
  C -0.84588437 -0.77852912  1.16319188
  C -3.46215675 -1.71399141 -1.28282539
  O -3.02284489 -1.52913465 -2.32201651
  O -3.91758818 -1.93062661 -0.25548495
  C -1.16133274  0.67243952  1.38768052
  C -1.09480633  1.13452912  2.85677026
  C -0.41413255  0.18544658  3.80424606
  O -1.46670314  2.23299450  3.18125692
  C -2.48342455  0.99871749  0.71593416
  C -3.65000581  1.09471992  1.46328305
  C -4.85793513  1.36009406  0.84328818
  C -4.91650713  1.52996669 -0.52886803
  C -3.76136012  1.41352502 -1.28205936
  C -2.55356770  1.13732964 -0.66510029
  N  0.03192774  1.34082701  0.86479536
  C -0.02876954  2.72312550  0.46925770
  C  0.88536467  0.41451084  0.14044664
  C  0.82571508  0.62092732 -1.30234481
  N  0.73930674  0.80945612 -2.42732558
  C  2.34240992  0.46935723  0.58426286
  C  2.70812575  1.14406386  1.73907401
  C  4.03186722  1.15257748  2.14322298
  C  4.99231954  0.48755290  1.40086217
  C  4.62717951 -0.18849611  0.24870379
  C  3.30564255 -0.19971213 -0.16017086
  H  0.72973541 -1.84384551  0.14520938
  H -1.50138075 -1.55779838  1.50761179
  H -1.06205898 -0.67293569  3.97380648
  H  0.51740571 -0.17576377  3.37579648
  H -0.22314347  0.68319631  4.75186170
  H -3.61941403  0.96711883  2.53449501
  H -5.75659035  1.43515530  1.43703947
  H -5.85867625  1.74524989 -1.01045340
  H -3.79490996  1.52980981 -2.35509999
  H -1.66792208  1.02005541 -1.27191953
  H -0.54956076  3.27638186  1.25100685
  H  0.98849650  3.10815989  0.38422415
  H -0.54758543  2.89405786 -0.48225860
  H  1.95787553  1.66386945  2.31516339
  H  4.31159595  1.68180624  3.04203893
  H  6.02428267  0.49703225  1.71836106
  H  5.37198477 -0.70778883 -0.33524402
  H  3.02274575 -0.72316330 -1.06296730
