38
opt_min/./Product_1474_opt.xyz
  C  0.82783258  3.55553935  0.26898584
  C  0.87871494  2.25864178  1.02312322
  O  1.52646859  2.06943707  2.01768120
  C  0.02444333  1.17904445  0.44016323
  C -1.22505141  0.85376020  0.75724282
 Br -2.32379346  1.84856161  1.91492639
  C -1.70570789 -0.36563983  0.00178197
  C -2.97478898  0.02730925 -0.80406127
  C -2.73789949  0.32713088 -2.24853971
  O -4.05286686  0.09647901 -0.27775056
  C -2.00481235 -1.57945366  0.91719393
  C -3.01586611 -1.42229896  1.99596411
  O -1.40444817 -2.60531258  0.70576732
  N -0.59273189 -0.64252764 -0.88372771
  C  0.57106081  0.18210838 -0.57209913
  C  0.90458838  0.88628840 -1.80703831
  N  1.08241903  1.43368518 -2.79520913
  C  1.80936264 -0.49725420 -0.00566419
  C  1.72019271 -1.69097358  0.69441194
  C  2.86003764 -2.25333921  1.24108201
  C  4.08553582 -1.62465769  1.11184422
  C  4.17323044 -0.42859286  0.42016535
  C  3.04009917  0.13483795 -0.13708780
  H  0.82367952  3.38727946 -0.80580242
  H  1.66424609  4.18772186  0.55501563
  H -0.09894773  4.06368310  0.53560083
  H -2.75982109 -0.61533628 -2.79580800
  H -1.76828356  0.78459329 -2.41795318
  H -3.53990311  0.95953180 -2.61966006
  H -3.30566156 -2.40419049  2.36258385
  H -2.58109234 -0.86040379  2.82216990
  H -3.88443727 -0.87431350  1.63504331
  H -0.39748543 -1.63014941 -0.99679449
  H  0.77421683 -2.19643955  0.81557940
  H  2.78152419 -3.18692143  1.77781785
  H  4.96985266 -2.06257977  1.54800199
  H  5.12427867  0.07134179  0.31838372
  H  3.11157302  1.06442411 -0.68457221
