45
opt_min/./Product_1312_opt.xyz
  C -2.61964700 -0.83614400 -2.43260800
  O -1.77306457 -0.46153578 -1.35084580
  C -1.86190671 -1.19080334 -0.23705886
  O -2.61203620 -2.11835348 -0.09419900
  C -0.87347201 -0.68091751  0.81578624
  O -1.00905485 -1.29701948  2.05118839
  C -2.29542621 -1.28461129  2.66042775
  C  0.56823874 -0.97730026  0.26018284
  O  1.40977581 -1.07694077  1.37869999
  C  2.79887421 -1.11811904  1.10473784
  O  0.64731861 -2.08110067 -0.58310978
  C  0.43506342 -3.33980612  0.04706100
  C  0.84325031  0.32387789 -0.49762192
  C  1.89938502  0.52764676 -1.53178234
  O  2.47475370 -0.61863279 -1.89292554
  C  3.46652508 -0.51829803 -2.90519915
  O  2.19279246  1.60023332 -1.99091884
  N  0.11834395  1.29412632 -0.13977647
  C -0.87301350  0.90372251  0.82037138
  C -0.49326896  1.47030316  2.19639796
  C -2.22871966  1.47758490  0.40294399
  O -3.27032334  1.14051673  0.91095478
  O -2.10720964  2.38167724 -0.54809653
  C -3.29076698  3.01177921 -1.02395663
  H -2.11078941 -1.58175805 -3.04538170
  H -2.80007396  0.06706818 -3.01060056
  H -3.55354388 -1.25122289 -2.05014142
  H -2.11127654 -1.52231564  3.70524607
  H -2.77508127 -0.30940960  2.57438896
  H -2.94539203 -2.03916958  2.21511949
  H  3.02354389 -1.81109609  0.29064257
  H  3.17901449 -0.12381728  0.84609098
  H  3.26341553 -1.45843005  2.02765364
  H  1.16325002 -3.50536868  0.84377160
  H  0.56717829 -4.07691805 -0.74157498
  H -0.56992086 -3.41210187  0.46480629
  H  3.02261625 -0.14900008 -3.83193641
  H  4.25474022  0.17181814 -2.59686742
  H  3.86094503 -1.52092244 -3.04342068
  H  0.07534010  2.38574619  2.05165024
  H  0.11764186  0.74006310  2.72196193
  H -1.38214234  1.68892075  2.78257184
  H -3.24387507  3.01389836 -2.11161780
  H -4.17275653  2.47026312 -0.67710975
  H -3.31383822  4.03734438 -0.65386196
