36
opt_min/./Product_3659_opt.xyz
  N -2.00507600  0.69494200  0.31623100
  C -0.95346398 -0.23834666 -0.06475243
  N -1.00715457 -0.32974651 -1.50568698
  N -1.19511010 -1.52526142  0.63300251
  C -2.39899410 -2.26005555  0.30092531
  C  0.38234481  0.22402453  0.49227305
  C  0.40273097  0.40638753  1.97831764
  C  1.62015052 -0.07698240 -0.17137834
  C  2.63054244 -0.79318522  0.50291944
  C  3.82130431 -1.10414069 -0.11564112
  C  4.06905008 -0.69710249 -1.41866055
  C  3.10744704  0.04629618 -2.08618682
  C  1.90720962  0.35676924 -1.47935605
  O  0.10064603  2.28036329 -0.11119504
  C -1.06141598  2.65958293 -0.09699286
  C -1.85051564  2.94257649 -1.34753011
  H -2.28670760  0.56518614  1.27903132
  H -2.79243052  0.60899603 -0.31279310
  H -0.08974301 -0.49112466 -1.89969023
  H -1.62300067 -1.07789116 -1.80274572
  H -0.37803626 -2.11760616  0.51965685
  H -2.42255573 -2.68360332 -0.71557741
  H -3.26452987 -1.60792286  0.41765004
  H -2.49343549 -3.08332414  1.00857406
  H -0.34639298  1.14252702  2.26406998
  H  1.37595149  0.76458831  2.29828088
  H  0.15939618 -0.52697844  2.48918958
  H  2.44845831 -1.14648310  1.50829527
  H  4.56912739 -1.67238899  0.42122587
  H  5.00902771 -0.93580243 -1.89218624
  H  3.30329419  0.39787274 -3.08950429
  H  1.21564581  1.01807646 -1.97370393
  H -1.51528776  3.05925907  0.82571243
  H -1.56612285  3.93181851 -1.70817461
  H -1.61677699  2.20976461 -2.11605695
  H -2.91915370  2.94874322 -1.14819478
