52
opt_min/./Product_4997_opt.xyz
  C  5.74469700  1.35696800  1.23285700
  C  4.70093013  0.63088628  0.43945176
  C  5.24235472 -0.38046043 -0.52971283
  C  3.39884133  0.88756419  0.61270944
  C  2.29785771  0.25291705 -0.06952782
  C  1.02589378  0.57468042  0.17032190
  C -0.13389501 -0.04794890 -0.55769423
  C -0.11876706  0.55978092 -1.97738827
  C  0.02478499 -1.57877446 -0.68606483
  C -1.42678199 -2.04471133 -0.80136073
  C -1.64171716 -3.55187070 -0.78925865
  N -2.09463127 -1.29887222  0.26853651
  C -1.92610417 -1.89163394  1.58972617
  C -1.57430640  0.07479501  0.13072641
  C -1.73128585  0.77562741  1.49554549
  C -3.16534617  0.82881528  1.97351567
  O -0.86242845  1.32771512  2.12136114
  C -2.51420940  0.92569797 -0.71709011
  C -2.28975842  2.29555359 -0.81365011
  C -3.14591221  3.09636937 -1.54625999
  C -4.24260019  2.54365789 -2.18552731
  C -4.48609802  1.18601524 -2.07308650
  C -3.63416297  0.38354127 -1.33514283
  H  6.47060039  0.65454362  1.64153025
  H  5.30340622  1.92384732  2.04719752
  H  6.28983363  2.04980992  0.58843377
  H  6.24587389 -0.10129589 -0.84128778
  H  4.61675536 -0.46431630 -1.41378539
  H  5.29727707 -1.36094545 -0.05546380
  H  3.11337254  1.63609564  1.34066576
  H  2.53978888 -0.52147741 -0.78283665
  H  0.81492655  1.33573017  0.90129660
  H -0.11925491  1.64610092 -1.93320283
  H  0.79252387  0.25187012 -2.48229417
  H -0.97044283  0.24752250 -2.57605210
  H  0.64445078 -1.87364179 -1.52868821
  H  0.45986777 -1.98855469  0.22747145
  H -1.84270225 -1.65923615 -1.73619762
  H -1.46693606 -3.94487976 -1.78591096
  H -0.95810809 -4.05413269 -0.10820179
  H -2.66260084 -3.78301855 -0.49857097
  H -1.24838618 -1.32066184  2.22838530
  H -2.89707375 -1.94994037  2.08759532
  H -1.52922880 -2.89949408  1.51744201
  H -3.19115111  0.59959864  3.03696498
  H -3.81542310  0.16011011  1.42280137
  H -3.51652035  1.85205700  1.85191195
  H -1.44569517  2.73718884 -0.30341969
  H -2.95936653  4.15826232 -1.61340118
  H -4.91041175  3.17077270 -2.75738432
  H -5.34714871  0.74938711 -2.55783491
  H -3.83748337 -0.66947998 -1.22231666
