60
opt_min/./Product_2681_opt.xyz
  C  3.54303117  0.95461125 -3.25911784
  N  2.89390931  0.67631120 -1.99991365
  C  1.55341030  0.71564472 -1.86571066
  O  0.78315909  0.83194677 -2.79268001
  C  1.11589731  0.48362175 -0.40835838
  C  1.72892992  1.61035004  0.45602181
  O  1.87370234  2.72818441 -0.00084448
  N  2.12445327  1.25046364  1.68643479
  C  2.55628818  2.23908902  2.64769103
  C -0.39147569  0.51937528 -0.24476501
  C -1.26360941 -0.45417392  0.10837723
  C -1.24757887 -1.98404552  0.42647993
  C -2.55564333 -2.54109450 -0.21982892
  C -2.59071302 -2.47479899 -1.72549744
  O -3.43861489 -3.02706735  0.42986105
  C -1.37898648 -2.16653098  1.95722088
  F -0.35352357 -1.60305950  2.62801549
  F -1.36317311 -3.45880238  2.31607566
  F -2.48293430 -1.64610925  2.47903789
  C -0.19478901 -3.07936672 -0.07307706
  C  1.26932191 -3.22533291  0.45329423
  C  2.26449203 -2.13237910 -0.02825578
  C  1.30162344 -0.96787933  0.00669665
  C -2.65945100  0.19296018  0.13958908
  C -3.12150054  0.61769712  1.45819917
  N -3.52229009  1.14610272  2.39043064
  N -2.46497777  1.39039053 -0.63993992
  C -3.54032213  2.20983556 -1.10348100
  C -1.11063459  1.82191626 -0.45825193
  C -0.98229155  2.67528115  0.82358151
  O -1.47691945  3.88802323  0.62849434
  C -1.51673622  4.73663348  1.77029985
  O -0.57835190  2.26277254  1.88108671
  H  4.48100250  0.40555397 -3.31664387
  H  2.87690193  0.63787175 -4.06037266
  H  3.74061585  2.02371073 -3.37316986
  H  3.47005860  0.66047513 -1.17364570
  H  1.84346463  0.35825126  2.06011122
  H  3.27283251  1.79124969  3.33365713
  H  1.70219245  2.62475973  3.20870637
  H  3.02046792  3.06061229  2.10395273
  H -2.02095836 -1.63546097 -2.11603855
  H -3.62732816 -2.41471871 -2.05048296
  H -2.18292241 -3.40059574 -2.12875885
  H -0.67729006 -4.02446723  0.20041087
  H -0.15516157 -3.05000244 -1.16205367
  H  1.25884258 -3.23802590  1.54340417
  H  1.60136932 -4.21138486  0.12417422
  H  2.61896089 -2.34211528 -1.03861253
  H  3.12266137 -2.06387752  0.63883308
  H  0.90329196 -0.99609305  1.02006819
  H  0.57011397 -1.35762010 -0.68759009
  H -3.44395085 -0.43087246 -0.30793421
  H -3.11914572  3.01716546 -1.69824698
  H -4.13186494  2.65050378 -0.28810801
  H -4.20546596  1.61443437 -1.73473145
  H -0.74634279  2.41278700 -1.30173124
  H -0.50166406  4.93595556  2.11895264
  H -2.08252587  4.25661138  2.57164133
  H -1.99932743  5.65545909  1.44911304
