61
opt_min/./Product_2689_opt.xyz
  C -1.94178400 -3.92310400 -0.27580000
  N -1.42204313 -2.59210150 -0.07116251
  C -1.62773655 -1.92416266  1.07772329
  O -2.31332630 -2.37493456  1.97168688
  C -1.00732280 -0.51601441  1.18571478
  C  0.42110371 -0.25200529  0.60541172
  C  0.94254182 -1.06523236 -0.54963160
  C  1.97905150 -1.97813439 -0.40695729
  C  2.45419235 -2.68708611 -1.49895230
  C  1.90260637 -2.50101476 -2.75340776
  C  0.86389808 -1.59769228 -2.90941265
  C  0.38300842 -0.89082497 -1.82130427
  C  1.24841629 -0.35536880  1.92892927
  C  1.04741689 -1.68727351  2.62731715
  C -0.16170600 -1.62985431  3.16812234
  C -0.70119792 -0.28124482  2.72257020
  O  0.47281217  0.50518751  2.75025288
  C  0.34663840  1.26175710  0.19003877
  C  0.84614720  2.34213015  1.21899821
  N  2.16647830  2.42635681  1.41845788
  C  2.74776537  3.40768665  2.30308698
  O  0.04680012  3.13727351  1.67069184
  C  1.13087840  1.59644355 -1.08126466
  O  0.71627137  2.26738087 -1.97940167
  O  2.40533253  1.14967587 -1.00676672
  C  3.25175081  1.41871582 -2.11934663
  N -1.04960262  1.55193992 -0.03858359
  C -1.93289226  0.53789408  0.50508650
  C -2.99134851  1.10771521  1.48112186
  C -3.19489262  2.59245603  1.46899781
  O -3.62659284  0.37786797  2.19807161
  C -2.78694702 -0.00709520 -0.67961003
  C -3.94484410 -0.91736036 -0.38250648
  O -2.56150723  0.38954542 -1.79290978
  H -2.40945778 -3.99671976 -1.25733450
  H -2.67730833 -4.12076677  0.50248000
  H -1.14096124 -4.66300992 -0.20644082
  H -0.88609354 -2.18329736 -0.82106349
  H  2.44265476 -2.13367699  0.55175213
  H  3.26581323 -3.38706692 -1.36488887
  H  2.28192366 -3.05275181 -3.60015772
  H  0.42096150 -1.43602225 -3.88045157
  H -0.43148952 -0.19749950 -1.97124198
  H  2.28099606 -0.02699195  1.84915382
  H  1.73747846 -2.50753070  2.61734861
  H -0.65106494 -2.30413438  3.83884122
  H -1.50806121  0.15424851  3.29874335
  H  2.78724875  1.77942226  0.95887510
  H  3.41146561  2.92501743  3.02099260
  H  1.93508531  3.89723190  2.83596091
  H  3.30907725  4.15259077  1.73489875
  H  3.41996485  0.48716295 -2.66136733
  H  2.77619486  2.15033986 -2.77411087
  H  4.19424626  1.80701881 -1.73594660
  H -1.23323783  2.45763485  0.38327063
  H -2.37597002  3.06945278  2.01088215
  H -4.12744000  2.81852249  1.98261864
  H -3.22230803  2.98598779  0.45571480
  H -4.03855819 -1.17389485  0.66577399
  H -4.85188114 -0.40442303 -0.70638543
  H -3.85734518 -1.81644436 -0.98797215
