49
opt_min/./Product_4890_opt.xyz
  C -0.07039600 -2.25622000  1.16775500
  C -0.51528221 -1.13638924  0.22907052
  C -0.36717809 -1.55893104 -1.23193999
  C  0.19078224  0.18164608  0.61546725
  C  1.66414634  0.38333856  0.46895613
  C  2.59960489 -0.42795726 -0.02016087
  C  4.02460450 -0.13701212 -0.06954898
  C  4.55599760  1.10123041  0.59347900
  C  4.84498607 -0.95849765 -0.72721439
  C -0.69240987  1.28911493 -0.03131835
  C -0.73518344  2.52875457  0.89878124
  C -1.48175559  3.72279387  0.37535286
  O -0.23969687  2.51023679  1.99891623
  C -0.18324349  1.72318579 -1.41599101
  C  1.05210507  2.58728677 -1.42548644
  O -0.73940012  1.41018045 -2.44005246
  N -2.01010059  0.69233796 -0.00400525
  C -3.13374354  1.25751976 -0.70014624
  C -1.98365918 -0.67440922  0.47847230
  C -2.99931038 -1.63443651 -0.11677151
  C -3.48833180 -2.68138044  0.85438816
  O -3.39602404 -1.59315246 -1.25504622
  H -0.47992734 -2.12091191  2.16731680
  H  1.01416400 -2.25580382  1.25384941
  H -0.38029313 -3.22798120  0.78843624
  H  0.66857527 -1.73493522 -1.49848825
  H -0.91428175 -2.48430425 -1.40889069
  H -0.77019330 -0.80429393 -1.89941864
  H  0.01243961  0.30353263  1.69827966
  H  1.97499647  1.32256338  0.90926815
  H  2.33292891 -1.38817119 -0.43446614
  H  5.61753875  0.98753373  0.80785163
  H  4.43439124  1.96038210 -0.06678848
  H  4.03567795  1.30914539  1.52493175
  H  4.48191217 -1.84238806 -1.22574778
  H  5.90317509 -0.77303052 -0.78969432
  H -1.15322282  4.61740492  0.90376097
  H -2.54328192  3.58501661  0.57382343
  H -1.34978596  3.84366498 -0.69665428
  H  0.96890897  3.31840314 -2.23041164
  H  1.90777256  1.95036676 -1.64756637
  H  1.22328669  3.08961146 -0.47904689
  H -3.71022610  0.48163075 -1.20177491
  H -2.80588477  1.95259933 -1.47145404
  H -3.80275570  1.78625323 -0.00326472
  H -2.16333259 -0.66091650  1.57079093
  H -4.23283819 -2.22145592  1.50504628
  H -3.96240667 -3.49229997  0.30596816
  H -2.68322102 -3.06346365  1.47434113
