23
opt_min/./Product_3738_opt.xyz
  O -3.15324186  0.48551357  2.24620890
  C -2.75687075 -0.37172238  1.60319681
  O -2.34950941 -1.22598210  0.96002888
  C -1.45195828  1.50929320 -0.31001517
  C -0.25706229  1.31175535  0.25010015
  C  0.30121443 -2.33590141  1.42762702
  O  0.49050138 -2.64097633  0.34369807
  O  0.12597480 -2.03410099  2.51889059
  N  0.56534782  0.63121720 -0.65478225
  C  1.84955593  0.20151029 -0.51952151
  O  2.26052866  0.37694540  0.75646842
  C  3.59189116 -0.03137159  1.04728239
  O  2.51103216 -0.22586314 -1.42814034
  N -0.13468521  0.45378338 -1.88508664
  N -1.44114374  0.98430064 -1.61660143
  C -2.50735453  0.50379666 -2.22295416
  N -3.46937511  0.20791543 -2.77495271
  H -2.33198628  1.99185557  0.06056505
  H  0.12022577  1.58090945  1.21338535
  H  4.08791867  0.79168010  1.56026474
  H  3.55750503 -0.90799574  1.69575020
  H  4.11541762 -0.27632756  0.12174258
  H  0.32501385  1.00153582 -2.62755967
