37
opt_min/./Product_4418_opt.xyz
  C -2.17332400 -0.68477500  0.56652200
  C -2.36484219 -1.94653980 -0.21666642
  C -1.25585841 -2.57030866 -0.60961222
  N -0.01275523 -2.00386898 -0.38319801
  C  1.14355604 -2.80563061 -0.70284980
  C  0.07863321 -0.58552502 -0.67315797
  C -1.13791204  0.22638399 -0.11179368
  C -1.64879197  1.05193562 -1.31279585
  N -2.84069273  0.67213063 -1.81617848
  O -0.98699070  1.94691457 -1.78708631
  N -0.53569766  1.11704479  0.87430253
  C -0.97108074  2.25949660  1.47072901
  C -2.42977726  2.60326143  1.23880772
  O -0.25289376  2.90969211  2.18837974
  O  0.76237826  0.66827171  1.18333990
  C  1.25781204  0.21465394 -0.04494054
  C  2.61009383 -0.45317615  0.13991178
  O  3.19810889 -0.60467844 -1.05492034
  C  4.50591234 -1.16772284 -1.03514872
  O  3.11506991 -0.75386637  1.18095800
  H -3.10506588 -0.15399179  0.74923743
  H -1.73716421 -0.94588540  1.53775331
  H -3.34876040 -2.34873543 -0.37946545
  H -1.27069017 -3.53524072 -1.09709587
  H  0.84229879 -3.84921968 -0.77302372
  H  1.88389393 -2.72561951  0.09311940
  H  1.60255673 -2.50788413 -1.65361249
  H  0.13748431 -0.45353145 -1.76860978
  H -3.15127289  1.11499629 -2.66782630
  H -3.29023028 -0.18049517 -1.52734002
  H -2.57234914  3.63911261  1.53265745
  H -2.72736119  2.47680953  0.20505685
  H -3.05143718  1.97643658  1.87561489
  H  1.42949756  1.07663697 -0.71606758
  H  4.88934774 -1.07694627 -2.04796623
  H  5.13937463 -0.62695993 -0.32955150
  H  4.46120097 -2.21786987 -0.73674897
