35
opt_min/./Product_3556_opt.xyz
  C -1.22478100 -0.46505300  1.91636000
  C -1.53500649 -0.55835020  0.41676345
  C -2.87050765 -1.27400733  0.23294556
  C -0.40205551 -1.31882186 -0.31977674
  C  0.09054550 -2.59095427  0.35168899
  O  0.29500757 -3.60391926 -0.26419693
  C  0.68995776 -0.23998585 -0.51835436
  C  1.91195044 -0.52237309  0.35584609
  N  2.67343838  0.54895282  0.63263204
  C  3.90038855  0.42287449  1.38983602
  O  2.18436033 -1.64623392  0.72869872
  N  0.02212659  1.00117667 -0.21626963
  C -1.41674418  0.84015837 -0.27097833
  C -2.10047320  2.00862749  0.44321132
  C -1.94189068  0.84802990 -1.72248337
  H -0.15416802 -0.40266508  2.08920929
  H -1.68429562  0.40922082  2.36445815
  H -1.61627320 -1.34007313  2.43287568
  H -3.23282593 -1.21067485 -0.78864413
  H -2.75371458 -2.32714301  0.47953093
  H -3.62323995 -0.84803599  0.89349943
  H -0.75943054 -1.65163018 -1.29803697
  H  0.13335635 -2.58327581  1.45214827
  H  1.07164141 -0.29667035 -1.55973773
  H  2.38171832  1.46308713  0.33223126
  H  3.68252340  0.21164146  2.43923485
  H  4.48506278 -0.40953524  0.99605938
  H  4.47136917  1.34340544  1.30836251
  H  0.40255870  1.85249362 -0.60198996
  H -1.71462851  2.17121552  1.44442233
  H -3.17287620  1.82923401  0.49787747
  H -1.93339103  2.92594486 -0.12030621
  H -1.71086675  1.80887084 -2.18013626
  H -1.47112214  0.07274842 -2.32003284
  H -3.01854801  0.71521929 -1.75779514
