38
opt_min/./Product_5305_opt.xyz
  O  1.17120400 -1.66013700 -2.41271800
  C  1.68126389 -0.74506312 -2.87119707
  O  2.20537090  0.14708342 -3.36063161
  C -0.12322172  1.10951406 -1.46350369
  C -1.21927461  0.35565165 -1.53178624
  C -3.26043398  3.03458790 -1.37273083
  O -3.96481348  2.60953810 -2.16615092
  O -2.55182737  3.47227140 -0.58985441
  N -1.41833830 -0.31542223 -0.34668548
  C -2.39030152 -1.20413116  0.01511072
  O -3.26607364 -1.33593697 -1.00836965
  C -4.36028824 -2.21678442 -0.78348913
  O -2.45904843 -1.75761312  1.07593533
  O -0.40300557  0.02236016  0.56544652
  C  0.43959627  0.98828124 -0.06771033
  C  0.32580499  2.32026907  0.71120342
  O  0.03437726  2.39755526  1.86791277
  O  0.60477344  3.35751743 -0.07816020
  C  0.53871967  4.64607141  0.52603855
  C  1.89726569  0.55315548 -0.03439571
  C  2.25315385 -0.66136988  0.53344113
  C  3.57913676 -1.05792100  0.53947105
  C  4.55259267 -0.24522027 -0.01560737
  C  4.19831899  0.97082950 -0.57540321
  C  2.87476364  1.37271078 -0.58501030
  H  0.27306819  1.79042007 -2.18616612
  H -1.90289816  0.18999520 -2.34061750
  H -4.45592742 -2.85292700 -1.66247774
  H -5.26967990 -1.62866106 -0.64912286
  H -4.17605901 -2.82085518  0.10632755
  H  0.40717406  5.35850918 -0.28441167
  H -0.30177911  4.68885436  1.22011614
  H  1.46395130  4.84943322  1.06852434
  H  1.48878822 -1.28371548  0.97090481
  H  3.84964993 -2.00491536  0.98168370
  H  5.58656407 -0.55676077 -0.00812244
  H  4.95425070  1.61011767 -1.00620131
  H  2.59876489  2.31876128 -1.02524263
