65
opt_min/./Product_5964_opt.xyz
  C -2.12680502 -0.20814071 -1.22336102
  O -2.62935179  0.23007754 -2.24167089
  C -2.87102412 -1.05217366 -0.28963485
  O -4.20079786 -1.27017131 -0.44772675
  C -5.03673442 -0.16728911 -0.76174660
  C -2.25016443 -1.75626080  0.71671134
  O -3.05715469 -2.50919542  1.47955842
  C -2.57121112 -3.29387910  2.55026933
  C -0.79979861 -1.64420965  0.95687703
  O -0.28451537 -2.01303748  1.98889232
  C  0.03464845 -1.12474093 -0.22184124
  C  0.08204985 -2.34396107 -1.15574105
  C -0.67383529  0.08452921 -0.87390452
  C  0.02350955  0.62003778 -2.12685826
  C -0.52954312  1.12663528  0.27146746
  C -1.56416830  0.97619935  1.29081710
  N -2.34864892  0.94273266  2.12404437
  C -0.66913758  2.55899692 -0.23229793
  C -1.93210282  3.05278495 -0.53655407
  C -2.07966748  4.34165473 -1.01603768
  C -0.96860501  5.14928585 -1.19232599
  C  0.29000477  4.65943230 -0.89085248
  C  0.44181347  3.36930660 -0.41374939
  N  0.79586540  0.85916811  0.82120231
  C  0.94302174  1.36201032  2.17454912
  C  1.31535658 -0.45501460  0.39232215
  C  1.98791264 -1.29061268  1.52617969
  N  2.46692296 -2.47430586  1.08058588
  C  3.13350673 -3.39848870  1.96587396
  O  2.19619295 -0.89953317  2.64860664
  C  2.51227453 -0.18045105 -0.53103804
  C  2.90090644 -0.96449709 -1.61270986
  C  4.03814037 -0.66278766 -2.34448131
  C  4.82952313  0.41838949 -2.00663622
  C  4.47079173  1.19366105 -0.91847189
  C  3.33466644  0.89304940 -0.19150576
  H -6.04031257 -0.58237107 -0.82986437
  H -5.00121314  0.57577164  0.04051610
  H -4.76470235  0.29717952 -1.71039699
  H -3.44194329 -3.84662962  2.90182826
  H -1.79686224 -3.99312408  2.22701171
  H -2.17768724 -2.67118584  3.35517029
  H -0.89511416 -2.82882629 -1.14992471
  H  0.80309570 -3.08734129 -0.82717321
  H  0.28685497 -2.06385649 -2.18435023
  H -0.61904686  1.36592373 -2.59019128
  H  0.97298379  1.08130639 -1.88210448
  H  0.17859437 -0.16903708 -2.85609811
  H -2.80487891  2.43084615 -0.39952619
  H -3.06523591  4.71384319 -1.25137459
  H -1.08630477  6.15589483 -1.56468682
  H  1.16163766  5.28201485 -1.02846689
  H  1.42582793  2.98776972 -0.19221979
  H  1.98889518  1.36111562  2.46790264
  H  0.57750682  2.39140582  2.18114075
  H  0.38783139  0.78689641  2.92262305
  H  2.42462309 -2.71877629  0.10744256
  H  4.02481662 -3.79989264  1.48455182
  H  2.46759282 -4.21883790  2.24512492
  H  3.41377137 -2.85455715  2.86627439
  H  2.32762804 -1.81745637 -1.92690123
  H  4.30207192 -1.28764051 -3.18534827
  H  5.71553547  0.64788496 -2.57874638
  H  5.08212315  2.03534329 -0.62832499
  H  3.08229879  1.50456959  0.65735994
