33
opt_min/./Product_4775_opt.xyz
  O -3.06657092  2.26136978  2.20949816
  C -3.04246317  2.03089468  1.08789986
  O -3.04745093  1.82083279 -0.03611772
  C -1.88041046 -0.78276324  1.53987465
  C -0.56021949 -0.68166501  1.63633390
  C  0.70981764  2.28306868  1.82579524
  O  1.65977977  1.95084619  2.36773671
  O -0.25593876  2.60570681  1.30262953
  C  0.00200155 -1.02250559  0.26845159
  C  1.37521678 -0.51717754 -0.02254159
  C  1.53722286  0.70601527 -0.66568058
  C  2.80670813  1.20438728 -0.89631054
  C  3.91964333  0.49317596 -0.47996256
  C  3.75935076 -0.71753718  0.17185513
  C  2.49275608 -1.22327131  0.40572661
  N -1.09917770 -0.55298799 -0.59235238
  C -1.01129031 -0.83692487 -2.01265554
  C -2.11652068 -1.26338180  0.11992890
  C -3.46360266 -1.22687328 -0.38708686
  N -4.54264327 -1.16246200 -0.75254412
  O -1.60864720 -2.68307146  0.12563854
  C -0.29081069 -2.56720970  0.22981463
  O  0.48907089 -3.46593986  0.28810132
  H -2.66125009 -0.66120864  2.26350971
  H  0.06252625 -0.44866194  2.47700730
  H  0.66659367  1.26580104 -0.97378123
  H  2.92634088  2.15265871 -1.39916179
  H  4.90932351  0.88520172 -0.66030700
  H  4.62399107 -1.27221335  0.50310051
  H  2.36884441 -2.16941269  0.90721001
  H -1.87376486 -0.37843407 -2.49532350
  H -0.99976162 -1.90906803 -2.24064578
  H -0.10221598 -0.38670054 -2.40300047
