65
opt_min/./Product_5965_opt.xyz
  C -2.14033670 -0.81001875  0.78452404
  O -3.06989273 -0.48449037  1.48880519
  C -0.74455857 -0.25638941  1.04759752
  O -0.52082215 -0.03835490  2.41684839
  C -0.98312229 -0.98862986  3.35982747
  C  0.40739053 -1.11333814  0.44384039
  O  0.58727347 -2.28348631  1.21505039
  C  1.22647354 -3.37731841  0.58188677
  C  0.04769800 -1.49773571 -0.99317817
  O  0.80231158 -1.37033002 -1.93429145
  C -1.26791986 -2.12974156 -1.12248383
  C -1.46835952 -3.01400600 -2.31299048
  C -2.27751448 -1.83394076 -0.27424470
  C -3.63985839 -2.41103640 -0.44105986
  C  1.58873303 -0.08903525  0.58305434
  C  1.96092845 -0.01094148  1.99885992
  N  2.35952295  0.15448387  3.05872370
  C  2.85798603 -0.41265100 -0.18746553
  C  3.08624891  0.08574579 -1.46314273
  C  4.25775566 -0.21203888 -2.13420296
  C  5.22298084 -1.00722676 -1.54091963
  C  5.00612186 -1.50516170 -0.26846364
  C  3.83502831 -1.20651517  0.40578742
  N  0.97080933  1.16239397  0.16806119
  C  1.74815649  2.38044822  0.29326755
  C -0.48015624  1.12512528  0.33325274
  C -1.14921915  1.04543989 -1.05198280
  N -0.42352514  1.52679197 -2.06488443
  C -0.83089864  1.39406298 -3.44164376
  O -2.27105431  0.58798518 -1.19837789
  C -1.09489383  2.24516754  1.15716208
  C -2.27947837  2.86260377  0.77664991
  C -2.83633816  3.85849409  1.56032605
  C -2.22286174  4.25174071  2.73561314
  C -1.05147368  3.63102776  3.13132362
  C -0.49035124  2.63582036  2.35200067
  H -0.51025712 -0.68750457  4.29314289
  H -0.67223883 -1.99995095  3.09613272
  H -2.06990469 -0.94142534  3.46339365
  H  2.13956527 -3.07729905  0.06463942
  H  1.46890259 -4.06839372  1.38740196
  H  0.55435087 -3.87032575 -0.12844131
  H -0.54183902 -3.08875941 -2.87744525
  H -2.24400995 -2.59948224 -2.95554805
  H -1.78603299 -4.01038710 -2.00691151
  H -3.60156326 -3.49936930 -0.44981285
  H -4.28055981 -2.06547562  0.36574886
  H -4.06385390 -2.08117561 -1.38926333
  H  2.33617746  0.68624683 -1.94968568
  H  4.41612256  0.17807761 -3.12873084
  H  6.13741171 -1.23735562 -2.06709452
  H  5.74970637 -2.12622023  0.20842939
  H  3.68398528 -1.59712476  1.40209603
  H  1.16969708  3.17661826  0.75970433
  H  2.63556103  2.20165892  0.90242978
  H  2.08505556  2.73493242 -0.68894307
  H  0.51053264  1.84529610 -1.86525011
  H -0.42233151  2.21568909 -4.02631688
  H -0.47741099  0.44368037 -3.85141268
  H -1.91872803  1.41487608 -3.48271275
  H -2.79152179  2.55576054 -0.12062291
  H -3.76012020  4.32237688  1.24797519
  H -2.66223101  5.02934392  3.34311702
  H -0.57105373  3.91373810  4.05619620
  H  0.40385826  2.13998302  2.69332254
