47
opt_min/./Product_1941_opt.xyz
  C  0.90891800 -1.46502200  2.72917000
  C  0.76516251 -0.19208920  1.95082863
  O  1.38083567  0.80154016  2.25126735
  C -0.22433331 -0.16075911  0.76992931
  C  0.13440484 -0.97199663 -0.49398358
 Br  1.61983020 -2.24596979 -0.27319687
  C -1.13130613 -1.89639597 -0.60292954
  C -2.36776883 -1.07468944 -0.88429332
  C -2.64539495 -0.46030086  0.25681748
  C -1.55447181 -0.89356670  1.20644534
  O -1.30108043 -2.21743950  0.76585132
  C  0.45159459  0.03781274 -1.62239695
  C -0.16959109 -0.39322521 -2.95522186
  C  1.96600609  0.23428437 -1.77485396
  C  2.69723379  0.90117302 -0.79498093
  C  4.06182729  1.08646822 -0.92109192
  C  4.73199815  0.61067657 -2.03260993
  C  4.02078067 -0.05993743 -3.01033529
  C  2.65607276 -0.24684713 -2.88313948
  N -0.24787048  1.25412940 -1.18418479
  C  0.19870472  2.49047592 -1.79992729
  C -0.39941507  1.28115726  0.25583596
  C -1.68957229  1.92932173  0.76064880
  C -2.54456389  2.64295317 -0.24675392
  O -1.94741071  1.92030906  1.94163707
  H  1.94099152 -1.80598792  2.64026653
  H  0.24911436 -2.25841248  2.39614641
  H  0.74179863 -1.24249778  3.78138188
  H -0.98872348 -2.78738813 -1.20736604
  H -2.90178581 -1.07058856 -1.81292689
  H -3.46574535  0.17479267  0.51834459
  H -1.77756658 -0.83911571  2.26688879
  H -1.24811004 -0.30321497 -2.89677176
  H  0.08839655 -1.42121583 -3.19657430
  H  0.17411627  0.25971574 -3.75290761
  H  2.21983023  1.26930592  0.09614904
  H  4.59889279  1.59782171 -0.13641998
  H  5.79746556  0.75389427 -2.13196187
  H  4.52834209 -0.44560798 -3.88202853
  H  2.14351064 -0.78753844 -3.66106582
  H  0.69691007  3.14877148 -1.08094009
  H -0.65042876  3.02642313 -2.22816294
  H  0.90492531  2.28154912 -2.60133366
  H  0.38024706  1.89706099  0.74748131
  H -2.57593399  2.09713847 -1.18359760
  H -2.10806310  3.62549379 -0.42079259
  H -3.54352771  2.79060667  0.15518322
