42
opt_min/./Product_889_opt.xyz
  C -2.91849300 -1.56784700  1.77220200
  O -1.79395424 -0.87357612  1.24025892
  C -1.69069316 -0.79572735 -0.08679258
  O -2.51372954 -1.22610992 -0.85059647
  C -0.39203857 -0.12555460 -0.52069971
  C  0.30699898  0.75326141  0.53799999
  C  0.42259941  2.10378918 -0.16981607
  C -1.00985041  2.66749491 -0.21008010
  C -1.69878405  1.80229264 -1.28656749
  C -0.59509873  0.81928577 -1.70928604
  C  0.61369179  1.75318694 -1.64510903
  C  1.55163076 -0.11138849  0.86164509
  C  2.28311864  0.20075796  2.16575793
  C  3.12416197  1.43548363  2.11006058
  O  2.15611868 -0.50793190  3.12687117
  N  0.97375002 -1.42608162  0.77127913
  C  0.60980816 -1.32995873 -0.63495249
  C  0.02800129 -2.51324621 -1.37695589
  C -0.24719647 -3.73533670 -0.54188150
  O -0.17692848 -2.44279540 -2.55665357
  C  1.92867273 -0.79602289 -1.23526407
  O  2.41594053 -1.00830053 -2.29749980
  O  2.48536573 -0.05096442 -0.25718869
  H -3.19749108 -1.05418872  2.69003301
  H -3.73499698 -1.55708296  1.04616840
  H -2.63403287 -2.60035171  1.98795251
  H -0.26502167  0.82589507  1.46459428
  H  1.15907697  2.77633073  0.26496184
  H -1.50887543  2.59658454  0.75837551
  H -0.99592083  3.72236930 -0.49370613
  H -2.00095687  2.40428747 -2.14721843
  H -2.58958794  1.29680013 -0.91938018
  H -0.78929445  0.28711382 -2.63670765
  H  1.56857118  1.31074833 -1.89048901
  H  0.48375455  2.62481806 -2.28781165
  H  3.79454156  1.46784848  2.96777718
  H  2.46617896  2.30599113  2.14312174
  H  3.67978727  1.45262366  1.17542879
  H  1.62741231 -2.17223326  1.00045779
  H -0.32573011 -3.48697583  0.51244928
  H  0.56305121 -4.44918340 -0.70177057
  H -1.16875569 -4.19716087 -0.89919741
