48
opt_min/./Product_1715_opt.xyz
  N  0.56960494  2.89108001  1.13686700
  C  0.47008427  2.04541339  0.37206764
  C  0.34259323  1.07333951 -0.68103970
  C -0.81266443  0.03572788 -0.48013030
  C -1.50579188  0.24701927  0.84910392
  C -2.85769007  0.53851986  0.96977620
  C -3.42743692  0.74243635  2.21563201
  C -2.66026006  0.65989404  3.36169605
  C -1.30845930  0.38569717  3.25294956
  C -0.73809318  0.18615343  2.01141228
  C -1.70159035  0.43147629 -1.72559382
  C -0.96817678  0.05760739 -2.99793614
  C -0.01368970  0.96661899 -3.13482231
  C -0.17770911  1.87257757 -1.93725347
  O -1.57078829  1.84446000 -1.71606027
  C -0.11659823 -1.34810560 -0.66458455
  C  0.05826028 -2.30314425  0.54669464
  C  1.16581623 -3.29578417  0.38431583
  O -0.75157093 -2.34755468  1.43577529
  C -0.93953760 -2.30856577 -1.55527209
  C -2.34442970 -2.56715200 -1.08553237
  O -0.44324490 -2.86788799 -2.49478145
  O  1.11772862 -1.06348899 -1.30831173
  C  1.59314695  0.19710000 -0.90907240
  C  2.44541092  0.13009562  0.38162502
  N  3.12481772  1.26256301  0.63504782
  C  3.91322086  1.43804884  1.83275615
  O  2.48778919 -0.85059222  1.08935991
  H -3.49314829  0.63219071  0.10402647
  H -4.48127769  0.97062665  2.28146026
  H -3.10964736  0.81474152  4.33109194
  H -0.69038783  0.32437047  4.13530141
  H  0.31993275 -0.02144137  1.95619221
  H -2.74039883  0.12803714 -1.67396700
  H -1.21327446 -0.76087195 -3.64251035
  H  0.75142333  1.06009300 -3.87841463
  H  0.19194575  2.89273325 -2.01568933
  H  1.48116266 -3.64019319  1.36505384
  H  2.00255473 -2.87999701 -0.16422554
  H  0.76982180 -4.14193363 -0.17825823
  H -3.03717772 -2.40965912 -1.91048381
  H -2.61939369 -1.95837773 -0.23064564
  H -2.41656933 -3.61832069 -0.80678868
  H  2.22624189  0.56295413 -1.72599177
  H  3.06149459  2.05021354  0.01039715
  H  4.97565255  1.49889639  1.59018987
  H  3.73931363  0.57393927  2.47156602
  H  3.60322458  2.34594711  2.34981053
