65
opt_min/./Product_2911_opt.xyz
  C  4.33164800 -3.53922400 -1.93118800
  O  3.90517754 -2.20840806 -1.67730614
  C  2.59963113 -2.03888329 -1.47695272
  O  1.78390371 -2.92873554 -1.51890580
  C  2.23700925 -0.63395652 -1.24288325
  C  2.83957477  0.40074446 -0.63608397
  C  4.09577406  0.56405945  0.10798291
  O  4.50495367  1.64003262  0.47355975
  O  4.69009361 -0.59982928  0.37489115
  C  5.91780212 -0.55273406  1.08958097
  C  1.83277623  1.54137116 -0.71580257
  C  0.73540933  1.23902510  0.34648493
  C  0.14697698 -0.06272526 -0.22425137
  C  0.86088219 -0.09641312 -1.61823845
  O  1.13840241  1.25201729 -1.91136346
  C -1.38837547  0.10335728 -0.25063307
  C -2.02043255 -0.59243782 -1.44349137
  C -1.71552334 -1.93561027 -1.65680347
  C -2.28882562 -2.63258014 -2.70304284
  C -3.18890917 -2.00500107 -3.54830172
  C -3.51236744 -0.67849843 -3.33153290
  C -2.93733873  0.02284756 -2.28381198
  C -2.09837878 -0.49664056  0.96883895
  C -3.46615027 -0.24603591  1.06286121
  C -4.21040080 -0.72602962  2.12204873
  C -3.59980872 -1.47261822  3.11684286
  C -2.24495431 -1.72950695  3.03337294
  C -1.49932462 -1.24697016  1.96825023
  N -1.61899498  1.54321504 -0.18922788
  C -0.46356802  2.24237949  0.31759401
  C -0.20944437  3.46027032 -0.62681841
  N  0.74432408  4.30444634 -0.22458435
  C  1.14278777  5.43180783 -1.03651964
  O -0.88025508  3.60299158 -1.62609229
  C -0.67105740  2.81220227  1.72293554
  C -2.02089706  2.66472456  2.34846673
  O  0.24922430  3.37078246  2.28177045
  H  5.41629614 -3.52578218 -1.87352233
  H  4.00754191 -3.85686520 -2.92475999
  H  3.91087556 -4.22005638 -1.18934943
  H  5.97349893  0.36206450  1.68248172
  H  5.94795999 -1.43098552  1.73029484
  H  6.74867851 -0.57885030  0.38214232
  H  2.27017266  2.53120715 -0.70377121
  H  1.14175455  1.13918713  1.35289062
  H  0.44386115 -0.94657430  0.32983590
  H  0.33420922 -0.59072269 -2.42539220
  H -1.01621300 -2.43948738 -1.00723867
  H -2.02885022 -3.66919196 -2.85564148
  H -3.63731796 -2.54775634 -4.36700631
  H -4.21940647 -0.18156790 -3.97949200
  H -3.21759619  1.05527412 -2.14124325
  H -3.94572118  0.33298643  0.28872974
  H -5.26916314 -0.51900008  2.17061696
  H -4.17644933 -1.85122452  3.94750033
  H -1.75723138 -2.31084302  3.80244051
  H -0.44408671 -1.47229339  1.94924916
  H -1.84183297  1.94381032 -1.10156650
  H  1.17557923  4.17249426  0.68132078
  H  1.70350830  6.13339613 -0.42595084
  H  0.25485156  5.91860953 -1.44054629
  H  1.76018899  5.10061755 -1.87454868
  H -1.91191870  2.19682466  3.32332473
  H -2.43790829  3.65676063  2.50887058
  H -2.67965425  2.08157632  1.71707595
