34
opt_min/./Product_952_opt.xyz
  F -3.33462044 -3.17387865 -1.68634076
  C -3.19855497 -2.17574913 -2.58509304
  F -2.94959786 -2.77233262 -3.76068367
  F -4.39503735 -1.59199203 -2.69063457
  C -2.11675818 -1.23899044 -2.19283066
  C -2.13619187  0.05367861 -1.84999286
 Cl -3.41152471  1.14007586 -1.68185486
  C -0.68685636  0.38757990 -1.49421648
  C -0.47996897 -0.27315596 -0.09133745
  C -0.43666690 -1.76117790 -0.49773018
  C -0.65198588 -1.64841344 -2.03568780
  O  0.02408776 -0.46012052 -2.35998389
  C  1.00261123 -2.19583467 -0.13965702
  C  0.98857930 -3.00690498  1.07189677
  N  0.96438583 -3.66105845  2.00718334
  O  1.75269841 -1.01712327  0.01408152
  C  0.91449387 -0.01086337  0.54319209
  C  1.53239978  1.35091337  0.14919665
  N  0.74293804  2.40269666  0.47847428
  C  1.14921152  3.76238906  0.19939106
  O  2.60993031  1.46839320 -0.36880954
  C  0.84622153 -0.10966258  2.08014016
  H -0.39218969  1.42460322 -1.60151168
  H -1.29233733 -0.01612751  0.58766694
  H -1.19264883 -2.38913533 -0.02877574
  H -0.31356901 -2.48545100 -2.63941952
  H  1.47816733 -2.78607570 -0.93365836
  H -0.16179580  2.25922475  0.89473224
  H  0.76995990  4.10106905 -0.76803080
  H  0.78258164  4.42396208  0.98140831
  H  2.23740902  3.78907014  0.17122158
  H  0.69136321  0.86478608  2.53636317
  H  1.79239306 -0.50549884  2.44354080
  H  0.05000304 -0.77936167  2.40056958
