49
opt_min/./Product_1827_opt.xyz
  C -3.46441200 -0.10027000  2.02203900
  C -2.17907098 -0.88742135  1.96815979
  O -1.88977934 -1.65547907  2.84311790
  C -1.34025712 -0.68954564  0.69832385
  C  0.14991300 -1.16690181  0.70282802
 Cl  0.76650829 -1.84206435  2.24026727
  C  0.15965127 -2.30346971 -0.33363081
  C -0.02141829 -1.78028147 -1.75909350
  C -1.48092001 -1.29666355 -1.77919843
  C -1.97473256 -1.61808970 -0.36717958
  C -1.21794500 -2.91658799 -0.06662647
  C  0.93012082  0.14967287  0.41754887
  C  2.36318375  0.00600247  0.00739508
  C  2.77319966  0.19338070 -1.30891290
  C  4.10170040  0.03783672 -1.65985906
  C  5.04177770 -0.30421707 -0.70325359
  C  4.64281021 -0.48203989  0.60860594
  C  3.31476385 -0.32663009  0.96657775
  C  0.68405787  0.95574459  1.72301718
  O  1.44316861  1.26957746  2.58511371
  O -0.60306170  1.34598458  1.67020924
  C -1.12962919  0.82710412  0.41035988
  C -2.30519272  1.66828952 -0.10360868
  C -2.67763573  2.88294081  0.70057179
  O -2.85882890  1.37091357 -1.13012036
  N  0.00335740  0.84545574 -0.48185565
  C  0.42787221  2.17277471 -0.92810143
  H -4.22530902 -0.72244225  2.49135613
  H -3.80650761  0.23538991  1.05093306
  H -3.29816392  0.75898185  2.67310984
  H  1.02226646 -2.95497178 -0.20864438
  H  0.13226160 -2.60469669 -2.45845780
  H  0.67988496 -0.99533966 -2.00695001
  H -1.56656202 -0.23987842 -2.00994822
  H -2.07879909 -1.84967464 -2.50322981
  H -3.05984232 -1.66588016 -0.29094572
  H -1.46587536 -3.71760202 -0.75954768
  H -1.34041029 -3.26248445  0.95740580
  H  2.05943021  0.46717310 -2.06872846
  H  4.40158947  0.18521307 -2.68717124
  H  6.07816785 -0.42738084 -0.97964382
  H  5.36798434 -0.74253138  1.36553940
  H  3.02715003 -0.45530634  1.99598352
  H -3.69957037  2.76952895  1.06092262
  H -2.67428129  3.74737028  0.03655036
  H -2.00828725  3.04447679  1.53902953
  H -0.22103608  2.95451508 -0.53357060
  H  0.38585468  2.20690349 -2.01859535
  H  1.44751903  2.38708548 -0.60592039
