58
opt_min/./Product_2415_opt.xyz
  C  5.15807800 -0.48940100 -3.28838500
  N  4.15429027 -0.51833320 -2.25246607
  C  3.60698895 -1.68560708 -1.81913911
  O  3.91983660 -2.76743632 -2.27446920
  C  2.60065116 -1.52280286 -0.75617150
  C  1.82541880 -2.48325798 -0.20419824
  O  1.75918219 -3.76806722 -0.54263218
  C  1.10810679 -4.66141699  0.34237640
  C  0.87236544 -1.74172214  0.73184766
  C -0.14455548 -1.08838246 -0.26593940
  C  0.70682930  0.06668221 -0.81120239
  C  2.08385641 -0.23762660 -0.13742800
  O  1.65929757 -0.65203635  1.14796408
  N  0.10955946  1.24855692 -0.23354960
  C  0.53168083  2.53323750 -0.42382659
  C -0.00782920  3.57124160  0.34175795
  C  0.43794029  4.86560854  0.16933111
  C  1.42304256  5.16366486 -0.75705637
  C  1.93893575  4.14406493 -1.53851498
  C  1.50311155  2.84350865 -1.38329212
  N -0.83093245  0.92742052  0.75925324
  C -1.36354949 -0.36064842  0.34844497
  C -2.41106392 -0.05424683 -0.77325623
  N -2.96607385 -1.15996092 -1.31207833
  C -3.95406807 -1.08777497 -2.36221911
  O -2.69356464  1.07065257 -1.09793760
  C -2.08282614 -1.07150730  1.45996519
  C -2.20159008 -2.45826082  1.49076011
  C -2.91799192 -3.07721670  2.49942534
  C -3.53634831 -2.32204686  3.48090795
  C -3.44854546 -0.94156849  3.44081632
  C -2.73287475 -0.31998433  2.43193513
  H  4.78211809  0.00520805 -4.18738793
  H  6.06077727  0.01384186 -2.94408432
  H  5.38024979 -1.52837291 -3.53506890
  H  3.87430401  0.36175619 -1.85400863
  H  1.30502367 -5.65442840 -0.05972309
  H  0.03049740 -4.48829671  0.37966166
  H  1.52691560 -4.59054395  1.34934667
  H  0.44558019 -2.24342594  1.59444008
  H -0.42209127 -1.81319880 -1.03529056
  H  0.73595505  0.13675944 -1.90060049
  H  2.76605095  0.60321182 -0.05216393
  H -0.79597278  3.35332380  1.04248313
  H  0.00787300  5.65272088  0.77245836
  H  1.77249567  6.17725704 -0.87908538
  H  2.69015603  4.36008694 -2.28571115
  H  1.89806151  2.06796627 -2.02321116
  H -0.38043161  0.85228473  1.67855868
  H -2.72724949 -2.07296673 -0.96261976
  H -4.28556892 -0.05220612 -2.43005890
  H -4.80596606 -1.72859702 -2.13542230
  H -3.52836248 -1.38969550 -3.32280682
  H -1.73041285 -3.06238100  0.72758266
  H -2.99442033 -4.15487629  2.51329562
  H -4.09251134 -2.81051093  4.26671887
  H -3.94193309 -0.34466761  4.19238047
  H -2.68513104  0.75635412  2.37996714
