51
opt_min/./Product_5422_opt.xyz
  C -0.54199992  3.93261802 -0.87089570
  C -0.25858359  2.61843379 -0.20195458
  C  0.45244355  2.74194207  1.11191258
  C -0.64631122  1.47774946 -0.76270028
  C -0.48370509  0.10878216 -0.18955991
  C -1.54786964 -0.89189844 -0.69059207
  C -2.83295168 -0.76918401  0.08482245
  C -2.76672104 -1.06282298  1.55615407
  C -3.95304646 -0.37602996 -0.50079336
  C -0.85656735 -2.22467659 -0.53281091
  C  0.23497901 -4.88167663 -1.38063014
  N  0.93980951 -5.24764148 -2.20749638
  C -1.40907279 -3.43697207 -0.61803533
  C -2.84484208 -3.78242457 -0.85015051
  O -0.54851233 -4.56840101 -0.43976387
  N  0.49436510 -2.01098554 -0.36878979
  C  0.85744725 -0.61893529 -0.49971137
  C  1.37481931 -0.35199691 -1.92727676
  N  2.14737769 -1.35039940 -2.39414431
  C  2.70672300 -1.33633986 -3.72521972
  O  1.15808041  0.66168569 -2.55862825
  C  1.90995029 -0.26646499  0.56117937
  O  1.78142206 -0.63633116  1.71008124
  N  2.96898538  0.43390768  0.12538245
  C  3.99159326  0.88409368  1.04597895
  H -0.68431929  3.80188235 -1.93941985
  H  0.27446976  4.63231850 -0.70794051
  H -1.44837024  4.37405294 -0.45443731
  H -0.07753949  3.44829398  1.75134037
  H  0.53941057  1.79637579  1.63731308
  H  1.45531332  3.13666623  0.94924668
  H -1.14469700  1.51799002 -1.72006551
  H -0.55147904  0.15132730  0.90231861
  H -1.75476386 -0.71651231 -1.75181001
  H -1.93647611 -1.72491389  1.78809880
  H -3.69098008 -1.52323011  1.89897842
  H -2.63374569 -0.13795485  2.11724674
  H -4.00090283 -0.14351491 -1.55107496
  H -4.87159460 -0.26732483  0.05139873
  H -3.48209230 -3.38168903 -0.06199837
  H -2.95661432 -4.86310098 -0.86942258
  H -3.19119070 -3.36571954 -1.79592419
  H  1.06961988 -2.65602964  0.14640030
  H  2.26682727 -2.18538863 -1.84342092
  H  3.68970780 -0.85879908 -3.72924358
  H  2.04415915 -0.76684407 -4.37625783
  H  2.79882765 -2.35514041 -4.09225762
  H  3.00099459  0.75409748 -0.82831733
  H  4.76702512  1.40801830  0.49513881
  H  3.56241450  1.54735746  1.79983789
  H  4.42406491  0.02545885  1.56206092
