56
opt_min/./Product_1933_opt.xyz
  C  3.53141700 -2.47308000  2.50662400
  N  2.81502708 -1.37921097  1.88737205
  C  2.76635270 -1.24809031  0.54234304
  O  3.33321404 -2.03199986 -0.19020281
  C  2.03292326  0.01707741  0.06810973
  C  0.55931168 -0.24830454 -0.35135759
  C -0.48946785  0.60075950 -0.50771068
  C -0.46353985  2.11345543 -0.79434690
  F -0.93625398  2.32823277 -2.06351081
  F -1.25593674  2.84446275  0.02434227
  C  1.01676762  2.36623763 -0.67337561
  C  2.15383262  3.20788076 -1.20490884
  C  3.32238283  2.26524331 -0.78275921
  C  3.06100757  0.72936101 -0.90981881
  C -1.79557750 -0.15363241 -0.60171032
  C -2.73706519  0.43800919 -1.68036216
  C -2.67620744 -0.22011808 -3.02902318
  O -3.47501876  1.35017930 -1.42071962
  C -2.55564301 -0.14753620  0.72264723
  C -2.04853960  0.42174990  1.88053901
  C -2.74823139  0.32838096  3.07202327
  C -3.95780222 -0.34020208  3.12057986
  C -4.47132428 -0.90965187  1.96718321
  C -3.77383132 -0.81658446  0.77774703
  N -1.35204416 -1.49383553 -0.94341095
  C  0.05533035 -1.67770664 -0.56980358
  C  0.76250994 -2.27520612 -1.79771201
  C  0.16198149 -2.62048973  0.63428189
  H  4.60804506 -2.33654276  2.38522811
  H  3.28496398 -2.51784922  3.56329437
  H  3.25869337 -3.41570748  2.02888441
  H  2.31161535 -0.74678854  2.48574674
  H  1.96848599  0.64481474  0.96472672
  H  1.17154951  2.30156669  0.40674361
  H  1.29555230  1.46693695 -1.18781777
  H  2.11004120  3.28859941 -2.29085780
  H  2.25966580  4.19889826 -0.76754335
  H  3.57856106  2.47564085  0.25830195
  H  4.20837725  2.48609497 -1.38015440
  H  4.02771412  0.26433622 -0.70031899
  H  2.82140220  0.46845272 -1.94362480
  H -2.74043723  0.54442097 -3.79971684
  H -3.54435887 -0.86879922 -3.13112408
  H -1.77283251 -0.81034540 -3.13430449
  H -1.11180992  0.95937974  1.85434148
  H -2.34441993  0.78221651  3.96558757
  H -4.50259137 -0.41142767  4.05032599
  H -5.41867429 -1.42785872  1.99410043
  H -4.18501168 -1.25504899 -0.12100184
  H -1.94909913 -2.19802039 -0.52823739
  H  1.80717705 -2.48340478 -1.59389917
  H  0.26293916 -3.20045999 -2.07412008
  H  0.68922752 -1.58195727 -2.63253432
  H -0.13543868 -2.11136770  1.55031436
  H  1.16254367 -3.01980660  0.74824291
  H -0.50564733 -3.46645096  0.47635285
