47
opt_min/./Product_5216_opt.xyz
  C -0.56785689 -1.51797868  0.00902192
  C -0.38201434 -0.27396487 -0.85831778
  C -0.96245520  0.97244374 -0.17349030
  N -2.24548427  0.77416714  0.40834819
  C -3.08800070  1.91217749  0.69297721
  C -2.65941797 -0.46759383  0.79095275
  C -1.95051050 -1.59162247  0.59615666
  C -2.37182849 -2.93137341  1.02437279
  N -3.64751906 -3.06419512  1.51057686
  O -1.61391380 -3.88506734  1.00465270
  C  0.20572671  1.38563470  0.80830049
  C  0.10020540  0.69884719  2.08943098
  N  0.14331108  0.14214163  3.08693015
  C  0.04977370  2.88940186  1.08395762
  C  0.66821223  3.86469599  0.12212654
  O -0.61441859  3.25591487  2.02174321
  N  1.39594474  0.86134306  0.16328061
  C  2.68316831  1.48781274  0.31733238
  C  1.10224929  0.11509670 -1.04945820
  C  1.96577288 -1.16264050 -1.16893468
  N  2.50551254 -1.59702700 -0.01639366
  C  3.20006277 -2.85926934  0.07743055
  O  2.14613129 -1.69895740 -2.24139044
  C  1.31582471  0.92181856 -2.34240422
  H -0.38425785 -2.41640768 -0.58398835
  H  0.14324535 -1.53075470  0.83679541
  H -0.87140156 -0.43392954 -1.82046875
  H -1.04743846  1.78028262 -0.91226853
  H -2.71771804  2.78868396  0.16530976
  H -4.10859291  1.71392656  0.35843551
  H -3.10265519  2.14004900  1.76204361
  H -3.63072288 -0.47194774  1.26132773
  H -3.90230309 -4.02064323  1.71210476
  H -4.39392705 -2.48253876  1.17413602
  H  1.70569551  4.03699400  0.40172699
  H  0.63917302  3.50461205 -0.90212196
  H  0.14018778  4.81353364  0.20091915
  H  3.45836116  0.74416870  0.12636245
  H  2.78818926  1.83505897  1.34525109
  H  2.85767514  2.32639264 -0.36806593
  H  2.25730121 -1.13211991  0.84383795
  H  2.52480084 -3.65383432  0.40365418
  H  4.02444361 -2.77462419  0.78370461
  H  3.58186902 -3.10482766 -0.91219792
  H  0.85515364  0.39764523 -3.17418663
  H  0.88677732  1.91808528 -2.27046252
  H  2.37798061  1.00906025 -2.55629497
