71
opt_min/./Product_3049_opt.xyz
  F  2.46231300  0.50067500 -3.39560100
  C  2.70332928  1.49310805 -2.53627817
  F  3.87670220  1.21717982 -1.92923454
  F  3.01875932  2.54767050 -3.31627198
  C  1.54727018  1.75688719 -1.52845206
  C  1.11702599  0.35653553 -0.95252373
  C -0.00758869 -0.25631347 -0.48758465
  C -1.35158738  0.39080437 -0.09280077
  C -1.37115923  0.53117782  1.42829555
  C -1.54544562 -0.58040226  2.24569163
  C -1.50042026 -0.48068428  3.62446508
  C -1.29442275  0.74704525  4.22715433
  C -1.17237701  1.87119231  3.43125242
  C -1.21459209  1.76588648  2.05097425
  C -2.59245070 -0.26261405 -0.65082481
  C -3.75417158 -0.38457037  0.10023633
  C -4.89471916 -0.93785128 -0.45304457
  C -4.89820672 -1.36798568 -1.76688511
  C -3.75386164 -1.22350983 -2.53165379
  C -2.61503751 -0.66768898 -1.98094209
  C -1.05125712  1.71775866 -0.77123244
  C -1.73769987  2.99678820 -1.18561396
  C -0.46094906  3.71872613 -1.67863654
  C  0.64984633  2.82395828 -2.30842984
  C  0.28188801 -1.75189060 -0.46835950
  C  0.25756187 -2.23676837 -1.97309974
  C  0.24361853 -3.72018830 -2.16255149
  O  0.36436346 -1.45398537 -2.87218755
  C -0.57044381 -2.69976340  0.35070480
  C  0.06256516 -3.31049987  1.57865976
  O -1.66663558 -3.03655384 -0.02873538
  N  1.72002283 -1.86331937 -0.26916031
  C  2.29813454 -0.58223801 -0.69274093
  C  3.17365522 -0.06299766  0.42975808
  C  2.62884703  0.64135628  1.49704012
  C  3.42860709  1.03508350  2.55584300
  C  4.77657472  0.72237465  2.56551237
  C  5.32042172  0.00348776  1.51412278
  C  4.52340686 -0.39047061  0.45508543
  H  2.03372579  2.28985786 -0.69947536
  H -1.77012224 -1.53062197  1.80018045
  H -1.63764439 -1.36612606  4.22815414
  H -1.25167165  0.83071519  5.30283079
  H -1.04444127  2.84413842  3.88336043
  H -1.13808003  2.67161856  1.47399262
  H -3.77535426 -0.04382824  1.12443307
  H -5.78654444 -1.03255495  0.14982521
  H -5.78728994 -1.80731182 -2.19482715
  H -3.74569749 -1.54333203 -3.56345488
  H -1.73418571 -0.55535807 -2.59324122
  H -0.75620923  1.36067407 -1.74879943
  H -0.18617391  2.06349990 -0.21526647
  H -2.44462010  2.81508449 -1.99465823
  H -2.23857502  3.56545196 -0.40620053
  H -0.01760315  4.24843593 -0.83102958
  H -0.70445553  4.46844082 -2.43343839
  H  0.26554269  2.34261549 -3.20855090
  H  1.37870171  3.57208982 -2.62597597
  H  0.54996729 -3.95642056 -3.17755918
  H  0.89663452 -4.20468924 -1.44345581
  H -0.77414779 -4.07390256 -2.00208558
  H  0.69574179 -4.13671288  1.25659791
  H  0.66722634 -2.60163185  2.13787447
  H -0.71598092 -3.71331962  2.22178177
  H  1.97423723 -2.05676001  0.69265662
  H  2.90635380 -0.79321927 -1.57543062
  H  1.57241227  0.87238173  1.51669323
  H  2.99122049  1.58671457  3.37528217
  H  5.39902834  1.03472909  3.39049241
  H  6.36993214 -0.25074228  1.51941250
  H  4.94707488 -0.94581377 -0.36750080
