52
opt_min/./Product_2439_opt.xyz
  C -1.15773800 -2.89090800  1.47501900
  O -0.83474275 -1.58686227  1.02678412
  C -0.95752200 -1.30285283 -0.32251222
  F -0.32626739 -2.32316734 -1.07173958
  C -0.05062796 -0.08795199 -0.46912608
  C -0.15549620  1.24812166 -0.46104184
  C -1.35644215  2.16420475 -0.63141748
  C -0.91295684  3.42426556 -1.43833744
  F -0.06462444  4.24571313 -0.82729585
  F -0.34321358  3.05329195 -2.59497964
  F -1.95188059  4.20237377 -1.77750303
  C -1.88821351  2.68049430  0.72765991
  F -3.05163907  3.32765302  0.59875933
  F -2.09612679  1.68699529  1.59808635
  F -1.06364876  3.52534852  1.34430911
  C -2.49328928  1.56267089 -1.50098861
  C -3.65849024  0.81751770 -0.85064691
  C -3.36026867 -0.44833976 -0.06190803
  C -2.41158041 -1.38338263 -0.79584954
  C  1.21858230  1.86115049 -0.28669616
  C  1.43408449  2.52908870  1.10735327
  C  1.19853422  1.62419880  2.27664885
  O  1.88015028  3.64096455  1.18733545
  N  2.09781694  0.73391012 -0.34511333
  C  3.52405003  0.83155173 -0.28959199
  C  1.40931077 -0.49530903 -0.54380632
  C  1.91489865 -1.53151280  0.47352764
  O  2.51552362 -2.53255885 -0.17145396
  C  3.09759660 -3.55277136  0.63324049
  O  1.86835438 -1.43193084  1.66690498
  H -0.64873666 -3.64980810  0.87521175
  H -0.78902154 -2.93235100  2.49925750
  H -2.23602283 -3.07744919  1.45801497
  H -2.97875705  2.39099932 -2.02496191
  H -2.01527783  0.93347095 -2.25559181
  H -4.24174730  1.50264723 -0.23234690
  H -4.29237819  0.53031816 -1.69446248
  H -2.96547544 -0.24838702  0.93120292
  H -4.32327596 -0.95586423  0.06424644
  H -2.47076782 -1.27566944 -1.87867258
  H -2.68306370 -2.41639681 -0.56025973
  H  1.48413074  2.60434267 -1.05427190
  H  2.14857175  1.16966589  2.55178008
  H  0.85197991  2.21350290  3.12467241
  H  0.50424025  0.82113067  2.04945062
  H  3.80650822  1.88243297 -0.35363442
  H  3.97318822  0.29516430 -1.13322106
  H  3.92805160  0.41728935  0.64234059
  H  1.58211125 -0.93343184 -1.55094484
  H  3.70391434 -4.16154709 -0.03557588
  H  3.70651899 -3.10812009  1.42258954
  H  2.31119053 -4.15850094  1.09060056
