44
opt_min/./Product_5457_opt.xyz
  C  1.86506500  0.84401500  0.50968300
  C  0.72889347  1.34489871 -0.37831091
  C -0.06342065  0.23844884 -1.12675765
  N  0.61177056 -1.02497349 -1.26710001
  C -0.02547432 -2.01873136 -2.09481707
  C  1.88329544 -1.20612255 -0.85342229
  C  2.57089884 -0.33848498 -0.08210970
  C  3.96488658 -0.53735125  0.24613103
  N  4.52361939 -1.75514977 -0.28320298
  O  4.62400308  0.25736406  0.88659846
  C -1.41126550  0.24567053 -0.28609923
  C -2.26484880 -0.97517023 -0.19879264
  C -3.10477951 -1.33301320 -1.24757429
  C -3.89126137 -2.46628589 -1.13809635
  C -3.84423287 -3.24468813  0.00654501
  C -3.01196239 -2.88302549  1.05247869
  C -2.22337432 -1.74990060  0.95373749
  C -2.06066191  1.52248239 -0.87679720
  O -2.90812665  1.63742697 -1.70511632
  O -1.38009755  2.53143702 -0.31236367
  C -0.40299237  1.90132946  0.53208237
  C  0.05324479  2.83288129  1.65698728
  O  0.13709713  4.07074031  1.20993798
  C  0.58427094  5.07149819  2.12648908
  O  0.33038731  2.44889068  2.75643318
  O -1.02648141  0.74835967  0.98616215
  H  2.58759477  1.64061528  0.69933269
  H  1.44697823  0.54720540  1.47848174
  H  1.06529380  2.11557532 -1.07401428
  H -0.30789120  0.58531691 -2.14379736
  H -0.53226994 -1.54220742 -2.93684414
  H -0.76143464 -2.59689976 -1.53347524
  H  0.73171283 -2.69925738 -2.48193772
  H  2.37416900 -2.09593440 -1.21895206
  H  4.70462287 -2.39372782  0.48785020
  H  5.43070585 -1.54026342 -0.69510504
  H -3.15491249 -0.72353331 -2.13559000
  H -4.54686407 -2.74207787 -1.95016190
  H -4.46142794 -4.12713041  0.08417626
  H -2.97550148 -3.48095988  1.95056266
  H -1.58066638 -1.45101964  1.76630408
  H  1.60464807  5.35392369  1.86409733
  H  0.55716508  4.68149195  3.14511003
  H -0.07980729  5.92771091  2.02159858
