43
opt_min/./Product_5043_opt.xyz
  C  0.77849400 -1.63081600  0.98566600
  C  0.37433090 -0.14726865  1.13041466
  C -0.14450674  0.15073800  2.54224491
  C  1.58094647  0.73204982  0.70134552
  C  1.45892629  2.19703003  1.03703045
  O  1.71298968  3.10136014  0.29462880
  C  1.59622337  0.52124085 -0.82585118
  C  2.65519949 -0.46955828 -1.30144963
  O  3.84949362 -0.14546620 -0.77587574
  C  4.96241809 -0.92650417 -1.20113119
  O  2.48203516 -1.37183833 -2.06605665
  O  0.31389354  0.04789169 -1.18380112
  C -0.55512643  0.19981434 -0.07172018
  C -1.07786347  1.65451918 -0.12469637
  O -0.94339003  2.35453648 -1.08766054
  O -1.77035268  2.01705046  0.96197502
  C -2.33733134  3.32453956  0.91528353
  C -1.79253140 -0.63814600 -0.31394057
  C -2.31145316 -0.64013994 -1.60456000
  C -3.45184269 -1.36536676 -1.89735136
  C -4.09209413 -2.08748652 -0.90490746
  C -3.58171698 -2.08116184  0.38156827
  C -2.43720026 -1.36063552  0.67903533
  H  0.45772649 -2.21787151  1.84184047
  H  1.85731594 -1.74535587  0.89516471
  H  0.33399790 -2.06259821  0.09186280
  H -1.07461232  0.70756235  2.51265305
  H -0.32035612 -0.77154832  3.09213750
  H  0.57845528  0.72610771  3.11589986
  H  2.50336984  0.38036928  1.17258171
  H  1.14976890  2.39739464  2.08010887
  H  1.80317662  1.47831463 -1.33357755
  H  4.83882295 -1.21670912 -2.24546273
  H  5.04273300 -1.82722986 -0.58937786
  H  5.84546459 -0.30363043 -1.07408876
  H -3.10194410  3.37273548  0.13849884
  H -1.56227611  4.06118979  0.69471018
  H -2.77335501  3.49983350  1.89531141
  H -1.80602194 -0.07802497 -2.37353833
  H -3.84179990 -1.36438980 -2.90423591
  H -4.98386593 -2.65459959 -1.12767682
  H -4.07294522 -2.64113768  1.16364106
  H -2.05389464 -1.36793390  1.68517118
