39
opt_min/./Product_784_opt.xyz
  C  2.55687900 -3.77656100  0.44514500
  N  2.27690383 -2.36980551  0.32934501
  C  1.07037659 -1.91037094 -0.08075630
  O  0.14742500 -2.64054185 -0.37459979
  C  0.94577253 -0.43157320 -0.09482537
  C  1.86898743  0.55467779 -0.14450521
  F  3.20669862  0.42110680 -0.15630123
  C  1.19445107  1.83374968 -0.12782931
  C  1.79809510  3.19173195 -0.13536909
  C  2.97539339  3.35283932 -1.05359846
  O  1.35697269  4.07274437  0.55894531
  N -0.08746810  1.66756962 -0.07097562
  C -0.37660693  0.26957932 -0.00429907
  C -0.94897122 -0.01805601  1.45649498
  N -1.36645821  1.09788874  2.05507834
  C -1.96415272  1.09935372  3.36748848
  O -0.99137426 -1.12783878  1.91282555
  C -1.45498588 -0.12480063 -0.98864375
  C -1.09308312 -0.66485754 -2.21699946
  C -2.06305222 -1.00072314 -3.14383046
  C -3.40038038 -0.78871806 -2.86044145
  C -3.76243842 -0.22965646 -1.64784994
  C -2.79631674  0.10507918 -0.71607161
  H  3.01088064 -3.98463288  1.41471822
  H  1.61019085 -4.30687408  0.36154104
  H  3.23007953 -4.11525145 -0.34706039
  H  3.05610974 -1.73509739  0.40112955
  H  3.80872006  2.75988834 -0.67912445
  H  3.27212634  4.39610848 -1.10613260
  H  2.72099204  2.98600067 -2.04698886
  H -1.21174959  1.96622686  1.55623801
  H -2.31172860  0.09191618  3.59044740
  H -2.80410006  1.79209298  3.38255604
  H -1.23909512  1.39871733  4.12817431
  H -0.05222799 -0.82876439 -2.44794905
  H -1.76566292 -1.43000858 -4.08870473
  H -4.15722388 -1.05505850 -3.58384399
  H -4.80432611 -0.05528049 -1.42158466
  H -3.09206275  0.54118280  0.22540382
