51
opt_min/./Product_1989_opt.xyz
  C  3.22885500 -1.53783100 -2.54764300
  O  2.08991030 -0.76268350 -2.20156885
  C  1.59854860 -1.02682750 -0.96182171
  C  1.74866212 -0.39020702  0.21703368
  C  2.54788396  0.77043888  0.56187152
  C  3.16289194  1.51493438 -0.44789567
  C  3.93307746  2.61557823 -0.13309127
  C  4.09743782  2.99964053  1.18824889
  C  3.47643591  2.27916046  2.19299251
  C  2.70438149  1.17489829  1.88757807
  C  0.88627551 -1.20200098  1.16807160
  C -0.61792733 -0.94534430  0.86907387
  C -0.78757715 -1.69335229 -0.46929536
  C  0.66482874 -2.20122403 -0.69012477
  O  1.01478351 -2.52221065  0.64836461
  C -1.45551419 -0.60518101 -1.33536731
  C -2.20325465 -1.08527794 -2.57857192
  C -3.26401513 -2.11186860 -2.29434744
  O -1.96764551 -0.64830306 -3.66934131
  O -0.51735055  0.41987102 -1.66114211
  C -0.31158175  1.12494367 -0.52662022
  O  0.31571040  2.13092842 -0.45733974
  C -1.20139583  0.44400917  0.53407831
  C -1.46385990  1.22759776  1.81040496
  N -2.74578215  1.19074260  2.23124940
  C -3.16615695  1.84261906  3.45114275
  O -0.56162022  1.74570663  2.42251356
  N -2.32503506  0.01990933 -0.32827191
  C -3.16709371  1.09840188 -0.86159811
  H  3.48228298 -1.25421049 -3.56843970
  H  3.00513327 -2.60938486 -2.50899683
  H  4.06746483 -1.32367303 -1.87884652
  H  3.00620751  1.23903300 -1.47772558
  H  4.39929562  3.18451075 -0.92440723
  H  4.69506057  3.86655246  1.43017314
  H  3.58617063  2.58413531  3.22395827
  H  2.21264758  0.63856008  2.68255122
  H  1.14720256 -1.17104738  2.21973152
  H -1.20838270 -1.39460788  1.66979322
  H -1.45424631 -2.54990087 -0.38258248
  H  0.75897065 -3.06021777 -1.34935880
  H -2.80313167 -3.09917995 -2.30777591
  H -4.01153794 -2.07868865 -3.08464145
  H -3.72184354 -1.94611948 -1.32395148
  H -3.42953954  0.66726196  1.70690823
  H -3.57023069  2.83726445  3.24400178
  H -2.29370266  1.95350985  4.09580607
  H -3.92400620  1.24211118  3.95010407
  H -4.21054185  0.77722747 -0.81390633
  H -3.04508116  2.01394019 -0.28394056
  H -2.92061525  1.33267315 -1.90023970
