49
opt_min/./Product_5353_opt.xyz
  C  0.81704000  0.89752500 -1.94444500
  C  2.09352477  0.37359752 -2.52645733
  C  2.83940119 -0.48491309 -1.84246126
  N  2.52115543 -0.81192852 -0.53486570
  C  3.21103944 -1.92469531  0.05513388
  C  2.04912419  0.30416622  0.25791513
  C  0.84927981  1.03365832 -0.41526603
  C  1.04186916  2.52456426 -0.06234358
  N  0.95766579  2.83274168  1.25688888
  O  1.32996213  3.36040694 -0.88821677
  C -0.38140279  0.42488902  0.36412882
  C -0.98531080 -0.78440861 -0.34555745
  C -0.51027042 -2.06376907 -0.09754934
  C -1.04270054 -3.16153205 -0.75323972
  C -2.06351028 -2.99197013 -1.66893932
  C -2.54815298 -1.72073807 -1.92315145
  C -2.01615473 -0.62527144 -1.26901575
  C -1.49341877  1.41593509  0.64962088
  C -2.23088709  1.28078662  1.81944213
  C -3.26589970  2.15424872  2.10105553
  C -3.58496305  3.16817858  1.21491601
  C -2.86270351  3.29908237  0.04081661
  C -1.82515882  2.42837950 -0.24342701
  N  0.17607590 -0.01234920  1.63378308
  C  1.43567020 -0.08445635  1.58916341
  C  2.25038437 -0.42321392  2.79004181
  H  0.02054027  0.20517580 -2.23308651
  H  0.58823592  1.87135582 -2.38115565
  H  2.35019785  0.67105941 -3.52821778
  H  3.71870096 -0.96292689 -2.25504656
  H  3.05984392 -2.80074513 -0.57786415
  H  4.29544387 -1.75362285  0.15296886
  H  2.80826350 -2.14762645  1.03867962
  H  2.87457883  1.02315598  0.42999813
  H  0.48871786  2.22443051  1.90591587
  H  0.99415111  3.81384192  1.48584684
  H  0.27966354 -2.21581105  0.62057201
  H -0.65673928 -4.14962372 -0.54602398
  H -2.48411772 -3.84761489 -2.17688279
  H -3.34575938 -1.57518135 -2.63711078
  H -2.41344165  0.35690340 -1.47545036
  H -1.98086691  0.48602524  2.50470107
  H -3.82867198  2.03866755  3.01623657
  H -4.38932231  3.85386040  1.43706059
  H -3.10864517  4.08127049 -0.66208753
  H -1.27130749  2.55011906 -1.16093615
  H  3.31311682 -0.37217493  2.57133558
  H  2.01966192  0.27930451  3.58983422
  H  1.99775502 -1.41623801  3.16028647
