51
opt_min/./Product_5324_opt.xyz
  C  5.02957600 -0.67608800 -0.12797900
  C  4.69978301  0.74368369  0.22582553
  C  5.85323828  1.58075899  0.68322178
  C  3.45580368  1.23909802  0.19185440
  C  2.27042071  0.51527239 -0.19444446
  C  1.04811172  1.04618617 -0.16742429
  C -0.21006730  0.32367985 -0.58749717
  C -0.10994020 -0.06567774 -2.06703195
  C -1.45649510  1.20467826 -0.37665002
  C -2.54759686  0.25336744  0.13285820
  C -3.15030403  0.75671471  1.46096974
  N -3.92726246  1.84953553  1.28782233
  C -4.55883297  2.52625101  2.39626710
  O -2.93121855  0.24752969  2.53057069
  C -3.69044954  0.07988211 -0.88244398
  O -3.79739772  0.70465729 -1.90612478
  O -4.53882444 -0.84879352 -0.46780674
  C -5.62595416 -1.18824893 -1.32211538
  O -1.96470109 -1.02130327  0.28485774
  C -0.54094378 -0.91963672  0.29729643
  C -0.04096070 -0.75946064  1.74756601
  C  0.03488264 -2.25585412 -0.17797795
  C -0.86501410 -3.44358937 -0.00043895
  O  1.16210991 -2.35635020 -0.59428924
  H  6.09416575 -0.78527501 -0.32906794
  H  4.47265494 -1.00301482 -1.00337125
  H  4.76741545 -1.34360069  0.69643741
  H  5.57923856  2.63153784  0.75322915
  H  6.18320000  1.24517144  1.67042102
  H  6.69731283  1.48274598  0.00285777
  H  3.29873615  2.27461740  0.47269872
  H  2.39343113 -0.51219016 -0.49877862
  H  0.92395477  2.07657430  0.14583600
  H  0.02577645  0.83174030 -2.66834068
  H  0.73508159 -0.72630900 -2.23501843
  H -1.01760431 -0.57593319 -2.38966798
  H -1.26655597  1.99722630  0.34803529
  H -1.77979524  1.65474291 -1.31826588
  H -4.04373629  2.24363498  0.36698006
  H -4.00713359  3.42943013  2.67187293
  H -4.55794061  1.84156115  3.24483392
  H -5.58446555  2.79264096  2.13943250
  H -5.65329171 -2.27391378 -1.40748630
  H -5.48631784 -0.73290156 -2.30447439
  H -6.55128964 -0.82990588 -0.86736816
  H -0.61203091 -1.43427100  2.38284150
  H  1.01996450 -0.98395790  1.82196096
  H -0.20954451  0.25654032  2.09500230
  H -0.51973134 -4.25913360 -0.63280370
  H -0.80765592 -3.76257556  1.04107054
  H -1.89506536 -3.18387856 -0.22031680
