36
opt_min/./Product_167_opt.xyz
 Cl  4.28072100  0.02479800 -1.28593500
  C  3.04746932  0.78073795 -0.37711451
  C  2.18299728  1.71741614 -0.74794608
  C  1.52181676  2.16147515  0.53689718
  C  0.50958686  1.11129982  1.07333832
  C  1.45571799 -0.05245542  1.39462592
  C  2.84468610  0.60854772  1.11566093
  O  2.57232573  1.95469027  1.48421819
  C  0.91198951 -1.27509369  0.61171787
  C  0.34352945 -2.28839164  1.62518528
  C  1.97299646 -2.01334866 -0.20283070
  N -0.20286574 -0.77757989 -0.19725704
  C -0.30649441 -1.15736635 -1.57880376
  C -0.63415990  0.56041450  0.20810561
  C -1.89941328  0.40156722  1.07769534
  C -0.97905936  1.50019209 -0.94789929
  H  1.99444009  2.12860772 -1.72002057
  H  1.16814625  3.18881892  0.53689872
  H  0.11123562  1.57453675  1.98241018
  H  1.42884805 -0.29474471  2.45919970
  H  3.67686590  0.20485506  1.68330881
  H  1.13830118 -2.69505156  2.24585427
  H -0.40442664 -1.82512510  2.26294572
  H -0.13689844 -3.10445694  1.09047002
  H  1.59207839 -2.98133817 -0.52096118
  H  2.27177766 -1.45663255 -1.08097947
  H  2.84897134 -2.18533985  0.42007262
  H -0.17695939 -2.23484917 -1.66449860
  H  0.41587824 -0.66597432 -2.24898282
  H -1.31117370 -0.92297963 -1.92990975
  H -1.64457726  0.03929695  2.06974478
  H -2.56331141 -0.32227923  0.61129171
  H -2.42370535  1.34933078  1.17851704
  H -0.16667686  1.56551233 -1.66351575
  H -1.87620515  1.16825532 -1.46329769
  H -1.16355331  2.49551160 -0.54801122
