34
opt_min/./Product_412_opt.xyz
  C  4.06103700 -0.63046300 -1.12732500
  O  2.89168285 -0.19802612 -0.43622443
  C  1.97656272 -1.13043414 -0.18018745
  O  2.09167084 -2.29250740 -0.45102394
  C  0.79748091 -0.48132315  0.52998108
  C  0.05484922  0.50317346 -0.40335646
  C  0.25459255  1.97920047 -0.08994376
  O  0.59483967  2.79052683 -0.90132341
  O -0.00579924  2.21515764  1.19222315
  C -0.01462569  3.57175264  1.63171466
  C -1.40813596 -0.00468149 -0.23466692
  C -2.40737763  0.53592970 -1.24115626
  C -3.25201105 -0.49483745 -1.92496987
  O -2.49381569  1.72162619 -1.41133810
  O -1.22755601 -1.40925268 -0.17555239
  C -0.37548323 -1.43073054  0.92897802
  C -0.06113911 -2.81617391  1.42931418
  O -1.11235732 -0.67790208  1.92304986
  C -1.77742765  0.26825845  1.25429645
  O -2.53595030  1.05639426  1.71325702
  H  4.58609168 -1.39101069 -0.54790046
  H  3.78879830 -1.05249481 -2.09642941
  H  4.67896124  0.25400447 -1.25493139
  H  1.16170360  0.02867215  1.42573089
  H  0.33953441  0.33910125 -1.44776548
  H -1.04937591  3.91260719  1.68036901
  H  0.55201437  4.19192981  0.93574927
  H  0.43250326  3.58873849  2.62389933
  H -2.82368547 -1.48628275 -1.82704269
  H -3.37256302 -0.22106136 -2.97128077
  H -4.24006944 -0.48139911 -1.46474490
  H  0.16788138 -3.44820647  0.57697856
  H  0.79315012 -2.79087206  2.09799653
  H -0.92807051 -3.20416735  1.95740653
