39
opt_min/./Product_4094_opt.xyz
  C  0.95421047 -2.71379418 -0.07540857
  C  0.01581443 -1.62413282 -0.58195337
  C  0.40193018 -1.27076044 -2.02167905
  C  0.03276838 -0.35782242  0.31900857
  C  1.01989317  0.70337838 -0.02706668
  C  2.05543882  1.01468121  0.75028459
  C  3.05571125  2.03298369  0.47822375
  C  2.77966907  3.07980948 -0.56295187
  C  4.21063231  2.01761646  1.14282651
  C -1.41046312  0.08106093  0.21512476
  C -1.84837414  1.43179846  0.66304767
  O -3.09287044  1.69716368  0.27716573
  C -3.63405140  2.95997396  0.64695685
  O -1.14222336  2.18183148  1.28940138
  N -2.21950312 -0.78310226 -0.22774507
  C -1.50891661 -2.01654881 -0.53028384
  C -1.89839702 -3.04979470  0.54109578
  C -1.99358661 -2.51679019 -1.80458420
  N -2.39105528 -2.92101139 -2.79559973
  H  0.73220654 -3.66380021 -0.55602260
  H  0.88794125 -2.84493102  1.00190274
  H  1.98125390 -2.44506557 -0.31328188
  H -0.27053234 -0.52111439 -2.43460844
  H  1.41873739 -0.88711524 -2.05417351
  H  0.35146124 -2.15585501 -2.65301729
  H  0.19558109 -0.66154505  1.36216350
  H  0.84440077  1.22296437 -0.95769664
  H  2.21389619  0.45555162  1.66463282
  H  3.25252981  2.81051777 -1.50682111
  H  3.18537171  4.03689239 -0.24489674
  H  1.71326659  3.19729681 -0.72738273
  H  4.97750310  2.74934994  0.95969804
  H  4.43483129  1.26475245  1.87916715
  H -4.12992644  2.87709391  1.61519376
  H -2.84133308  3.70739287  0.71282949
  H -4.35685690  3.22854451 -0.11922002
  H -1.76542708 -4.06249941  0.16833148
  H -2.94691129 -2.90539110  0.79131913
  H -1.30525506 -2.91660454  1.44000081
