28
opt_min/./Product_3317_opt.xyz
  C -1.53693200  0.26149300  1.85595200
  C -1.72807319 -0.44603175  0.52522820
  C -2.41128508  0.50946005 -0.50362313
  C -3.91698897  0.26944212 -0.61690142
  N -1.75484330  0.21881774 -1.78075337
  N -0.82891829 -0.84369567 -1.55857434
  N -0.52065344 -0.90035280 -0.17539415
  C  0.76324135 -0.43807753  0.14644768
  C  1.31112977 -0.72208879  1.40005315
  C  2.60105130 -0.33698340  1.70428401
  C  3.37981365  0.32121697  0.76721256
  C  2.86172460  0.56458723 -0.49332468
  C  1.56939368  0.18813996 -0.80384716
  H -2.50603305  0.62346152  2.19266879
  H -1.14487858 -0.40541840  2.61680715
  H -0.86418013  1.10976072  1.75474142
  H -2.36685648 -1.32666334  0.67247783
  H -2.22882575  1.54839786 -0.20537012
  H -4.10101668 -0.61195111 -1.22470166
  H -4.35545885  0.12043823  0.36688528
  H -4.40432693  1.11719884 -1.08916752
  H -1.23484531  1.02240614 -2.12714075
  H -1.31028092 -1.71532118 -1.79825870
  H  0.73978974 -1.28459626  2.12020768
  H  3.00545670 -0.56338229  2.67992766
  H  4.38801125  0.62012669  1.00923700
  H  3.46661675  1.05608365 -1.24046892
  H  1.17598687  0.36228122 -1.79343574
