54
opt_min/./Product_2185_opt.xyz
  N  0.65144193  3.34572780  0.93086406
  C  0.40393032  2.24815701  0.71477739
  C  0.15851561  0.81913662  0.65373522
  C -0.35982620  0.58762256  2.00032294
  N -0.75341529  0.49402356  3.06853038
  C -0.83102537  0.17032266 -0.39647227
  C -1.87075064  1.04294308 -1.08065252
  C -1.86058265  2.42863798 -1.11828668
  C -2.82764827  3.13078100 -1.82134806
  C -3.81788569  2.46277951 -2.51411108
  C -3.83840112  1.07829292 -2.49010917
  C -2.87962931  0.37984503 -1.78332017
  C -1.55170570 -0.91257459  0.41296876
  C -2.79417931 -0.62642693  0.97453073
  C -3.44194523 -1.55328607  1.76816144
  C -2.86150403 -2.78250570  2.02473825
  C -1.62124723 -3.06874005  1.48519239
  C -0.96683703 -2.14370619  0.69076073
  C  0.13928419 -0.38999704 -1.48988507
  C -0.37036990 -1.62689384 -2.24956101
  C  0.47933996  0.69947246 -2.52260113
  N  1.30372567 -0.78035599 -0.70652033
  C  1.52221171  0.07625818  0.43335177
  C  2.74645435  0.99464738  0.21640889
  O  2.55720685  1.89420029 -0.74175291
  C  3.63709581  2.77636800 -1.03462046
  O  3.79127809  0.82579216  0.78818511
  C  1.89688221 -0.78099038  1.67033925
  O  1.98968644 -1.97491993  1.65358724
  O  2.11672162 -0.00020587  2.71417706
  C  2.43738622 -0.64244048  3.94310406
  H -1.10469615  2.99164230 -0.60196408
  H -2.79492186  4.20999073 -1.82366064
  H -4.56789202  3.01201253 -3.06301926
  H -4.60551891  0.53593020 -3.02264932
  H -2.92815841 -0.69696973 -1.76804337
  H -3.25691215  0.33499887  0.80670030
  H -4.40216266 -1.30554798  2.19576622
  H -3.36692216 -3.50545973  2.64712998
  H -1.14586209 -4.01665148  1.68617972
  H  0.00838331 -2.38425942  0.30262479
  H  0.44017950 -2.34576858 -2.33890379
  H -0.69970599 -1.35419075 -3.24839613
  H -1.18957976 -2.11933338 -1.73770552
  H  1.29596666  0.34675505 -3.15133787
  H -0.37640542  0.91027615 -3.15851624
  H  0.78610910  1.62477811 -2.04391996
  H  2.13406130 -0.95414888 -1.25747732
  H  3.60578739  3.62188332 -0.34608189
  H  4.58833177  2.25282618 -0.92649208
  H  3.48939816  3.11605544 -2.05723693
  H  1.51761300 -0.98712106  4.41940339
  H  3.09902681 -1.49047064  3.76074128
  H  2.92638487  0.10826387  4.55818752
