63
opt_min/./Product_2759_opt.xyz
  C -4.14549500 -2.65287300 -0.91998300
  O -2.85793672 -2.04658167 -0.91605909
  C -2.70630851 -1.05107856 -0.04033241
  O -3.58759420 -0.67824210  0.68162641
  C -1.32541989 -0.40742296 -0.05569842
  C -1.33241483  0.41208354  1.26628496
  O -1.26241500  1.61298958  1.29964189
  O -1.47212819 -0.34702814  2.32931157
  C -1.65357575  0.30275482  3.58000491
  C -0.04247174 -1.29194879 -0.15776202
  C  0.14399588 -2.05898191 -1.50467721
  C -0.54538661 -3.37911826 -1.70146599
  O  0.90438212 -1.63654299 -2.34140119
  C -0.02534750 -2.42288487  0.88001538
  C  1.16756022 -3.34119766  0.90976783
  O -1.00894925 -2.66159416  1.53643190
  C  1.00290800 -0.12390614 -0.23394226
  C  2.41549407 -0.54192547 -0.69819739
  O  2.96913247 -1.54582400 -0.30209371
  N  3.04556575  0.36304828 -1.46940782
  C  4.40970799  0.14175058 -1.89562415
  C  1.34848785  0.57940318  1.07334342
  C  1.44128814 -0.08929798  2.28453203
  C  1.83799670  0.57783937  3.43165278
  C  2.15718067  1.92218880  3.38558660
  C  2.08341863  2.59440792  2.17765251
  C  1.69408180  1.92668432  1.03336885
  N  0.36710140  0.81700825 -1.16659808
  C -1.08868039  0.60050025 -1.21392952
  C -1.89012929  1.91225455 -0.99823018
  N -1.15377373  3.02954873 -1.10080228
  C -1.72748521  4.34073750 -0.93386676
  O -3.10010615  1.89320009 -0.92823516
  C -1.56755961  0.08302893 -2.58588626
  H -4.10669948 -3.44750527 -1.66104918
  H -4.36958131 -3.05741214  0.06850381
  H -4.90604355 -1.91417550 -1.17798346
  H -2.72341874  0.38686243  3.77743983
  H -1.18127441 -0.32571952  4.33212778
  H -1.20162008  1.29575278  3.55922107
  H  0.18843298 -4.08906358 -2.08372914
  H -1.30434233 -3.26965058 -2.47390508
  H -1.01103123 -3.76612448 -0.80427674
  H  0.82499469 -4.34335483  1.16377658
  H  1.72374563 -3.34034382 -0.02001288
  H  1.86248444 -3.02605415  1.68583429
  H  2.60835992  1.23300027 -1.71687368
  H  5.10275504  0.28817617 -1.06267544
  H  4.65408108  0.83288596 -2.69693280
  H  4.51113860 -0.88671881 -2.24085519
  H  1.18052234 -1.13066124  2.35402542
  H  1.89146957  0.03853835  4.36600958
  H  2.46009003  2.44074110  4.28288492
  H  2.33122026  3.64425098  2.12552287
  H  1.64166626  2.46281891  0.09924370
  H  0.74329815  0.68060564 -2.10081859
  H -0.15164945  2.92831524 -1.09316824
  H -1.73303490  4.63727714  0.11785482
  H -1.16009895  5.06566276 -1.51581855
  H -2.75631457  4.30407945 -1.28937310
  H -1.78050386 -0.97980146 -2.57192741
  H -0.81755941  0.27731218 -3.35066492
  H -2.48507167  0.59567500 -2.87063592
