27
opt_min/./Product_125_opt.xyz
  C  3.63394300 -0.25501700  0.03572300
  O  2.26327882 -0.13971097 -0.33280928
  C  1.38193828 -0.18851090  0.67521420
  O  1.69058858 -0.27870602  1.82890709
  C -0.02203214 -0.06342945  0.10670302
  C -1.20751818 -0.28198885  1.07711755
 Cl -0.99674573  0.09412917  2.78026330
  C -1.59132214 -1.77723326  0.78026065
  C -2.45950870 -1.64792198 -0.45640641
  C -1.60678096 -1.33391786 -1.42392202
  C -0.23435786 -1.33849613 -0.78222290
  O -0.39498129 -2.30328746  0.24745338
  N -2.22428798  0.63840689  0.57474976
  N -1.79863208  1.42894413 -0.24226644
  C -0.36763541  1.31226018 -0.48246100
  C  0.27852254  2.48918467  0.27634578
  H  4.19177789 -0.33935733 -0.89310562
  H  3.95199451  0.62796271  0.59373625
  H  3.78014554 -1.13858706  0.65966189
  H -1.94154358 -2.34478057  1.63437907
  H -3.52134269 -1.77654837 -0.48300495
  H -1.80230717 -1.07374298 -2.44474370
  H  0.59960475 -1.57615806 -1.43752882
  H -0.15935595  1.39013622 -1.54991274
  H  0.52456780  3.29348580 -0.41022536
  H  1.18168525  2.17208628  0.78921807
  H -0.41527669  2.87245743  1.02281899
