46
opt_min/./Product_4756_opt.xyz
  C -0.63555500  3.87940200 -1.62490800
  C -0.14178623  2.83572256 -0.66506187
  C  0.46429166  3.40585096  0.58171109
  C -0.28811637  1.54385700 -0.93572497
  C  0.14328809  0.37829681 -0.09085948
  C -1.10484309 -0.28050132  0.53960344
  C -1.08131511 -0.52275383  2.03760521
  C -2.42240253 -0.74349466  2.68026427
  C  0.01444751 -0.53782210  2.78106135
  N -1.25432956 -1.51609710 -0.21319784
  C -2.37866317 -2.24016285 -0.32674158
  O -2.15069020 -3.36566615 -1.05641113
  C -3.28229174 -4.18803148 -1.26182794
  O -3.45282214 -1.95412666  0.15136547
  N -0.14443662 -1.81074553 -1.03491542
  C  0.81088064 -0.70846572 -0.96237937
  C  2.18980016 -1.20762251 -0.56864788
  C  2.96683801 -0.70845293  0.46537232
  C  4.21269716 -1.24831172  0.73933251
  C  4.70647537 -2.29532144 -0.01678628
  C  3.94922736 -2.79171961 -1.06454347
  C  2.70984106 -2.24720918 -1.33959255
  H -1.35870974  4.53100051 -1.13542689
  H -1.10469515  3.42772932 -2.49467474
  H  0.19424222  4.50065228 -1.96138848
  H  1.19239014  4.17288002  0.32329378
  H  0.94275989  2.65481522  1.20038595
  H -0.31747193  3.88013968  1.17767594
  H -0.78371398  1.25641326 -1.85575345
  H  0.81868594  0.73323327  0.67932729
  H -1.97782556  0.35798685  0.33028791
  H -2.52266116 -1.78540130  2.98108577
  H -3.23511445 -0.52175026  1.99704495
  H -2.52053803 -0.12345027  3.57094604
  H -0.05294708 -0.70277505  3.84368776
  H  1.01013382 -0.42861904  2.39313559
  H -3.08366608 -4.77148203 -2.15828429
  H -4.18095097 -3.57982428 -1.38913223
  H -3.42599819 -4.85283557 -0.40466779
  H  0.25726819 -2.71097676 -0.77663168
  H  0.92218302 -0.31443554 -1.98638538
  H  2.62642328  0.12552848  1.05921907
  H  4.80316580 -0.84377416  1.54872035
  H  5.67827160 -2.70954343  0.20542764
  H  4.32667325 -3.60117460 -1.67209773
  H  2.12790441 -2.63183711 -2.16500775
