49
opt_min/./Product_5152_opt.xyz
  C  5.39212800  0.38750200 -0.19786300
  C  4.88720936 -0.48712034  0.90895022
  C  5.96529558 -1.17542926  1.68927383
  C  3.59406956 -0.65970512  1.21700889
  C  2.46743267 -0.04626889  0.55944797
  C  1.20237346 -0.29566336  0.90906315
  C -0.02339010  0.25400208  0.23832412
  C  0.19264062  1.57556641 -0.49649780
  C -1.23977881  0.32575544  1.18306652
  C -2.39542835 -0.33448276  0.38477000
  C -3.23147220 -1.29952329  1.23030333
  C -4.12234771 -2.20369951  0.43237758
  O -3.16837414 -1.30235534  2.43284669
  C -3.38665019  0.68350011 -0.15115455
  C -3.62770270  0.82184282 -1.50978499
  C -4.52693339  1.77159923 -1.96388667
  C -5.19655983  2.58628947 -1.06719045
  C -4.96513231  2.44485440  0.29205457
  C -4.06833370  1.49683990  0.74951548
  N -1.76412885 -1.06279633 -0.70082992
  C -0.53954855 -0.76855808 -0.77697129
  C  0.38514285 -1.36642317 -1.78479350
  C  0.69629594 -2.81336060 -1.52735693
  O  0.84493482 -0.72333146 -2.69229153
  H  6.26006675 -0.06933143 -0.66967850
  H  4.63919575  0.56540033 -0.96070393
  H  5.70466090  1.35324835  0.20411197
  H  6.71212838 -0.44800046  2.01195423
  H  5.56467463 -1.67998776  2.56396422
  H  6.47423351 -1.90803704  1.06036484
  H  3.34160934 -1.32187732  2.03601021
  H  2.67825484  0.64851567 -0.23672925
  H  1.01009200 -0.99704320  1.71214165
  H  0.85263328  1.44238432 -1.34841888
  H -0.76137186  1.95115199 -0.86243550
  H  0.62232301  2.31093287  0.17977814
  H -1.06470045 -0.25984042  2.08773244
  H -1.47026532  1.34563217  1.47764091
  H -3.62175739 -2.50431807 -0.48496642
  H -5.01933361 -1.64628271  0.16456104
  H -4.41411223 -3.06512256  1.02752341
  H -3.10446340  0.18629031 -2.20823096
  H -4.70463815  1.87447572 -3.02357944
  H -5.89666466  3.32556618 -1.42376124
  H -5.48713420  3.07396831  0.99776783
  H -3.89687631  1.38044666  1.81018810
  H  1.34382892 -2.87592185 -0.65200779
  H  1.19675539 -3.25432224 -2.38654169
  H -0.22304695 -3.35374398 -1.30467956
