49
opt_min/./Product_5282_opt.xyz
  C  1.77099100  0.88318200  1.52895700
  C  0.35427498  0.37077062  1.32799385
  C  0.27155715 -1.08259659  0.84579729
  N  1.25272743 -1.41637994 -0.16436107
  C  1.33545593 -2.80730129 -0.56168604
  C  2.39409179 -0.66841005 -0.27986806
  C  2.68292488  0.44135456  0.42010274
  C  3.89685969  1.24008613  0.22822591
  N  4.67009000  0.96178533 -0.87701295
  O  4.25030648  2.09267632  1.02228032
  C -1.22057815 -1.13686471  0.36390708
  C -1.48815174 -2.14775956 -0.75728912
  C -1.52939319 -1.58801239 -2.15541209
  O -1.69015940 -3.31929952 -0.54538813
  C -2.01129531 -1.45233717  1.66813588
  C -2.20898786 -2.88176683  2.07074872
  O -2.42558202 -0.54073841  2.33703358
  N -1.51292223  0.20175226 -0.12899597
  C -2.91464164  0.56233564 -0.16385185
  C -0.52415070  1.17877757  0.34807550
  C -1.13385883  2.37535119  1.11483171
  C -1.85264996  3.44662267  0.33221950
  O -0.98871174  2.48797525  2.30410917
  C  0.24098494  1.69987008 -0.87868233
  H  1.77165892  1.97081837  1.60718157
  H  2.16942329  0.51144223  2.47766243
  H -0.16472248  0.41709055  2.29088349
  H  0.39364658 -1.77396585  1.69340263
  H  0.78815108 -2.99160066 -1.48704502
  H  2.37469586 -3.09473246 -0.71945557
  H  0.92081480 -3.45405930  0.21280539
  H  3.07410170 -1.04983528 -1.02877741
  H  4.27887470  0.53285959 -1.69607356
  H  5.42118292  1.61620108 -1.03286984
  H -0.97616021 -2.24842856 -2.81989483
  H -2.56277518 -1.58913456 -2.49704089
  H -1.13780866 -0.57958430 -2.19279262
  H -2.61683350 -2.90749600  3.07875623
  H -2.91068228 -3.35742427  1.38845850
  H -1.28243112 -3.44559871  2.02177818
  H -3.08576529  1.26415838 -0.98216927
  H -3.28477087  1.00072566  0.76713634
  H -3.49630472 -0.33493701 -0.37174446
  H -1.25749278  4.35681242  0.39714710
  H -2.01826991  3.20259298 -0.70869292
  H -2.80290345  3.65371505  0.82009388
  H  0.71760629  0.86912857 -1.38805869
  H  0.99639730  2.42463996 -0.59092557
  H -0.44211974  2.17196157 -1.57904952
