77
opt_min/./Product_3125_opt.xyz
  C  1.47173700 -4.32947000  0.19376600
  C  1.23880703 -2.90439263 -0.22029011
  O  0.95480892 -2.63133122 -1.35594644
  C  1.48697163 -1.76321392  0.82758379
  C  3.01507389 -1.86990548  1.10503549
  F  3.81281763 -1.82248400  0.03200024
  F  3.45075733 -0.95974341  1.98079293
  F  3.35574399 -3.05255551  1.67177288
  C  1.11976691 -0.43916627  0.02810771
  C -0.04354916  0.10189321 -0.43204298
  C -1.50388558 -0.17727097  0.01211046
  C -2.43163928 -0.60398190 -1.11037510
  C -2.68951591 -1.94445042 -1.36818970
  C -3.53509506 -2.32892654 -2.39518552
  C -4.14155597 -1.37705834 -3.19350032
  C -3.91978336 -0.03735602 -2.92748739
  C -3.08336169  0.34572737 -1.89708755
  C -2.09479517  0.95856815  0.82926325
  C -3.47171506  1.11264492  0.95222971
  C -4.00399217  2.09137838  1.77197097
  C -3.17607290  2.92445078  2.50423493
  C -1.80603446  2.74630316  2.43051887
  C -1.27825739  1.76573369  1.61015886
  C -1.14404312 -1.28477494  0.99290617
  C -1.73982710 -2.03105521  2.15884017
  C -0.46249223 -2.82281538  2.54251126
  C  0.90112420 -2.10382765  2.28161223
  C  0.23132818  1.01601940 -1.61636598
  C -0.44223504  2.40465325 -1.60493854
  C  0.12134773  3.39527874 -0.62418858
  O -1.29180356  2.71861262 -2.40075475
  C -0.12345346  0.23750256 -2.90767333
  N  1.64216801  1.28757095 -1.47270321
  C  2.38839822  1.81429418 -2.58134031
  C  2.27819842  0.26408185 -0.66750998
  C  3.24266642  1.01979582  0.22353316
  C  2.82164519  1.65353075  1.38451019
  C  3.68568011  2.44871478  2.11350053
  C  4.99040697  2.62995510  1.68838806
  C  5.42052234  2.00643305  0.53001801
  C  4.55295336  1.21088349 -0.19634978
  H  1.44864975 -4.50614537  1.26130388
  H  2.45488548 -4.61709416 -0.18066673
  H  0.74088958 -4.95677172 -0.31377711
  H -2.23608382 -2.71888514 -0.76994972
  H -3.71746763 -3.37938132 -2.56982470
  H -4.78953025 -1.67669851 -4.00358139
  H -4.39786738  0.72124963 -3.52994260
  H -2.95695503  1.39426372 -1.69018580
  H -4.13892343  0.46015293  0.40997185
  H -5.07690856  2.19586792  1.84357246
  H -3.59466640  3.69486093  3.13421346
  H -1.14434682  3.37001155  3.01408264
  H -0.20839045  1.62873842  1.58187748
  H -0.71016576 -2.06082291  0.36903103
  H -0.38091660 -0.74112982  1.52822973
  H -2.06988663 -1.36380570  2.95476718
  H -2.55678003 -2.70869451  1.92012108
  H -0.47877380 -3.75429518  1.97649926
  H -0.46376913 -3.08506467  3.60166885
  H  1.62298479 -2.77083031  2.75494438
  H  0.93726076 -1.18177475  2.86711806
  H -0.69579151  3.86688002 -0.08225583
  H  0.83097506  2.94152979  0.05570903
  H  0.63230327  4.17340173 -1.18972197
  H  0.74828618  0.19215222 -3.55417689
  H -0.42251409 -0.78137082 -2.68654315
  H -0.92719002  0.74092800 -3.43755217
  H  1.71891574  2.36419062 -3.23937521
  H  3.14978528  2.50487012 -2.20947916
  H  2.89478095  1.03157388 -3.16601907
  H  2.84063481 -0.43653602 -1.30791759
  H  1.81083988  1.50975311  1.73816014
  H  3.33902752  2.92258226  3.02033026
  H  5.66830512  3.24576024  2.26008640
  H  6.43810186  2.13606103  0.19098515
  H  4.90198566  0.72260219 -1.09492290
