62
opt_min/./Product_2641_opt.xyz
  C  5.77884900 -1.81568200  0.14855100
  O  4.81535786 -0.77556695  0.05166806
  C  3.56358234 -1.17246875 -0.23038545
  O  3.26232679 -2.32954579 -0.37850331
  C  2.61954451 -0.05930398 -0.38984962
  C  2.62210770  1.25728742 -0.10545916
  C  3.43004661  2.18349878  0.71269977
  C  4.42200460  1.59510807  1.67400427
  O  3.25329383  3.37841955  0.61782622
  C  1.30947249  1.76633096 -0.69231529
  C  0.22136323  1.28914022  0.30958521
  C  0.24341516 -0.22832484  0.05969071
  C  1.29158068 -0.29759838 -1.10438155
  O  1.10109251  0.91440839 -1.79636400
  C -1.21027560 -0.65593420 -0.25991844
  C -1.24210471 -1.50603275 -1.55095203
  N -2.09045642 -1.06109603 -2.49111932
  C -2.26170916 -1.71489845 -3.76312943
  O -0.55605428 -2.49947467 -1.68746008
  C -1.77866147 -1.50033792  0.87532162
  C -2.62665433 -2.57130176  0.62100682
  C -3.17134519 -3.30508802  1.66020145
  C -2.89501822 -2.96861705  2.97392573
  C -2.07910798 -1.88331169  3.23977392
  C -1.52846776 -1.15538389  2.20003980
  N -1.97104948  0.58886016 -0.43520852
  C -3.33506306  0.61750224  0.04602834
  C -1.20586187  1.76363862 -0.04442008
  C -1.23173233  2.81632913 -1.13196625
  C -1.29111258  2.47572298 -2.47548066
  C -1.32320747  3.46176041 -3.44583141
  C -1.29305723  4.79791905 -3.08618257
  C -1.21907351  5.14551779 -1.74788717
  C -1.19432264  4.15970965 -0.77780637
  H  5.55029235 -2.46528687  0.99611741
  H  6.73994546 -1.32864352  0.28901586
  H  5.77858277 -2.41753891 -0.76207317
  H  4.71914531  2.34850096  2.39773615
  H  4.01768461  0.71849598  2.17151871
  H  5.29600573  1.28154059  1.10689498
  H  1.28979046  2.81736715 -0.95608034
  H  0.47332933  1.55822352  1.33640444
  H  0.63477664 -0.81879202  0.88595933
  H  1.23276387 -1.16711351 -1.74682654
  H -2.60141036 -0.21403421 -2.29788846
  H -1.47788972 -2.46530159 -3.85776407
  H -3.23460681 -2.21039947 -3.81977105
  H -2.18069612 -0.99257231 -4.57515406
  H -2.85955311 -2.84987597 -0.39513894
  H -3.81676241 -4.14228974  1.43977383
  H -3.31834097 -3.54270249  3.78445890
  H -1.86798313 -1.60011638  4.26075007
  H -0.91388995 -0.29693356  2.43127868
  H -3.42330210  0.45678411  1.12927563
  H -3.75582287  1.59175654 -0.20045447
  H -3.92584206 -0.14968617 -0.45504129
  H -1.65448452  2.22401219  0.85230178
  H -1.27473391  1.43721234 -2.75923883
  H -1.37056145  3.18594559 -4.48920421
  H -1.32153587  5.56585032 -3.84514536
  H -1.18357202  6.18496800 -1.45692564
  H -1.13501258  4.43725371  0.26541028
