72
opt_min/./Product_3007_opt.xyz
  C  1.70613570 -3.32735894 -1.13029700
  C  0.56648614 -2.49961443 -0.50328084
  C  0.45221023 -2.98667912  0.86509426
  N  0.40604235 -3.38208778  1.93715597
  C  0.90857757 -1.02677459 -0.38381237
  C  0.19340062  0.10234101 -0.49521916
  C -1.24866391  0.35139279 -0.90258929
  C -1.52327240  1.86295892 -0.91044708
  C -2.20406851  2.47926538  0.13464486
  C -2.47147636  3.83604023  0.11367246
  C -2.05093400  4.61677663 -0.94654950
  C -1.35805427  4.02187306 -1.98503169
  C -1.10107895  2.66263442 -1.96873305
  C -2.22546702 -0.26597649  0.10346002
  C -3.59226878 -0.17722735 -0.16256800
  C -4.52726433 -0.70083712  0.70890586
  C -4.12152163 -1.32142154  1.87928300
  C -2.77236150 -1.39423228  2.16834837
  C -1.83803579 -0.86432634  1.29369725
  C -1.59163459 -0.21064500 -2.32917887
  C -0.56917453 -1.09702810 -3.04106629
  C -0.76169702 -2.57327358 -2.70627404
  C -0.75705544 -2.84839564 -1.20714702
  C  1.12265958  1.27525844 -0.13193541
  C  1.57152697  1.90062922 -1.37661603
  N  2.05807529  2.27245452 -2.34366172
  C  0.63888848  2.30963783  0.86730006
  C  0.77897415  3.66727005  0.61215576
  C  0.40041544  4.59452374  1.56640923
  C -0.10118280  4.17462502  2.78509538
  C -0.20390622  2.82112977  3.05657446
  C  0.17552443  1.89145298  2.10721750
  O  2.26670952  0.66823011  0.46133306
  C  2.29858237 -0.71226502  0.13611483
  C  3.46299908 -0.98263759 -0.79734013
  C  4.65635956 -1.46234029 -0.27309741
  C  5.75518775 -1.65411466 -1.08985487
  C  5.67712479 -1.36426673 -2.44142330
  C  4.49447026 -0.87698095 -2.97024895
  C  3.39517160 -0.68530610 -2.15242526
  H  1.97665871 -2.93524501 -2.10599854
  H  1.37410766 -4.35868804 -1.23870422
  H  2.59316200 -3.32053727 -0.50229844
  H -2.53271391  1.90574964  0.98702738
  H -3.00954580  4.28136059  0.93751845
  H -2.25724162  5.67644713 -0.96186588
  H -1.01176428  4.61448068 -2.81868338
  H -0.55488093  2.23804660 -2.79695081
  H -3.93268636  0.32948576 -1.05406480
  H -5.57820552 -0.61962772  0.47408353
  H -4.85070027 -1.73387170  2.55982447
  H -2.43166398 -1.86772086  3.07669514
  H -0.79581201 -0.94354962  1.55354172
  H -1.80407465  0.63738471 -2.97849371
  H -2.51976368 -0.77987124 -2.26031157
  H  0.44806779 -0.77708833 -2.82127430
  H -0.71375529 -0.97849733 -4.11845063
  H -1.73166380 -2.89364042 -3.09675061
  H  0.00041673 -3.16946844 -3.21039067
  H -0.94113860 -3.91488428 -1.04198378
  H -1.57924546 -2.31057687 -0.73809937
  H  1.17637148  4.00222423 -0.33423846
  H  0.50516078  5.64854437  1.35616403
  H -0.39748546  4.90044562  3.52770464
  H -0.57445028  2.48498322  4.01372982
  H  0.11462270  0.83855120  2.33274170
  H  2.48119176 -1.25420340  1.08025083
  H  4.72436308 -1.68354200  0.78342747
  H  6.67579991 -2.02950993 -0.66772806
  H  6.53427360 -1.51367706 -3.08032984
  H  4.42695845 -0.64206434 -4.02177272
  H  2.48148583 -0.29936848 -2.57755422
