45
opt_min/./Product_2154_opt.xyz
  F -0.58555984  1.22258885  2.90866678
  C -1.42402403  0.66790183  2.03062630
  F -1.97719351 -0.37854780  2.65829255
  F -2.43324560  1.53196308  1.84394792
  C -0.77817830  0.30443533  0.67944415
  C  0.50538850 -0.57675330  0.78171958
 Cl  0.79946666 -1.19465617  2.43571139
  C  0.13500886 -1.79441081 -0.08383580
  C -0.04083183 -1.37506560 -1.55234251
  C -1.44038184 -0.73354014 -1.57412183
  C -1.77521662 -0.61565099 -0.08509551
  C -1.31241061 -2.01150334  0.36382848
  C  1.65560317  0.33512248  0.31259083
  C  2.68414773 -0.33154146 -0.61256856
  O  3.03916840 -1.53455875 -0.15028816
  C  4.03822556 -2.21639255 -0.90714429
  O  3.15156854  0.18192906 -1.58417375
  C  2.50958322  1.03294529  1.44212116
  C  3.42608950  0.19991346  2.28485832
  O  2.43462476  2.22321553  1.52874219
  O  1.05071656  1.36703196 -0.43618314
  C -0.26371962  1.61327263  0.00522555
  C -0.28517222  2.79603546  0.87438709
  N -0.28290068  3.77517378  1.46110582
  C -1.06580498  2.15287809 -1.21392810
  O -0.60534416  2.30017045 -2.30543585
  O -2.28229407  2.49351008 -0.81735876
  C -3.14027890  3.11502349 -1.77251139
  H  0.81992476 -2.62487950  0.05951624
  H  0.01333438 -2.24818173 -2.20006453
  H  0.71643896 -0.66583449 -1.88257457
  H -1.46051725  0.19358817 -2.13117920
  H -2.17047454 -1.39930468 -2.03430146
  H -2.81042987 -0.34948842  0.12289360
  H -1.80601610 -2.80195436 -0.19578734
  H -1.41932917 -2.21377552  1.42496015
  H  3.63350831 -2.51811691 -1.87418660
  H  4.89717945 -1.56426939 -1.07074095
  H  4.31782903 -3.08705540 -0.32035135
  H  4.38750917  0.70752748  2.33531552
  H  3.54745303 -0.81344825  1.91990172
  H  3.02553584  0.17397409  3.29757498
  H -3.67715426  3.90049165 -1.24595658
  H -2.55132101  3.52929587 -2.59170514
  H -3.84209968  2.37320551 -2.15633573
