32
opt_min/./Product_4247_opt.xyz
  C -0.85605217  0.85212975  2.78310501
  O -1.09426211  1.67744755  3.62466026
  C -1.14923500 -0.58490547  2.93500821
  C -1.36400208 -1.36956511  1.87532807
  C -1.36542158 -0.87695386  0.48625615
  O -1.83092234 -1.53439042 -0.41594232
  C -0.76422791  0.49570555  0.22960464
  C -0.17867811  1.19322758  1.46189241
  N  1.20889308  0.72500258  1.49426823
  C  1.74881228  0.22496355  2.58121386
  N  2.23446596 -0.17553976  3.54267697
  N  1.62655491  0.24538888  0.20884878
  C  0.49835294  0.40519134 -0.68137894
  C  0.44306471 -0.81805116 -1.64476894
  N -0.37133560 -0.67806975 -2.68903534
  C -0.59757134 -1.77788994 -3.60219495
  O  1.13256014 -1.78760544 -1.41490495
  C  0.64319940  1.65734208 -1.54570347
  C  2.04893451  2.06725038 -1.82621781
  O -0.33594375  2.21051034 -1.98779690
  H -1.23355375 -0.95331660  3.94719223
  H -1.62525634 -2.41290792  1.97750189
  H -1.51856815  1.11692525 -0.26788159
  H -0.18188771  2.28385255  1.32201978
  H  1.90047594 -0.74203821  0.25765264
  H -0.94806589  0.14433443 -2.77355083
  H -0.80192592 -2.68462819 -3.03247410
  H -1.44604747 -1.54606991 -4.23693746
  H  0.28695232 -1.94775884 -4.21659246
  H  2.06983928  2.88946442 -2.53287241
  H  2.60940594  1.21755023 -2.20852681
  H  2.52190477  2.36393086 -0.89145877
