39
opt_min/./Product_454_opt.xyz
  C  0.20322800 -3.17099000  0.54193500
  O -0.68967355 -2.09173641  0.35302300
  C -0.24607083 -0.93061793 -0.31484272
  C  0.41773065 -1.24075322 -1.64875948
  C -1.50275282  0.01495388 -0.39264693
  C -1.63081290  0.75098936 -1.72656996
  C -2.80778348 -0.70056097 -0.06696495
  C -1.11753670  1.06284452  0.70063936
  C -2.06813660  2.26008825  0.77921905
  C -1.51262266  3.58249518  0.33302340
  O -3.20290606  2.11194112  1.14031144
  N  0.25955009  1.29221131  0.36129535
  C  0.69996470 -0.07212781  0.61977447
  C  2.18816425 -0.29169371  0.54957011
  O  2.83178391  0.87866262  0.52225045
  C  4.25464977  0.81924811  0.48212053
  O  2.73371128 -1.36190782  0.54694351
  C  0.03073844 -0.35273881  1.99758135
  O  0.42020169 -1.01956807  2.90093785
  O -1.07964394  0.39088932  1.98519255
  H  0.50499440 -3.62170146 -0.40809345
  H -0.36881925 -3.89405475  1.12072877
  H  1.09291375 -2.87336869  1.10045724
  H -0.27987662 -1.77560499 -2.28904450
  H  0.73659894 -0.32305712 -2.13352351
  H  1.29459347 -1.86221786 -1.48305832
  H -0.74498065  1.34707909 -1.93012312
  H -1.78503384  0.04080608 -2.53420738
  H -2.49603408  1.40985246 -1.68804793
  H -2.83251292 -0.98602681  0.98125164
  H -3.64942217 -0.04147465 -0.26594858
  H -2.89784985 -1.59897655 -0.67162770
  H -0.43995804  3.65641096  0.46906205
  H -1.72862541  3.69420189 -0.72998856
  H -2.02808297  4.38023826  0.86463843
  H  0.72524972  1.93564421  1.00070411
  H  4.58834789  0.65654028 -0.54462141
  H  4.61429339  1.77713435  0.84883320
  H  4.61424687  0.00079090  1.10843604
