53
opt_min/./Product_1793_opt.xyz
  F  2.35269700 -1.48461000  0.91128200
  C  1.73408128 -0.74945561 -0.08016241
  C  0.24039554 -1.13313717 -0.18489501
  C  0.18020683 -1.86269634 -1.52897565
  C  0.98715925 -3.16281773 -1.37942698
  C  2.45379205 -2.69040538 -1.43969711
  C  2.31438770 -1.16418808 -1.44586904
  C  1.11336743 -0.99694822 -2.37615812
  C -0.53951624  0.20025177 -0.07728248
  C -1.44848790  0.51394633 -1.26336486
  C -1.17144968  1.59034886 -2.09748450
  C -2.01261163  1.88984647 -3.15405274
  C -3.14187510  1.12734886 -3.38794898
  C -3.43201240  0.06426255 -2.55241467
  C -2.59634828 -0.23715636 -1.49285494
  C -1.43539473  0.26718431  1.16212322
  C -1.62827943  1.50187340  1.77218759
  C -2.45513774  1.62698384  2.87316165
  C -3.11363393  0.51828531  3.37595202
  C -2.94052967 -0.71095528  2.76464509
  C -2.10941476 -0.83657239  1.66503659
  O  0.44446977  1.23393744  0.00855952
  C  1.73968015  0.75869843  0.28825578
  C  2.69623558  1.53768007 -0.62114557
  O  3.97422979  1.27202427 -0.33481696
  C  4.95298713  1.95232336 -1.10708643
  O  2.35688753  2.29755877 -1.48467625
  C  2.08876272  1.03375344  1.76563775
  H -0.02189893 -1.76721893  0.66451060
  H -0.82491380 -2.01087735 -1.91044942
  H  0.75700656 -3.86682327 -2.18208960
  H  0.76802909 -3.64912837 -0.42913731
  H  2.92717656 -3.01102284 -2.37095000
  H  3.05103002 -3.06952677 -0.61269150
  H  3.21149468 -0.62188326 -1.72932303
  H  0.78632997  0.02960262 -2.48701480
  H  1.30053781 -1.42203019 -3.36460086
  H -0.29168389  2.18903749 -1.91754869
  H -1.78051823  2.72809668 -3.79779698
  H -3.79867125  1.36421301 -4.21334642
  H -4.31969639 -0.53259009 -2.72111539
  H -2.84959284 -1.05667105 -0.83679661
  H -1.11936654  2.36206491  1.36645696
  H -2.58994871  2.59381505  3.33728165
  H -3.76020259  0.61132135  4.23500281
  H -3.45398560 -1.58190615  3.14602612
  H -1.99572885 -1.80860367  1.20843895
  H  4.67813278  3.00347743 -1.21495928
  H  5.89330677  1.84766724 -0.57081639
  H  5.03088676  1.49941670 -2.09930464
  H  2.10422174  0.11580038  2.34626419
  H  3.05792965  1.51797142  1.85720467
  H  1.32153446  1.69195828  2.17020543
