51
opt_min/./Product_1983_opt.xyz
  C -1.77738800 -1.96140700 -1.09373100
  C -0.96313652 -1.14613315 -0.08042262
  C  0.55561677 -0.88540127 -0.35505047
 Cl  0.96512446 -1.12971573 -2.05935448
  C  1.21400375 -1.91682037  0.60326118
  C  0.74362531 -3.32713237  0.31822081
  C -0.49448070 -3.38335272  0.78753800
  C -0.79452391 -1.96821645  1.26287733
  O  0.47545464 -1.59783480  1.77091191
  C  0.83867908  0.56654041  0.16909813
  C  1.82659520  1.41498818 -0.66654206
  N  2.89742030  0.73380579 -1.15550356
  C  3.93516222  1.41698301 -1.89714329
  O  1.75450040  2.61642519 -0.76333096
  C  1.48281001  0.65651045  1.61861719
  O  0.82735875  1.04942099  2.55364055
  N  2.80256783  0.40373378  1.71278155
  C  3.49792302  0.52331431  2.97554376
  N -0.47220221  1.14086406  0.37146504
  C -0.68741563  2.57024372  0.36600868
  C -1.55265375  0.29125967 -0.03285517
  C -1.96230447  0.76040145 -1.47683855
  C -3.37798422  0.67661460 -1.97623519
  O -1.10410908  1.28117136 -2.14514816
  C -2.69825465  0.26090893  0.99357210
  C -2.39442648  0.78397505  2.36236141
  O -3.76452243 -0.23573256  0.71061129
  H -1.81273280 -3.01524354 -0.84008383
  H -1.37237717 -1.87456406 -2.09872956
  H -2.80211693 -1.60450417 -1.08699596
  H  2.28368990 -1.80879331  0.75519212
  H  1.33008360 -4.07264873 -0.17890123
  H -1.15752723 -4.22114839  0.87569709
  H -1.56626735 -1.83443894  2.01121625
  H  2.92338895 -0.27281727 -1.16500896
  H  3.55818546  2.40032646 -2.17416382
  H  4.83140092  1.54488099 -1.28416460
  H  4.18761784  0.85378186 -2.79409190
  H  3.35366594  0.19569638  0.89627725
  H  3.93139009  1.52011558  3.08957324
  H  4.28743885 -0.22400476  3.03316597
  H  2.77533633  0.36193144  3.77318595
  H  0.00930956  3.02944654  1.06382423
  H -0.55326468  3.02076902 -0.62108720
  H -1.70480990  2.75905653  0.70374873
  H -3.50124453 -0.22616892 -2.57080451
  H -3.54932122  1.52631206 -2.63616453
  H -4.10654120  0.66701380 -1.17330328
  H -1.32664153  0.90190918  2.52544131
  H -2.88648858  1.74798716  2.48546756
  H -2.83110347  0.11153008  3.09952988
