49
opt_min/./Product_1379_opt.xyz
  C -4.27750815  1.04554332 -0.40747380
  N -3.10534456  0.20246146 -0.47752296
  C -2.04862253  0.40999454  0.32738262
  O -2.02805169  1.29216010  1.16490888
  C -0.81452373 -0.48606129  0.12806670
  C  0.39005778  0.47562433 -0.21768539
  C -0.09262559  1.76051063 -0.66092820
  N -0.48448176  2.73904353 -1.10825130
  C  1.00034298 -0.22247736 -1.45654623
  C  1.57419349 -1.58765839 -1.05769280
  C  0.32236576 -2.47135314 -0.92263479
  C -0.82611252 -1.46521657 -1.07311362
  C -0.28556681 -0.59864828 -2.20812474
  C  1.16423014  0.51575974  1.12167387
  C  0.70895163  1.62875444  2.12855395
  C  0.93758958  3.06408402  1.76538460
  O  0.27391848  1.28784111  3.19379409
  C  2.66430226  0.66072709  1.00347747
  C  3.46620584  0.06645077  1.97220108
  C  4.83902548  0.21931283  1.93124511
  C  5.42631115  0.97908075  0.93267512
  C  4.63051967  1.58893424 -0.02052890
  C  3.25467946  1.43983523  0.01575927
  O  0.87687383 -0.73910250  1.71950221
  N -0.42278690 -1.18507181  1.34387897
  C -1.32485442 -1.19644287  2.47730238
  H -3.97703643  2.00225568  0.01787417
  H -5.04142322  0.60108059  0.23502052
  H -4.68475771  1.19541646 -1.40492962
  H -3.09231994 -0.52187163 -1.17460688
  H  1.68868262  0.40057064 -2.02333111
  H  2.26488437 -1.95682209 -1.81482375
  H  2.11712082 -1.52916951 -0.11735975
  H  0.26310399 -3.18948968 -1.74101138
  H  0.28546579 -3.00920178  0.02069666
  H -1.78004850 -1.96997495 -1.22189288
  H -0.90444213  0.26594201 -2.44554554
  H -0.08551431 -1.16325687 -3.11644967
  H  0.00599756  3.46267703  1.36590712
  H  1.17283617  3.61448972  2.67355389
  H  1.72466961  3.19379865  1.03074495
  H  2.99892345 -0.52312591  2.74516243
  H  5.45121939 -0.24630809  2.68844261
  H  6.49823574  1.10326023  0.90282566
  H  5.07892642  2.18930596 -0.79841888
  H  2.65044802  1.94560809 -0.72342860
  H -0.83352846 -1.77261160  3.25816450
  H -2.23311009 -1.71153309  2.16607172
  H -1.56819324 -0.20564168  2.86851352
