42
opt_min/./Product_1130_opt.xyz
  C -0.41506136 -2.47714696  0.87139395
  C -0.06467406 -1.05201655  0.68253561
  C  1.11658179 -0.44969758  0.80501941
  C  2.46973562 -1.00703622  1.10767409
  O  3.09702792 -0.67565865  2.08975434
  N  2.87918203 -1.92984182  0.21573185
  C  4.20846328 -2.49146212  0.27697697
  C  0.95872382  1.03533087  0.58219457
  C  1.92045126  1.58381959 -0.50651975
  N  1.49313030  2.74627026 -1.01635272
  C  2.20524041  3.44494219 -2.05844523
  O  2.92676840  1.00146631 -0.83364756
  C  1.16974017  1.78103872  1.81749510
  N  1.22269663  2.41479766  2.76689242
  O -0.40519662  1.20919891  0.16782559
  C -1.11981136 -0.00893066  0.39660905
  C -2.11817954  0.10515814  1.58178789
  O -2.73976912 -0.85765288  1.97317851
  N -2.21666695  1.33912609  2.08106533
  C -3.06019038  1.65556218  3.20721513
  C -1.95181790 -0.29318429 -0.86729684
  O -1.82454884 -1.24782018 -1.58211869
  O -2.82466937  0.68776414 -1.04792063
  C -3.68415725  0.58680805 -2.17997699
  H -0.93664012 -2.84191530 -0.01341123
  H -1.10032769 -2.56833045  1.71321054
  H  0.47707625 -3.06857152  1.05223854
  H  2.34566162 -2.07098456 -0.62664938
  H  4.93517174 -1.82494970 -0.19491521
  H  4.47954460 -2.60863335  1.32516350
  H  4.21939012 -3.45719520 -0.22262992
  H  0.60399412  3.11294858 -0.71370432
  H  1.54211201  3.65774989 -2.89817081
  H  3.02025582  2.80557667 -2.39230907
  H  2.61550414  4.38097386 -1.67601047
  H -1.65155063  2.07019070  1.67664576
  H -2.48224098  1.66004963  4.13355656
  H -3.83558708  0.89407274  3.27751562
  H -3.51846785  2.63257374  3.06275805
  H -3.93762379 -0.45799427 -2.36512468
  H -4.57259257  1.16655889 -1.94330672
  H -3.18643598  0.99839393 -3.06005167
