25
opt_min/./Product_3299_opt.xyz
  C -2.81757902  0.13719229 -0.39891178
  C -1.48575954 -0.44313026 -0.89930110
  C -0.51336512 -0.22894977  0.28816401
  C -0.62360996 -1.36995575  1.18357894
  N -0.70332805 -2.27652642  1.87525788
  C  0.95786254 -0.08968504 -0.04022846
  C  1.79434253  0.38880122  0.96450695
  C  3.14871947  0.53834061  0.73588293
  C  3.68692405  0.20946313 -0.49724953
  C  2.85984449 -0.27691267 -1.49352870
  C  1.50207173 -0.43284498 -1.26824334
  N -1.01889301  0.94833950  1.00363946
  C -2.46516650  0.81094169  0.94812919
  H -3.20923680  0.86638039 -1.10808638
  H -3.57202802 -0.63423489 -0.25998226
  H -1.12461606  0.12645004 -1.75749396
  H -1.55702832 -1.49140721 -1.18177837
  H  1.36670416  0.64875797  1.92087824
  H  3.78807475  0.90597973  1.52479641
  H  4.74543542  0.32127782 -0.67740989
  H  3.27030787 -0.53516896 -2.45896633
  H  0.88388466 -0.83673868 -2.05580140
  H -0.72664896  1.77592610  0.48897697
  H -2.95090862  1.77403985  1.09368042
  H -2.75255762  0.15201506  1.77424014
