46
opt_min/./Product_5242_opt.xyz
  C -1.52175700  1.40535400 -1.07237903
  C -2.90841605  0.96355170 -1.42265360
  C -3.40078327 -0.18018418 -0.95447286
  N -2.69920874 -1.04877111 -0.15716292
  C -3.26476776 -2.29961048  0.26313170
  C -1.33215918 -0.79267475  0.14610029
  C -0.63943443  0.17247514 -0.83871045
  C -0.36768456 -0.57959505 -2.15609582
  N  0.13600898  0.18678627 -3.12946017
  O -0.62886542 -1.75916138 -2.27589433
  C  0.65585175  0.53499890 -0.06786965
  C  1.24790131  1.89413621 -0.50191830
  N  1.80066319  2.60052528  0.49088867
  C  2.41397983  3.88418956  0.23316031
  O  1.26223433  2.27015289 -1.65635866
  C  1.76373873 -0.48690474 -0.41308789
  O  2.41835720 -0.39924633 -1.42711034
  N  1.96031262 -1.46761276  0.49156875
  C  2.94978035 -2.49763278  0.26156468
  N  0.23270008  0.57024628  1.32362475
  C -1.01845252 -0.16599564  1.54158586
  C -0.92602252 -1.20815564  2.66505956
  C -2.03391573  0.79808968  1.94422332
  N -2.81421072  1.54470704  2.31812086
  H -1.10910998  2.03629055 -1.85839138
  H -1.53834726  2.00500244 -0.15328490
  H -3.50633284  1.59317813 -2.05729760
  H -4.40085723 -0.50226432 -1.20195802
  H -4.18442540 -2.48472012 -0.28785415
  H -2.56999165 -3.11829298  0.05430256
  H -3.49938951 -2.29971773  1.33478581
  H -0.78496630 -1.74747528  0.09947172
  H  0.59492934  1.06029463 -2.88280433
  H  0.44319388 -0.28269592 -3.96727415
  H  1.73817978  2.27248670  1.43979720
  H  1.66248004  4.60689978 -0.09242848
  H  3.15125576  3.77992936 -0.56462543
  H  2.89714936  4.24279923  1.13723997
  H  1.36964625 -1.56564579  1.29940126
  H  2.66099202 -3.40589517  0.78515472
  H  3.00791858 -2.69001032 -0.80975129
  H  3.93445118 -2.17235650  0.60718560
  H  0.95234434  0.32942491  1.99465843
  H -0.46619895 -0.76845631  3.55035568
  H -0.34812891 -2.07599604  2.34842623
  H -1.92190520 -1.54719658  2.94115524
