43
opt_min/./Product_5270_opt.xyz
  O -0.14593200  2.00864900 -3.20600200
  C  0.90298685  1.54573602 -3.21746932
  O  1.94549953  1.08172189 -3.25568231
  C -0.40658813 -0.67093818 -1.45537361
  C -1.69812807 -0.79496479 -1.19616338
  C -2.93283942  1.92570091 -2.10268083
  O -2.37223228  2.44894546 -1.25031561
  O -3.48584512  1.41947437 -2.96208418
  C -1.95500899 -0.86155489  0.28686753
  C -2.46736041 -2.27820752  0.61873593
  C -3.05600489  0.15263072  0.65863218
  C -2.69960447  1.24390709  1.62832794
  O -4.15849606  0.04755353  0.18036413
  N -0.65517318 -0.52602407  0.83914828
  C -0.30976984 -0.87565946  2.19726254
  C  0.39159691 -0.62925562 -0.17726704
  C  1.24336541  0.65167607 -0.09388910
  N  0.49656102  1.76304574 -0.15501008
  C  1.06559627  3.08742926 -0.06726300
  O  2.45500490  0.68591277  0.05124050
  C  1.15479292 -1.98285513 -0.07085834
  O  0.59022335 -3.01277770 -0.38957440
  N  2.38571615 -1.93868220  0.45274807
  C  3.19179547 -3.13612780  0.54342639
  H  0.07155026 -0.73510396 -2.41433837
  H -2.49719925 -0.92624013 -1.90162542
  H -2.62655755 -2.39589911  1.68789009
  H -1.73261182 -3.00451415  0.27924970
  H -3.41063907 -2.44631114  0.10688915
  H -3.03850742  0.93586680  2.61712121
  H -1.63083312  1.41748503  1.66321098
  H -3.23327927  2.15421433  1.36584059
  H -1.21343277 -1.09350524  2.75957316
  H  0.34703878 -1.74877463  2.25495912
  H  0.19964585 -0.03155040  2.67314369
  H -0.49450234  1.69138661 -0.33047078
  H  1.33299492  3.47566638 -1.05306683
  H  0.34497812  3.75869761  0.39383897
  H  1.96935577  3.03291411  0.53909054
  H  2.83616859 -1.02867224  0.50057741
  H  3.01485323 -3.77156626 -0.32591973
  H  4.24173484 -2.86319818  0.59433891
  H  2.92178577 -3.70408899  1.43697776
