47
opt_min/./Product_4354_opt.xyz
  C -0.10407100 -0.93666500  1.94027900
  C -0.13197025 -0.61509850  0.45028003
  C  0.15633799  0.87688633  0.25760598
  C  0.83829305 -1.48519224 -0.37976542
  C  2.31815110 -1.27954409 -0.36282081
  C  3.09284231 -0.70855384  0.55806153
  C  4.54148997 -0.56979345  0.46665296
  C  5.23764656 -1.07654974 -0.76299017
  C  5.22207246  0.00532459  1.45803175
  C  0.27720072 -1.32347994 -1.80699034
  N -1.11480484 -0.94110662 -1.65488320
  C -2.02164608 -1.50661672 -2.61598707
  C -1.49794530 -0.96019716 -0.24263652
  C -2.07183058 -2.33524050  0.16716223
  C -2.54407882  0.10756182  0.03241915
  C -2.77174643  1.12938290 -0.88494931
  C -3.70222620  2.12104831 -0.63851450
  C -4.42726824  2.11772572  0.54167047
  C -4.21903202  1.10353864  1.45942785
  C -3.28940987  0.10991882  1.20755957
  H  0.84125367 -0.61684052  2.36900059
  H -0.21243570 -1.99684720  2.13815712
  H -0.89625800 -0.39114642  2.45023198
  H  1.17782705  1.10976089  0.53476466
  H -0.52096422  1.47127890  0.86631480
  H  0.01954395  1.16444659 -0.77770839
  H  0.66783511 -2.52771396 -0.07133792
  H  2.78088736 -1.70907903 -1.24198434
  H  2.66928514 -0.31564360  1.47049079
  H  4.84849528 -0.58019499 -1.64918438
  H  5.07648079 -2.14745282 -0.87503955
  H  6.30520026 -0.88902655 -0.70281719
  H  4.73251317  0.37410447  2.34481582
  H  6.29115182  0.12850818  1.42272046
  H  0.82211842 -0.51615774 -2.32239787
  H  0.39339315 -2.23516075 -2.40429816
  H -2.06038635 -2.60746467 -2.60491953
  H -3.02423829 -1.11736839 -2.44644387
  H -1.70182205 -1.20211370 -3.61419577
  H -1.43134345 -3.13972114 -0.18848924
  H -3.05531599 -2.46038422 -0.28050980
  H -2.18400265 -2.43797943  1.23975090
  H -2.21622525  1.13653389 -1.81010358
  H -3.85671333  2.90306999 -1.36798464
  H -5.14925236  2.89463712  0.74896388
  H -4.78294225  1.08238697  2.38114617
  H -3.15358709 -0.67024195  1.94083917
