26
opt_min/./Product_75_opt.xyz
  N -0.63316757  3.47733909 -0.71213680
  C -0.43660922  2.42489386 -0.31160736
  C -0.20690628  1.10761912  0.21344517
  C -0.92689808 -0.03482698 -0.55324929
  C -2.01967105 -0.43607308  0.50192474
  C -1.26515908 -1.22392815  1.55134466
  C -0.57874052 -0.31447251  2.23435503
  C -0.94631346  1.01352182  1.60889176
  O -2.26360186  0.79209983  1.16123040
  N  0.06135800 -1.07422446 -0.80434387
  C  0.34167569 -1.31681598 -2.20686987
  N  1.24682280 -0.78355470 -0.07842421
  C  1.28888944  0.66800681  0.15955535
  C  2.01824877  1.04164171  1.35095807
  N  2.57220080  1.33306910  2.30609808
  C  1.93288556  1.28670792 -0.99737168
  N  2.41629440  1.72564367 -1.93337911
  H -1.37306130  0.30534814 -1.49166747
  H -2.93468496 -0.85023845  0.09445762
  H -1.26372674 -2.29158145  1.63631581
  H  0.11462407 -0.42824484  3.04502984
  H -0.85858925  1.90151759  2.22942882
  H -0.53503191 -1.79464278 -2.64132413
  H  1.19015624 -1.99389616 -2.26514089
  H  0.57920485 -0.40715901 -2.77246003
  H  1.22792643 -1.29665788  0.80092457
