45
opt_min/./Product_5498_opt.xyz
  C -1.15393501  1.49682253  0.78683394
  O -1.14973843  2.08250517  1.84039116
  C -1.04617829 -0.05537907  0.73260667
  O -2.40144400 -0.35415953  0.58663029
  C -2.84306842 -1.67903435  0.33451985
  C -0.06395124 -0.47308265 -0.40271582
  O -0.10254847 -1.81330510 -0.85259849
  C  0.23872480 -2.94317255 -0.07862679
  C -0.37827004  0.26487855 -1.72052070
  O -0.22787480 -0.29310952 -2.77701122
  C -0.92750835  1.63551950 -1.65060614
  C -1.02430264  2.35008689 -2.95799955
  C -1.34847803  2.18377862 -0.49233789
  C -1.91854756  3.55944621 -0.39296919
  C  1.30120030 -0.09339785  0.26066088
  C  2.43994346 -0.90035321 -0.37342675
  O  3.10823888 -1.64175526  0.51897485
  C  4.22113445 -2.36914787  0.00646604
  O  2.74029758 -0.81355424 -1.52863310
  C  1.73820047  1.37160483  0.05779483
  N  1.11346861 -0.33448380  1.68849455
  C -0.29788725 -0.50131090  2.03124452
  C -0.60992088  0.28739021  3.24051503
  N -0.77627974  0.66777397  4.30613246
  C -0.59850352 -1.83223439  2.54163273
  N -0.75375629 -2.84238132  3.05603584
  H -2.59717754 -2.34884584  1.16104554
  H -2.44576560 -2.05922346 -0.60840667
  H -3.92565112 -1.58713794  0.26395918
  H  1.12542787 -2.80706819  0.54000488
  H -0.58993512 -3.28472811  0.54397908
  H  0.44884659 -3.71324852 -0.82325016
  H -0.61713792  1.72168701 -3.74585232
  H -0.47266920  3.28807683 -2.91906143
  H -2.06202445  2.58172250 -3.19468397
  H -2.57415724  3.62357788  0.47201542
  H -2.46103681  3.83235299 -1.29240012
  H -1.11189655  4.27938533 -0.24521831
  H  4.98230531 -1.67600864 -0.35522674
  H  4.60100083 -2.96353499  0.83291303
  H  3.90412630 -3.00868233 -0.81917422
  H  2.77882849  1.46532542  0.36592468
  H  1.65816852  1.65949396 -0.98587551
  H  1.15022272  2.03737210  0.68152217
  H  1.70614175 -1.07135739  2.04962871
