32
opt_min/./Product_395_opt.xyz
  C -2.50612594  2.32858803 -1.24732407
  O -1.79369255  1.22928045 -0.68646153
  C -0.52133637  1.09963207 -1.03591556
  O  0.09796512  1.84748036 -1.74335607
  C  0.06137616 -0.12732405 -0.41947066
  C  0.02729513 -1.38688097 -0.97438884
  C -0.62962827 -1.78931287 -2.22959759
  O -1.29002553 -1.03198673 -2.89225460
  O -0.38762450 -3.06983682 -2.51212952
  C -0.95173090 -3.60695200 -3.70467664
  N  0.71415887 -2.21373277 -0.11022241
  C  0.93404770 -3.52068922 -0.24652144
  N  1.13345419 -4.64155071 -0.34154942
  N  1.16334020 -1.53195591  0.94994201
  C  0.79802892 -0.27596834  0.79709658
  C  1.10127557  0.72830548  1.80857219
  C  1.22181746  2.07628967  1.47607657
  C  1.50599103  3.00395075  2.46200465
  C  1.67175445  2.60324504  3.77696859
  C  1.56443662  1.26138983  4.10719225
  C  1.28426907  0.32591991  3.13077111
  H -2.09307092  2.57862068 -2.22614788
  H -3.54310028  2.01220155 -1.33729176
  H -2.43009272  3.19374495 -0.58629795
  H -1.58383490 -4.45131136 -3.43297331
  H -1.53643758 -2.83874275 -4.21444239
  H -0.13405323 -3.94510144 -4.34123679
  H  1.11869274  2.39469715  0.45137170
  H  1.60232116  4.04697142  2.19789523
  H  1.88967749  3.33118076  4.54359354
  H  1.69961618  0.94639108  5.13121484
  H  1.19972032 -0.72241086  3.37022926
