41
opt_min/./Product_449_opt.xyz
  C -2.26146300  2.75128800 -0.32441000
  O -1.27513839  1.74044559 -0.15110162
  C -1.55939166  0.51834934 -0.60870940
  O -2.59515660  0.24162411 -1.15593542
  C -0.47517363 -0.51212766 -0.35386142
  C  0.98877095 -0.06313406 -0.09080704
  C  1.17310381  1.31764676  0.53914931
  O  1.22685115  1.49896662  1.72780880
  O  1.33213765  2.27828724 -0.37253543
  C  1.53157411  3.59666440  0.11874310
  C  1.68799788 -0.21406863 -1.46783904
  C  2.10059516 -1.67771958 -1.61611524
  C  0.73245737 -2.38843393 -1.64353280
  C -0.28768541 -1.24030200 -1.71184325
  C  0.51106126 -0.15677596 -2.44420187
  O  1.47541280 -1.04029454  0.81743052
  N  0.42239009 -1.54556016  1.61583210
  C -0.86373050 -1.30876129  0.94013325
  C -1.75131999 -0.47039932  1.87681516
  C -1.55990600 -2.65177155  0.65611666
  H -2.94800416  2.46317629 -1.12272847
  H -2.81783447  2.87522779  0.60650190
  H -1.73708528  3.67128734 -0.57374050
  H  0.99678268  3.72787271  1.06094963
  H  2.59718214  3.76892681  0.28087011
  H  1.15437923  4.27616726 -0.64218703
  H  2.48113174  0.51259073 -1.62214874
  H  2.64644267 -1.81742785 -2.54961845
  H  2.72603836 -2.01477699 -0.79337211
  H  0.62962287 -3.01667666 -2.52885944
  H  0.59358045 -3.00751789 -0.76354511
  H -1.23901908 -1.51796318 -2.16236546
  H  0.01755882  0.81310271 -2.47825092
  H  0.79792029 -0.44534934 -3.45457768
  H  0.44568189 -1.00811328  2.48464296
  H -1.67126750 -0.86808154  2.88803283
  H -2.79446305 -0.51729754  1.57221744
  H -1.43283055  0.56968736  1.90293662
  H -0.87019586 -3.46637836  0.86084437
  H -2.42143845 -2.77107134  1.30613183
  H -1.89948971 -2.72334973 -0.37081358
