45
opt_min/./Product_5624_opt.xyz
  O -1.27821400 -3.83853800  0.39170300
  C -2.02004050 -2.83922847 -0.12622170
  O -2.28015898 -2.89922610 -1.29307877
  C -2.35951929 -1.69094320  0.79787573
  C -1.10332910 -1.32966410  1.58171410
  C -0.49679428 -2.53166559  2.24562245
  O -0.81963208 -3.75285280  1.71652345
  O  0.14540532 -2.54861326  3.24903685
  C -0.24001748 -0.57874977  0.50904286
  C  0.35563695  0.70842960  1.14150765
  N  1.01333171  1.45422211  0.24012197
  C  1.68415496  2.68209701  0.59364794
  O  0.19195576  1.01920411  2.29900349
  C  0.90336045 -1.45165595  0.02597178
  C  1.98179011 -1.62060887  0.89437183
  C  3.04531879 -2.43101067  0.54756510
  C  3.05478210 -3.08065270 -0.67589330
  C  1.99417645 -2.91132612 -1.54607488
  C  0.92462356 -2.10074171 -1.20130004
  N -1.18516077 -0.12727173 -0.51957416
  C -2.53292958 -0.42925850 -0.06752848
  C -3.09245788  0.72124262  0.80924706
  C -2.62067208  2.09453401  0.43990301
  O -3.85647729  0.48935347  1.70445648
  C -3.61975051 -0.62155465 -1.14078410
  C -3.44705433  0.14589687 -2.41899751
  O -4.59922187 -1.26383453 -0.88068701
  H -3.23339634 -1.91480757  1.41239288
  H -1.32021301 -0.60134795  2.37398252
  H  1.12362288  1.10391564 -0.69760674
  H  2.75591528  2.51983799  0.73045708
  H  1.52989639  3.42800079 -0.18434980
  H  1.26110605  3.03454120  1.53268902
  H  1.97775993 -1.11980952  1.85105252
  H  3.86461543 -2.55694748  1.23822991
  H  3.88165267 -3.71903664 -0.94642670
  H  1.98575328 -3.41623222 -2.49992741
  H  0.10502694 -2.02456203 -1.90239515
  H -0.99563132 -0.56220505 -1.41594890
  H -2.03257087  2.08873135 -0.47046685
  H -3.47908847  2.75669609  0.34912083
  H -2.00919892  2.46613021  1.26137736
  H -2.40921414  0.27309712 -2.70623932
  H -3.99738327 -0.35724248 -3.20945674
  H -3.88617369  1.13226451 -2.27042024
