47
opt_min/./Product_2104_opt.xyz
  C -4.25468699 -1.04376474  2.17192716
  N -2.97095049 -1.16316872  1.51370166
  C -2.51993941 -0.16932975  0.73916614
  O -3.18426772  0.81604645  0.48698171
  C -1.18846398 -0.34471265 -0.02112285
  C  0.16783773 -0.99806503  0.40917246
  C  0.42546248 -1.52842713  1.80852785
  F -0.54452890 -2.33300006  2.28867038
  F  0.59784299 -0.57646914  2.72557608
  F  1.52981998 -2.28952812  1.82773319
  C  0.26018155 -2.16268147 -0.65048204
  C -0.84465154 -3.14552434 -0.31984784
  C -1.95680154 -2.55887388 -0.74234619
  C -1.50266945 -1.22363707 -1.29708092
  O -0.22667987 -1.52876170 -1.80526726
  C  1.22577858  0.09526699  0.06454724
  C  2.58610919 -0.47056602 -0.33888951
  O  2.71489325 -0.55952988 -1.65210290
  C  3.93574796 -1.08246436 -2.16365750
  O  3.42639873 -0.78229769  0.46275023
  N  0.57735171  0.84525376 -0.98718325
  C  1.30416575  1.96164942 -1.56247118
  C -0.73493404  1.08355685 -0.42493845
  C -1.65217607  1.71364084 -1.34852667
  N -2.33758270  2.22174986 -2.10897149
  C -0.67692176  1.94129785  0.88215060
  O -1.11193070  1.59392938  1.94567888
  O -0.03023111  3.08070475  0.67536746
  C  0.07938643  3.94773461  1.80100609
  H -4.64232230 -2.03738990  2.38173472
  H -4.16304685 -0.48213625  3.10390235
  H -4.93241533 -0.50523462  1.51086796
  H -2.41350212 -1.96663837  1.73570826
  H  1.25569726 -2.57261785 -0.78943142
  H -0.69183597 -4.09086705  0.16071770
  H -2.97095203 -2.90226859 -0.72558241
  H -2.13717324 -0.73421710 -2.02888243
  H  1.40137596  0.71243580  0.96825271
  H  4.58402864 -0.25678453 -2.46234965
  H  3.67961628 -1.68637804 -3.03165684
  H  4.43858607 -1.68238747 -1.40277536
  H  0.68793149  2.85839013 -1.57523540
  H  1.57006038  1.70479295 -2.58933135
  H  2.21658979  2.17593528 -1.00173065
  H -0.91192021  4.16091141  2.20299903
  H  0.55423306  4.85449073  1.43640620
  H  0.68481701  3.47848215  2.57917503
