41
opt_min/./Product_4028_opt.xyz
  C -1.14723249 -2.99220874  1.35170416
  C -0.49519140 -2.11714391  0.27974042
  C  0.81780828 -2.75520591 -0.18571406
  C -0.33201338 -0.64445251  0.77665763
  C  1.08367703 -0.15000948  0.79989699
  C  1.66031211  0.51222259 -0.20049026
  C  3.02088059  1.03151653 -0.24432143
  C  3.38882212  1.69865277 -1.53893970
  C  3.89038289  0.94427098  0.76052704
  N -1.16878091  0.10657813 -0.16211116
  C -1.44508659  1.45038708 -0.09090350
  C -2.25330774  2.03909052 -1.06907677
  C -2.53719571  3.38698376 -1.01799187
  C -2.02780357  4.17778104  0.00013063
  C -1.23004526  3.59831522  0.97203127
  C -0.93709287  2.24860053  0.93588828
  N -1.75067438 -0.68272788 -1.08285210
  C -1.43147558 -1.90290074 -0.90302235
  C -1.92665607 -2.99559593 -1.77482519
  H -2.09018135 -2.56023258  1.68320004
  H -1.34485828 -3.98737082  0.95926599
  H -0.48576166 -3.08917599  2.21105753
  H  1.59678850 -2.62976375  0.56217562
  H  1.16132676 -2.30059289 -1.11269677
  H  0.67200479 -3.82034577 -0.35246774
  H -0.75552436 -0.55080505  1.78701789
  H  1.62450115 -0.37770194  1.70767488
  H  1.07081636  0.71310612 -1.08697243
  H  3.29668352  0.99403634 -2.36528508
  H  4.40863827  2.07269984 -1.51316604
  H  2.71494882  2.53214094 -1.73505037
  H  4.88509949  1.34885473  0.69453952
  H  3.63886723  0.47499789  1.69596324
  H -2.64620214  1.41597563 -1.85664703
  H -3.16265927  3.82738645 -1.78152103
  H -2.25007209  5.23351904  0.03557083
  H -0.82793040  4.20318539  1.77225265
  H -0.30794027  1.81964950  1.69977393
  H -2.50559965 -2.57164899 -2.59024641
  H -1.09513118 -3.56915987 -2.18316036
  H -2.56158212 -3.67811130 -1.20947483
