48
opt_min/./Product_1565_opt.xyz
  C -5.33176286 -0.03353903 -1.10905854
  O -3.92887002 -0.25449652 -1.12951838
  C -3.35714566 -0.70931009  0.00269327
  O -3.96896833 -0.90145070  1.02555065
  C -1.91819380 -0.87878703 -0.19804298
  C -0.92203273 -1.18090257  0.66298112
  C -0.88471674 -1.54108320  2.06447320
  C  0.21880300 -1.18407497  2.84425013
  C  0.27834153 -1.53436683  4.17888907
  C -0.74852452 -2.26734647  4.75222436
  C -1.83369420 -2.64885784  3.98100502
  C -1.90753854 -2.29042515  2.64892430
  C  0.34079593 -0.98494249 -0.17244582
  C  0.48800722  0.57108446 -0.28816519
  C -0.63657986  0.88169099 -1.29771839
  C -1.22144910 -0.54916596 -1.51044365
  O -0.07728190 -1.36627766 -1.45615845
  C  0.10710866  1.42704232 -2.54462762
  C  0.11970995  2.98458095 -2.54834703
  C -0.52024484  1.00055385 -3.78384744
  N -1.02209168  0.72839305 -4.77334079
  N  1.41593512  0.82692547 -2.39521400
  C  1.78157584  0.99050807 -1.01152426
  C  3.02124766  0.17171502 -0.64854748
  N  3.34202447  0.26697052  0.66588613
  C  4.44398043 -0.46193132  1.24954885
  O  3.67507831 -0.45401766 -1.44549584
  H -5.52005192  0.91649130 -1.60713096
  H -5.82655183 -0.84184091 -1.65012923
  H -5.68902352 -0.00564429 -0.07677922
  H  1.02554676 -0.61940754  2.40131271
  H  1.13210780 -1.23895204  4.77282628
  H -0.69850780 -2.54330036  5.79500330
  H -2.63035885 -3.23041364  4.42150698
  H -2.75160778 -2.58816222  2.05145261
  H  1.22736093 -1.52829139  0.13733062
  H  0.37242025  1.05787032  0.67897003
  H -1.40633687  1.56748882 -0.95016956
  H -1.78679119 -0.69955348 -2.42358550
  H -0.65757911  3.37204604 -3.20418877
  H  1.08737958  3.33703121 -2.90581766
  H -0.04427122  3.37044237 -1.54367653
  H  2.11826959  1.12138888 -3.06007311
  H  2.00414769  2.04950660 -0.74574413
  H  2.76477322  0.81128858  1.28680989
  H  4.08375797 -1.29335769  1.86054900
  H  5.04245599 -0.85463715  0.42860707
  H  5.05368282  0.20223834  1.86302660
