40
opt_min/./Product_3876_opt.xyz
  C -3.09506980 -0.88738229  0.78712443
  C -1.87695314  0.00334023  0.59111410
  C -0.53708790 -0.70044619  0.90098806
  C -0.04161608 -0.35196464  2.30884814
  C  0.38625539 -0.26181050 -0.29652703
  C  0.44846283 -1.36041295 -1.25674918
  N  0.61737154 -2.26218367 -1.94312409
  C  1.89294267 -0.20770638 -0.05637719
  C  2.73603477  0.64840319 -0.75105975
  C  4.10677553  0.60575580 -0.55645587
  C  4.66559947 -0.31697129  0.30731745
  C  3.84282167 -1.24010212  0.93188030
  C  2.47616671 -1.19623998  0.73949666
  N -0.24776426  0.92425538 -0.88470553
  C  0.11956366  2.14901237 -0.18703529
  C -1.69399857  0.61110766 -0.82684417
  C -2.02198846 -0.37593141 -1.95688624
  C -2.58017491  1.84274538 -1.02657199
  H -3.10031721 -1.28452357  1.80053044
  H -4.00771037 -0.31303105  0.64451252
  H -3.10100026 -1.72286685  0.09252645
  H -1.98444602  0.85157274  1.27657923
  H -0.68569342 -1.78380027  0.84466802
  H -0.37532504  0.63888107  2.61226635
  H  1.04152572 -0.36557037  2.38690405
  H -0.44112026 -1.06713072  3.02506109
  H  2.34090011  1.32488455 -1.49246070
  H  4.73717489  1.29479721 -1.09956080
  H  5.73350277 -0.34761568  0.46282163
  H  4.27495716 -2.00520084  1.55958452
  H  1.86067632 -1.95868516  1.19089264
  H  0.08605699  2.06265056  0.90442702
  H  1.12644437  2.44551748 -0.46834238
  H -0.54262789  2.95055367 -0.49572328
  H -1.80632776 -1.40412738 -1.68950311
  H -1.43373282 -0.11860316 -2.83442608
  H -3.07419807 -0.31590058 -2.22161449
  H -3.60458624  1.52448362 -1.20153946
  H -2.24852130  2.40651807 -1.89514154
  H -2.58808611  2.49426402 -0.15554112
