40
opt_min/./Product_846_opt.xyz
  C -0.81520502 -2.35508900  0.58404299
  C -0.96521608 -1.40766472 -0.57271026
  O -1.35725627 -1.78014151 -1.64695694
  C -0.56061004  0.07136821 -0.37982159
  C -0.92178143  0.84129441  0.94347694
  C -1.68724713  0.12162495  1.93671282
  N -2.29781947 -0.42827376  2.73124096
  C -1.70007516  2.06891092  0.42682286
  C -3.06384680  1.53900681 -0.04234115
  C -2.71726413  0.80315836 -1.35646089
  C -1.18967104  0.96790718 -1.46500959
  C -1.06983302  2.39341631 -0.92855646
  N  0.39497543  1.04846029  1.59892745
  O  1.12527373  2.07478092  0.86262201
  C  1.53087711  1.49415341 -0.28120562
  O  2.23052989  1.99523471 -1.10063903
  C  0.99575379  0.04037115 -0.19640125
  C  1.68472025 -0.91839237 -1.14518016
  O  2.30144286 -1.89792549 -0.48942564
  C  2.96502562 -2.88494626 -1.27947914
  O  1.64719789 -0.78101877 -2.33353266
  N  1.05169130 -0.12863691  1.25568155
  C  2.34811342 -0.25343803  1.89725072
  H -1.81017636 -2.53734405  0.99150102
  H -0.44596744 -3.30623314  0.20114289
  H -0.17567770 -1.98584251  1.37460152
  H -1.74373987  2.87326501  1.15887681
  H -3.74717804  2.36949876 -0.21709601
  H -3.52589508  0.87914433  0.69132065
  H -3.03596137 -0.23503907 -1.34816570
  H -3.18702271  1.28345367 -2.21512848
  H -0.78216152  0.76862803 -2.45290086
  H -1.70479119  3.07639683 -1.49501237
  H -0.08021292  2.82873254 -0.90937830
  H  2.87325912 -3.82796212 -0.74297413
  H  2.49598771 -2.95036714 -2.26265550
  H  4.01469919 -2.61167408 -1.39404400
  H  2.25806179  0.17154249  2.89579655
  H  3.15174553  0.25487669  1.35854483
  H  2.58211294 -1.31414480  1.97530315
