54
opt_min/./Product_2979_opt.xyz
  C -3.37757500 -2.24430800 -2.23129300
  N -2.96835071 -1.51630392 -1.04761597
  C -2.94731576 -0.17339400 -1.05069485
  O -3.37903335  0.48117183 -1.97504471
  C -2.34936444  0.42385218  0.25003180
  C -0.87038994  0.14036390  0.18324671
  C  0.11895354  0.42164869 -0.71241604
  C  0.25968248  1.47724585 -1.70947685
 Br  1.73407540  2.82718194 -1.01463605
 Br  1.04499582  0.80601401 -3.37402981
  C -0.91397267  2.36265284 -2.05456760
  C -1.40568150  3.28094915 -0.92759677
  C -2.80499764  2.93217561 -0.43076382
  C -2.80903982  1.84129031  0.63531167
  C  1.14856488 -0.71756192 -0.56893780
  C  2.64566622 -0.46604916 -0.81336458
  O  3.24870546 -0.99367950 -1.71654581
  N  3.22167054  0.33085136  0.10876986
  C  4.61000709  0.71833732  0.00799520
  C  0.67703775 -1.86255112 -1.50813086
  O -0.24225075 -1.76054107 -2.27713543
  O  1.35738664 -2.95784223 -1.25841045
  C  0.99940924 -4.12460734 -1.98815109
  N  0.90837927 -1.23330778  0.77634949
  N -0.42796254 -0.83943403  1.07329023
  C -1.18326526 -1.77794483  1.83247640
  N -1.80472557 -1.21768836  2.89295664
  C -2.57548075 -2.03267693  3.80927938
  O -1.24779756 -2.94563621  1.53980239
  H -3.02263704 -3.26739660 -2.16260926
  H -4.46533107 -2.23628008 -2.32347786
  H -2.94683059 -1.76654968 -3.11086007
  H -2.53711691 -2.04743296 -0.30842583
  H -2.73160073 -0.21471145  1.05251105
  H -1.72618926  1.71183695 -2.38842364
  H -0.61781692  2.97459187 -2.90838446
  H -1.41908249  4.30418814 -1.30326627
  H -0.71742706  3.25386583 -0.07965148
  H -3.25402975  3.81730401  0.02199461
  H -3.42875510  2.62821434 -1.26920273
  H -2.18560654  2.16839857  1.47386250
  H -3.83208696  1.74416581  1.00338925
  H  2.65499351  0.85444003  0.75759127
  H  4.70091417  1.80095948  0.08873502
  H  4.97908635  0.39653722 -0.96437607
  H  5.19761165  0.23694035  0.79179551
  H  0.65320839 -3.85297717 -2.98616232
  H  0.20791706 -4.65586776 -1.45633639
  H  1.89375112 -4.73940471 -2.04328677
  H  1.52914413 -0.80751760  1.46841821
  H -1.60301227 -0.26361079  3.14369407
  H -1.96462399 -2.85102241  4.19427822
  H -3.43130673 -2.46507589  3.28987990
  H -2.92357882 -1.41721366  4.63250047
