53
opt_min/./Product_5249_opt.xyz
  C  5.17226100 -2.02299200  1.07561000
  C  4.27175008 -1.28442130  0.13355971
  C  4.97512193 -0.50752526 -0.94280024
  C  2.94307758 -1.30068021  0.29253783
  C  1.97902306 -0.59969386 -0.51890896
  C  0.66732960 -0.65581410 -0.28684264
  C -0.37523369  0.07477807 -1.10148348
  C -0.27213374 -0.39576360 -2.55551332
  C -0.11851794  1.59626562 -0.97024221
  C -1.24286559  2.11814401 -0.06399623
  C -0.72851272  3.11273584  0.95630683
  O -0.07510319  4.10438341  0.32716337
  C  0.47687462  5.14626081  1.12252105
  O -0.88195316  3.06408468  2.14738270
  N -1.81269715  0.93961714  0.53835343
  C -3.04817714  1.18952946  1.24706999
  C -1.81092161 -0.10391941 -0.49123778
  C -2.91960867  0.15652012 -1.53729359
  C -1.98592330 -1.47035153  0.14619327
  C -1.82834293 -1.62485339  1.52283136
  C -1.96916336 -2.86195813  2.12368312
  C -2.25545912 -3.97941567  1.35919503
  C -2.38201728 -3.84692567 -0.01118362
  C -2.24696876 -2.60653699 -0.61121473
  H  5.74039506 -1.31401201  1.67926120
  H  4.60685364 -2.66839382  1.74205726
  H  5.88724535 -2.63060384  0.52227896
  H  5.99104604 -0.87025580 -1.07449602
  H  5.02927732  0.54800789 -0.67533316
  H  4.45599013 -0.58828637 -1.89496708
  H  2.52257361 -1.88498027  1.10000761
  H  2.36971001 -0.00514181 -1.33402694
  H  0.31583917 -1.24095049  0.54702491
  H -0.82054253  0.24634971 -3.23772008
  H -0.64873091 -1.41017004 -2.65095150
  H  0.77020731 -0.39586287 -2.86355351
  H -0.10999267  2.10522870 -1.93423785
  H  0.84836664  1.76825520 -0.50075321
  H -1.99148409  2.67888869 -0.66318557
  H  1.55122970  5.18038323  0.94156557
  H  0.02049090  6.08950257  0.82220919
  H  0.27813181  4.95073159  2.17821124
  H -3.69538416  1.91618790  0.73148112
  H -2.80916391  1.59734218  2.22775067
  H -3.59911987  0.26007700  1.37197710
  H -2.58752098  0.85244707 -2.30052384
  H -3.78485080  0.58779258 -1.04154421
  H -3.25025835 -0.75500699 -2.02021166
  H -1.57713545 -0.76029864  2.11704385
  H -1.84882348 -2.95354734  3.19294193
  H -2.36843993 -4.94738657  1.82537178
  H -2.58597458 -4.71360009 -0.62291362
  H -2.33957560 -2.54712175 -1.68535226
