60
opt_min/./Product_5950_opt.xyz
  C  1.46287402  0.55284516 -1.45042598
  O  1.38354051  1.22601235 -2.46109017
  C  1.83818185 -0.85508574 -1.45807505
  O  2.32243850 -1.49174158 -2.54118758
  C  2.65029052 -0.78278512 -3.72002599
  C  1.66175630 -1.65048674 -0.34268830
  O  2.05521357 -2.93356544 -0.50650852
  C  1.76847664 -3.93507084  0.44877475
  C  1.13090586 -1.13399625  0.91904346
  O  1.19033324 -1.77913224  1.95202563
  C  0.51526121  0.25824773  0.89540876
  C  0.50083385  0.83777276  2.32051370
  C  1.27826159  1.18789999 -0.07297217
  C  2.71962944  1.51534251  0.33807165
  C  0.27902379  2.36803914 -0.19881896
  C  0.46634615  3.52468662  0.83173340
  C -0.79444256  4.07833679  1.42878882
  O  1.55067360  3.98776942  1.06888356
  C  0.33876597  3.12634470 -1.44201369
  N  0.20265791  3.87888015 -2.29476020
  N -1.02997383  1.74334922 -0.04324371
  C -0.93420081  0.32124736  0.28875937
  C -1.11568046 -0.60564440 -0.91283743
  C -1.20546868 -1.98107723 -0.70483695
  C -1.34049183 -2.85573394 -1.76430402
  C -1.40275045 -2.37390383 -3.06162607
  C -1.35617357 -1.01112162 -3.27894850
  C -1.22005795 -0.13371496 -2.21455159
  C -2.06331822 -0.02240717  1.25924738
  C -3.29400578  0.60647008  1.09834822
  C -4.36654811  0.29061687  1.91248466
  C -4.23326054 -0.66872715  2.90006055
  C -3.01803120 -1.30897426  3.06106267
  C -1.94337181 -0.99291072  2.24784464
  H  3.19439169 -1.50052671 -4.33261708
  H  1.75668163 -0.44271226 -4.24401061
  H  3.28753489  0.07869867 -3.50767474
  H  2.05240349 -4.86882745 -0.03663837
  H  2.35163397 -3.80106140  1.36154985
  H  0.70769513 -3.96476337  0.70369173
  H  1.35908512  1.47890370  2.49348020
  H  0.54687157  0.03083689  3.04708705
  H -0.40447230  1.40852802  2.49725479
  H  2.76651209  2.21101195  1.16917378
  H  3.24233683  1.97896720 -0.49745960
  H  3.23365182  0.59475636  0.60991916
  H -1.68436952  3.67226482  0.96354186
  H -0.80656433  3.84180839  2.49163795
  H -0.77086597  5.16245713  1.33874410
  H -1.65052494  1.92296696 -0.82181614
  H -1.17716991 -2.36929725  0.30157830
  H -1.39681708 -3.91772982 -1.57703897
  H -1.49651610 -3.05688208 -3.89194917
  H -1.41993645 -0.61598828 -4.28177090
  H -1.17421121  0.92254378 -2.43981403
  H -3.42263090  1.35218068  0.33031397
  H -5.31064169  0.79537620  1.76982259
  H -5.06892700 -0.91740677  3.53667750
  H -2.90070004 -2.06200353  3.82636871
  H -1.01018801 -1.50700629  2.40612170
