45
opt_min/./Product_5278_opt.xyz
  C -1.22232900 -0.23639900  1.37225300
  O -1.27842373 -0.48269054  2.55799562
  C -2.41524938  0.08836997  0.57753493
  O -3.64579026 -0.30226379  0.94555493
  C -3.79537042 -1.34400623  1.89665184
  C -2.31904360  0.91787729 -0.51814047
  O -3.48448383  1.23940707 -1.12717045
  C -3.56508918  2.39814578 -1.93758549
  C -1.02928885  1.29754002 -1.09760541
  O -0.94488393  1.76877762 -2.21593398
  C  0.23627144  1.06071417 -0.26020080
  C  0.47634097  2.36508143  0.49596496
  C  0.09559574 -0.18939467  0.62661779
  C  1.23628690 -0.34482360  1.63539247
  C  0.18806088 -1.26167832 -0.48746718
  C  0.39467848 -2.66991784  0.05551398
  C  1.68526647 -3.34158948 -0.30128370
  O -0.47352950 -3.18121547  0.71614217
  O  1.21403316 -0.81137750 -1.34797597
  C  1.34458452  0.60941919 -1.24393910
  C  2.78878688  0.99865291 -0.89020428
  N  3.65042561 -0.03057275 -0.98615860
  C  5.07305309  0.12313023 -0.81738973
  O  3.11860414  2.12951878 -0.60267882
  H -4.83263624 -1.66151443  1.81003606
  H -3.59953736 -0.98422055  2.90842331
  H -3.12950500 -2.18292538  1.68281210
  H -4.62688846  2.63333247 -1.99614596
  H -3.02621004  3.24006822 -1.50084441
  H -3.17418485  2.20410151 -2.93867035
  H  1.44314633  2.36902057  0.98771927
  H  0.46331728  3.19755354 -0.20307282
  H -0.30988251  2.50586629  1.23531188
  H  1.19777920  0.45964713  2.36463304
  H  2.20400782 -0.33387573  1.14445113
  H  1.11166711 -1.28160908  2.17364232
  H -0.77069949 -1.28720289 -1.03840308
  H  2.46747698 -2.93794311  0.34069915
  H  1.94206976 -3.13295819 -1.33545969
  H  1.60901443 -4.41053856 -0.12607697
  H  1.14531778  1.06097609 -2.22813441
  H  3.28527037 -0.91465683 -1.30592341
  H  5.44600234 -0.58297124 -0.07370426
  H  5.25539986  1.14104181 -0.47788424
  H  5.59924930 -0.03912589 -1.75997472
