36
opt_min/./Product_141_opt.xyz
  C  0.62284200  2.22432400  1.65145100
  C -0.34748256  1.98970494  0.48636979
  C -0.06299320  3.00595463 -0.61444368
  C -0.33844334  0.49420082  0.01690062
  C -1.05560150  0.33186930 -1.33462767
  C  1.06290599 -0.07927689 -0.03227061
  C  1.64863639 -0.71719811  1.05927720
  C  2.93884084 -1.20858745  0.99960242
  C  3.69224889 -1.06382317 -0.15234543
  C  3.13172036 -0.42699193 -1.24174720
  C  1.83593440  0.05573873 -1.18210336
  C -1.28359969 -0.09402226  1.10573591
  C -1.82022571 -1.46892364  0.75231910
  C -3.31122079 -1.65881554  0.85134984
  O -1.06886459 -2.36273520  0.45301413
  N -2.25067864  0.95290670  1.39441066
  O -1.68868146  2.19623725  0.92706123
  H  0.54292859  3.25988611  1.97435290
  H  1.64662806  2.01863279  1.34357734
  H  0.37593773  1.59161749  2.49984559
  H -0.02980960  4.00116690 -0.17801895
  H -0.85208042  2.99441690 -1.36196638
  H  0.89419655  2.79065653 -1.08091489
  H -1.06032216 -0.71878160 -1.61420320
  H -2.08202146  0.68994851 -1.26712297
  H -0.56874970  0.89008423 -2.12854861
  H  1.10147662 -0.86130537  1.97712100
  H  3.35747221 -1.70708144  1.86138489
  H  4.69996678 -1.44828469 -0.20110856
  H  3.70414771 -0.29884272 -2.14957167
  H  1.43973553  0.54604915 -2.05740232
  H -0.72993912 -0.24868025  2.04081634
  H -3.53930333 -2.72069024  0.77950992
  H -3.68982860 -1.25265275  1.78556293
  H -3.79901372 -1.14476184  0.02252364
  H -3.09689111  0.84967347  0.83178690
