42
opt_min/./Product_853_opt.xyz
  C  3.68881128  1.51236945  0.22037894
  O  2.43756244  0.83667448  0.25168216
  C  1.96554453  0.36726015 -0.88496404
  O  2.50851593  0.48342303 -1.95583698
  C  0.57991594 -0.24323333 -0.73038269
  C  0.31598414 -1.13990218  0.50641961
  F  1.38639632 -1.24649442  1.36454704
  C  0.10664112 -2.52388156 -0.19272390
  C  1.44451126 -2.88771146 -0.80105510
  C  1.54929870 -2.14629791 -1.89425175
  C  0.30821388 -1.28233470 -1.88789665
  O -0.66491967 -2.13427320 -1.31118522
  C -0.93865076 -0.55623165  1.22242045
  C -2.00573987 -1.63110173  1.46580612
  C -0.53926704  0.08002963  2.56297273
  N -1.42815175  0.50149105  0.34613773
  C -2.82864852  0.79234072  0.19641069
  C -0.47209703  0.89576673 -0.65929657
  C -1.01667775  1.19853504 -2.07577656
  C -0.14625735  2.10558052 -2.89631803
  O -2.02753641  0.69973420 -2.48936113
  C  0.09297252  2.11945322 -0.08468364
  N  0.37072547  3.08895802  0.45745728
  H  4.49392537  0.78533338  0.34271703
  H  3.67723409  2.21091268  1.05332919
  H  3.80749119  2.03544942 -0.73029166
  H -0.36792585 -3.29999196  0.39199063
  H  2.11188079 -3.61117385 -0.37817160
  H  2.34598274 -2.05925450 -2.60298262
  H -0.04181794 -0.86373821 -2.82326301
  H -2.79454934 -1.23421179  2.09818953
  H -2.41666221 -1.97566232  0.51902671
  H -1.56351806 -2.48198013  1.98126805
  H -0.13867868 -0.66690938  3.24503911
  H  0.21004631  0.85322227  2.40826044
  H -1.41613856  0.53306758  3.01919094
  H -2.92902563  1.81590276 -0.17209216
  H -3.29985256  0.74469174  1.17715139
  H -3.34338265  0.12194615 -0.49907824
  H  0.69557295  1.52556728 -3.27919453
  H -0.71543355  2.48892574 -3.74148591
  H  0.25524791  2.92454171 -2.30446391
