45
opt_min/./Product_1097_opt.xyz
  C -1.94112157 -0.37744576  2.40124223
  O -2.16390222 -0.14471812  1.02239235
  C -1.18896738 -0.54912064  0.10099500
  C -0.10981943  0.50981295 -0.34339069
  C -0.12982628  1.97714027  0.10709368
  C -1.28250921  2.54486993  0.87313017
  O  0.84156674  2.64414957 -0.16560304
  C -0.26627493  0.49527268 -1.88823856
  C -1.56723890  1.23233680 -2.23684211
  C -2.66140990  0.26976441 -1.73463338
  C -1.85725984 -0.93773768 -1.23693616
  C -0.65958139 -0.94988515 -2.18544569
  C  1.22488250 -0.07660729  0.21536790
  C  2.49374547  0.17514408 -0.65154163
  N  3.57071116  0.54416691  0.06073963
  C  4.83890982  0.82624752 -0.57477318
  O  2.51340471 -0.03497474 -1.84008338
  C  1.37099783  0.47950410  1.55103732
  N  1.45275584  0.84161040  2.63542791
  N  1.00363195 -1.51767920  0.25688732
  C  1.87860026 -2.28135128  1.11989440
  N -0.39076345 -1.65162635  0.62520012
  C -0.90565767 -2.83815087  0.83227721
  N -1.36812874 -3.85571170  1.10096163
  H -2.04578060 -1.43750662  2.64581080
  H -2.71966436  0.18316170  2.91232650
  H -0.96200476 -0.02276687  2.73272190
  H -1.26944155  3.62706244  0.77804467
  H -1.13609098  2.29786586  1.92491312
  H -2.23492046  2.13265147  0.56252318
  H  0.60803215  0.88114762 -2.40308938
  H -1.62419339  2.22329336 -1.79124842
  H -1.62495741  1.35377812 -3.31786940
  H -3.26857677  0.69004257 -0.93790864
  H -3.32523061 -0.03318837 -2.54283345
  H -2.43387624 -1.85618576 -1.14395016
  H  0.11234786 -1.67171682 -1.92888042
  H -0.95295654 -1.09081092 -3.22127384
  H  3.48843563  0.78753996  1.03665642
  H  5.60968279  0.15905479 -0.19021452
  H  5.13207025  1.85944653 -0.39349601
  H  4.72217090  0.66643116 -1.64325022
  H  1.94074175 -1.89467751  2.14453207
  H  2.86750308 -2.28311425  0.66661466
  H  1.50651833 -3.30321270  1.15157840
