46
opt_min/./Product_2208_opt.xyz
  C -2.53166135 -0.18058766  2.12215523
  C -2.53831470 -0.74161242  0.72736925
  O -3.52784018 -1.25556987  0.26376999
  C -1.29996764 -0.58151132 -0.15553137
  C  0.09040635 -1.14170141  0.27816988
 Br  0.13164684 -2.16502068  1.94491112
  C  0.37240333 -2.12139679 -0.89861728
  C -0.62067658 -3.26426636 -0.76740736
  C -1.77896013 -2.76943163 -1.17586910
  C -1.48209032 -1.32393787 -1.51989727
  O -0.14377484 -1.38962138 -1.99233904
  C  1.00451416  0.12730276  0.36821698
  C  1.82000546  0.36469884 -0.95314464
  N  2.83852680 -0.48644397 -1.14086801
  C  3.73341867 -0.34201063 -2.26578066
  O  1.53965089  1.26994101 -1.70342332
  C  2.08388286  0.07195367  1.45001646
  O  2.82235406 -0.89616548  1.54605402
  N  2.20061411  1.17312932  2.19623757
  C  3.23754643  1.33068767  3.18695662
  N  0.09857971  1.25539755  0.50139003
  C -0.99273744  0.93323638 -0.38764496
  C -2.19470114  1.83431602 -0.20860816
  O -2.34653243  2.60079724  0.70830205
  O -3.05613129  1.64317083 -1.19970619
  C -4.28323383  2.36704116 -1.16691371
  H -3.52621241 -0.31616669  2.54045024
  H -2.29030844  0.88011901  2.12538630
  H -1.81618981 -0.69580788  2.75733872
  H  1.41031323 -2.40239792 -1.03932603
  H -0.37114060 -4.23563541 -0.39099310
  H -2.74898682 -3.21839683 -1.22346598
  H -2.13920943 -0.81892495 -2.22025885
  H  3.16561048 -1.03391500 -0.35004062
  H  4.62261851  0.23138644 -1.99400039
  H  4.03184622 -1.32850708 -2.61623345
  H  3.19881827  0.18301711 -3.05466392
  H  1.55128411  1.93079638  2.05962678
  H  3.91636084  0.48400046  3.09793913
  H  3.77913014  2.26000257  3.01464413
  H  2.81382129  1.33843431  4.19310385
  H -0.26411936  1.33687135  1.45077151
  H -0.63570402  1.06212958 -1.41730394
  H -4.47014908  2.73044655 -2.17506144
  H -5.07828456  1.68726078 -0.85813194
  H -4.20675494  3.19797201 -0.46429792
