51
opt_min/./Product_5524_opt.xyz
  C -3.17747200 -0.60339800  1.80349900
  C -3.10240820 -0.10563376  0.38907221
  C -4.42333177  0.09364415 -0.29653919
  C -1.96947018  0.11410985 -0.26757271
  C -0.59352936 -0.09814107  0.25465795
  C  0.34457284 -0.83573260 -0.72290082
  C  0.15905493 -2.32335545 -0.71561489
  C  0.75391365 -3.06947465  0.43823143
  C -0.54876844 -2.91755432 -1.66350186
  C  1.68610127 -0.29075640 -0.27241855
  C  2.95160191 -0.94427929 -0.58727822
  C  3.95823477 -0.99952140  0.37432678
  C  5.14798969 -1.64504494  0.09370620
  C  5.34770327 -2.23256684 -1.14485301
  C  4.35287465 -2.17050587 -2.10776534
  C  3.15619699 -1.53587205 -1.83075206
  N  1.62198516  0.79949622  0.37421190
  C  0.23831417  1.18999709  0.55629135
  C  0.07398547  1.63194016  2.01305842
  O  0.37710925  2.91466046  2.15359301
  C  0.34081488  3.46277340  3.46776849
  O -0.22058831  0.88987883  2.91138276
  C -0.10598230  2.39027086 -0.32310835
  O -1.21687939  2.81768599 -0.48990060
  O  0.98446601  2.91661275 -0.87121880
  C  0.78575368  4.08266117 -1.65778805
  H -2.34250608 -0.25172524  2.40286059
  H -3.17318011 -1.69466804  1.81240285
  H -4.10179024 -0.27086259  2.27053694
  H -5.14339579  0.54553449  0.38377230
  H -4.82395233 -0.86540573 -0.62740150
  H -4.31666469  0.74543991 -1.16048837
  H -2.02073298  0.47100227 -1.28869951
  H -0.62057813 -0.65291401  1.19717616
  H  0.17536470 -0.43767326 -1.73482299
  H  0.55074322 -2.55070465  1.37480219
  H  1.83729757 -3.13904365  0.33179896
  H  0.34607625 -4.07503702  0.49813708
  H -0.97474054 -2.36548540 -2.48375132
  H -0.72571749 -3.98041500 -1.65771143
  H  3.79296229 -0.53444514  1.33278357
  H  5.92274964 -1.69418461  0.84572316
  H  6.27762850 -2.73719597 -1.36166804
  H  4.50971046 -2.62197537 -3.07571275
  H  2.37925165 -1.48806360 -2.57832657
  H  1.16391278  4.17100766  3.53929963
  H  0.44187711  2.66781236  4.20901545
  H -0.61101366  3.97735347  3.61518302
  H  1.77361192  4.40059683 -1.98246385
  H  0.30490171  4.86091107 -1.06145907
  H  0.15263718  3.85713839 -2.51892806
