38
opt_min/./Product_3957_opt.xyz
  C  3.19304374  1.47748098 -0.91608293
  C  3.26206121  0.30556861  0.01605269
  C  4.65587734 -0.21279266  0.22624754
  C  2.22460485 -0.26471590  0.61751694
  C  0.78619533  0.13427329  0.52118435
  C -0.15723279 -1.07009124  0.36174873
  C -0.32605897 -1.62266579 -1.03082150
  C -1.42278734 -2.63007646 -1.19750224
  C  0.50002348 -1.32131040 -2.02070515
  C -1.43053603 -0.51337224  1.04129515
  C -2.36435168 -1.52821735  1.46530419
  N -3.11226433 -2.30566713  1.84645230
  C -2.20632481  0.48443272  0.12918479
  O -2.27202131  0.37595465 -1.07324150
  N -2.80394075  1.44446952  0.85089541
  C -3.58335745  2.50164168  0.25734005
  O -0.93435347  0.16199427  2.19434814
  C  0.28591046  0.78698384  1.83263379
  H  3.40737261  1.15523057 -1.93557311
  H  2.22503691  1.96805690 -0.90429855
  H  3.95083201  2.20998280 -0.64131266
  H  5.12175144 -0.44061294 -0.73303392
  H  5.26777342  0.54364793  0.71720791
  H  4.65725453 -1.10822029  0.84036314
  H  2.40705397 -1.10518166  1.27606367
  H  0.61123632  0.81975291 -0.30821866
  H  0.20365605 -1.88813511  1.00117801
  H -1.35186449 -3.10699686 -2.17151783
  H -1.36658777 -3.39586126 -0.42356611
  H -2.39428354 -2.14518502 -1.12922077
  H  0.37727444 -1.76920839 -2.99123498
  H  1.30743760 -0.61945999 -1.90561191
  H -2.66242281  1.44377743  1.85215208
  H -3.06827840  3.46226116  0.33867055
  H -4.55311213  2.57235502  0.74916910
  H -3.72032616  2.25784550 -0.79474019
  H  0.13042773  1.86399039  1.69383586
  H  0.98486244  0.64383048  2.65976094
