37
opt_min/./Product_3964_opt.xyz
  C -0.55094700 -2.16995900 -1.33391200
  C  0.42137595 -1.83349426 -0.20630106
  C  1.77166264 -1.15849761 -0.59080790
  C  2.01281261 -0.88319185 -2.06898827
  N  1.77291530  0.04348626  0.22919858
  C  2.55455189  1.13630632  0.14401874
  O  2.26134525  2.01878568  1.12328349
  C  3.01153935  3.22001927  1.09834226
  O  3.39468132  1.31436122 -0.70962312
  O  0.95885415 -0.15187064  1.35575875
  C -0.17816508 -0.90834177  0.89757707
  C -0.64144675 -1.73256819  2.09390291
  C -1.23765143  0.06477354  0.39873972
  C -2.43613445  0.26454993  1.07913478
  C -3.35281302  1.20669201  0.64603504
  C -3.08777973  1.98298344 -0.46807633
  C -1.89453579  1.80733216 -1.14430026
  C -0.98378824  0.85993672 -0.71554078
  H -1.56846548 -2.17246246 -0.95119629
  H -0.50705607 -1.46218271 -2.15254964
  H -0.33665869 -3.15742809 -1.73150073
  H  0.67739489 -2.77349424  0.28741378
  H  2.59105479 -1.80687677 -0.24955216
  H  2.99696549 -0.44183048 -2.19020026
  H  1.28950895 -0.19008101 -2.48822387
  H  1.97170492 -1.81817353 -2.62023973
  H  2.48108800  3.92084230  1.73833050
  H  4.01858165  3.04385458  1.48238238
  H  3.08557496  3.60885628  0.08108507
  H  0.15361794 -2.40012423  2.40913951
  H -0.86678877 -1.08011174  2.93297593
  H -1.51653042 -2.31662052  1.82691030
  H -2.68071403 -0.32238897  1.94738654
  H -4.27736233  1.33526849  1.18812384
  H -3.80088219  2.71970876 -0.80282307
  H -1.66641076  2.41002193 -2.01096010
  H -0.04896292  0.77200398 -1.24279768
