44
opt_min/./Product_923_opt.xyz
  C -1.18954996  3.54534581 -1.45958532
  N -0.56133464  2.30707965 -1.06512493
  C -1.27171908  1.18768725 -0.84829845
  O -2.46860690  1.12684130 -1.05464106
  C -0.53658302 -0.09217847 -0.41569078
  C  0.95246067 -0.08567716  0.04596694
  F  1.49800579  1.17731198  0.22870468
  C  1.70075141 -0.77579099 -1.11326249
  C  1.44576784 -2.28681527 -1.11375597
  C -0.04730092 -2.38516944 -1.47316772
  C -0.44515625 -0.92763126 -1.72507431
  C  0.84914204 -0.35956743 -2.31529021
  C  0.93498936 -0.83079068  1.40931377
  C  1.11456304  0.03744567  2.70214023
  O  2.13429132  0.87091738  2.60335600
  C  2.48660613  1.61198701  3.76827571
  O  0.45758309 -0.15993085  3.68425874
  C  2.07271806 -1.70820388  1.64230525
  N  3.01372036 -2.28000212  1.95517618
  O -0.28333042 -1.52134598  1.43867578
  C -1.28208483 -0.69822343  0.81050548
  C -2.47973662 -1.60224331  0.50618238
  C -1.72285511  0.42738831  1.75484145
  H -1.12988201  4.28256210 -0.65643499
  H -0.70484074  3.94532813 -2.35061084
  H -2.23458155  3.33042194 -1.67456857
  H  0.43529224  2.30873809 -0.93343503
  H  2.75541417 -0.50511484 -1.12965976
  H  2.07384151 -2.75317304 -1.87238468
  H  1.66951278 -2.76858019 -0.16612174
  H -0.19838847 -2.96180745 -2.38572803
  H -0.61956774 -2.85326624 -0.67834210
  H -1.34362700 -0.81437634 -2.32794078
  H  0.82012663  0.71245475 -2.49712264
  H  1.15424578 -0.86491861 -3.22944932
  H  3.57098860  1.69795462  3.76182996
  H  2.14173565  1.09139562  4.66256734
  H  2.03172668  2.60229637  3.71622322
  H -2.59284668 -1.78277840 -0.55625163
  H -2.33764036 -2.54766560  1.02234193
  H -3.39655590 -1.14716232  0.86508833
  H -2.60561078  0.91247142  1.34680686
  H -0.94183435  1.17645192  1.87844442
  H -1.95649068  0.00169384  2.72696130
