23
opt_min/./Product_3284_opt.xyz
  C  2.74649308 -0.84144076  0.27077296
  C  1.28500399 -0.53357730  0.56106846
  C  0.60069333  0.49086710 -0.36104169
  C  0.70248288  1.95388529  0.04850536
  C -0.82793422 -0.11765050 -0.43604687
  C -1.82171334  0.31006368  0.67329942
  C -3.18408296 -0.28484840  0.50120690
  O -1.48186306  1.00989504  1.58480135
  C -1.44364624  0.06265084 -1.71989292
  N -1.92262451  0.25804392 -2.74062619
  N -0.60147711 -1.54955102 -0.09085760
  N  0.47324259 -1.72717774  0.43030581
  H  3.04623707 -1.72560270  0.82280178
  H  2.88866223 -1.03527429 -0.78944403
  H  3.37513543 -0.00519990  0.56071085
  H  1.18244871 -0.23396014  1.61449797
  H  1.03539712  0.36694801 -1.36377210
  H  1.58221635  2.40820190 -0.39269523
  H -0.17471626  2.49900987 -0.29079692
  H  0.75050527  2.05399809  1.12841577
  H -3.78137559  0.40489154 -0.09425771
  H -3.13531640 -1.23903755 -0.01151726
  H -3.66101349 -0.38529760  1.47333864
