41
opt_min/./Product_4464_opt.xyz
  C  0.44198800 -1.26055500  2.02582000
  C  0.19215578 -1.80049838  0.61369448
  C  1.16359824 -2.92703070  0.28085671
  C  0.20058982 -0.69255961 -0.46906952
  C  1.21500012  0.38300508 -0.31330362
  C  2.01646473  0.76485663 -1.30624916
  C  3.00538980  1.82907638 -1.23041880
  C  3.05690679  2.65296730  0.02117801
  C  3.81657053  2.06603432 -2.25996488
  C -1.29711081 -0.20802983 -0.41838540
  C -1.43808577  1.18947423  0.17005130
  O -2.26174268  1.21102982  1.22922065
  C -2.49212173  2.48963777  1.80654578
  O -0.89549405  2.17047278 -0.25826318
  C -1.81734359 -0.08958569 -1.86067265
  O -1.24262264  0.50754875 -2.72958563
  O -2.97752679 -0.70859927 -2.00895152
  C -3.55103633 -0.66824114 -3.30897729
  N -2.02330656 -1.23829634  0.31166387
  O -1.13864063 -2.32209621  0.50105422
  H  0.14771457 -2.01749148  2.74941138
  H  1.49796042 -1.03993577  2.15390455
  H -0.13269211 -0.35605348  2.21642750
  H  1.31643216 -3.56328059  1.14765338
  H  2.11681552 -2.51165060 -0.03361699
  H  0.74794973 -3.52992178 -0.52137955
  H  0.34351806 -1.17393447 -1.44284808
  H  1.26810714  0.85951445  0.65291374
  H  1.93603970  0.27089132 -2.26503498
  H  2.07431621  3.08190179  0.21043476
  H  3.33397515  2.03789381  0.87664844
  H  3.78202769  3.45606881 -0.07652812
  H  3.77210508  1.48058215 -3.16273482
  H  4.55056625  2.85361758 -2.23616676
  H -1.55716514  2.91546107  2.17589568
  H -3.19131661  2.32964650  2.62241291
  H -2.91470951  3.16497199  1.06123941
  H -3.52569583  0.34883413 -3.70658355
  H -2.99571049 -1.32402631 -3.98285899
  H -4.57420280 -1.01564445 -3.19860112
  H -2.30400086 -0.89661253  1.23082494
