27
opt_min/./Product_3454_opt.xyz
  C -0.65882213  1.66675099 -0.39088289
  C -1.25938817  0.28495932 -0.05572961
  C -2.77681982  0.38364401  0.15949176
  C -0.48557834 -0.41712220  1.09385652
  C -1.35216434 -1.29419160  1.96303454
  O -1.46820815 -1.18555010  3.14872723
  C  0.49333805 -1.38386905  0.35218814
  C  1.95185521 -0.90914342  0.39322381
  O  2.10151978  0.22591328 -0.27990331
  C  3.40997959  0.78565536 -0.36378358
  O  2.82041217 -1.49382145  0.97550846
  N  0.03384370 -1.47595098 -0.99959691
  C -0.89031453 -0.63660368 -1.21229945
  C -1.53412387 -0.50835548 -2.46484185
  N -2.09030000 -0.36869964 -3.45587284
  H -0.53275358  1.78498151 -1.46691448
  H  0.31788783  1.78802010  0.06760752
  H -1.30495129  2.46839010 -0.04165393
  H -3.12241148 -0.29884760  0.93201025
  H -3.31069969  0.15126429 -0.76124574
  H -3.05975117  1.38888681  0.46267139
  H  0.03555199  0.29620894  1.73417114
  H -1.85282672 -2.11338643  1.40617953
  H  0.49514734 -2.38719082  0.79680730
  H  3.64159667  0.93050471 -1.41826068
  H  3.40917719  1.74596242  0.15271575
  H  4.13393765  0.11256554  0.09705157
