49
opt_min/./Product_5108_opt.xyz
  C -0.70133100 -1.79770500  1.25789800
  C -1.01762145 -0.84578516  0.10708427
  C -1.28687958 -1.69207151 -1.14303174
  C  0.15120456  0.14241040 -0.20996206
  C  1.23608852  0.17846903  0.82231076
  C  2.41281732 -0.42889392  0.67245435
  C  3.48970469 -0.43911725  1.64967759
  C  3.30595440  0.36127640  2.90382076
  C  4.59669478 -1.14487618  1.42242949
  C -0.54936044  1.47926541 -0.28316682
  C  0.13948339  2.71265525 -0.63323778
  C -0.53756989  3.92890919 -0.52640934
  C  0.09766400  5.11294760 -0.84170666
  C  1.41663521  5.09948459 -1.26860545
  C  2.09763751  3.89865712 -1.38286787
  C  1.46656608  2.70891823 -1.06917810
  N -1.78959304  1.46789027  0.00070740
  C -2.21274272  0.14138041  0.40850713
  C -3.49006460 -0.25111495 -0.32752398
  C -4.23207635 -1.44870543  0.22657677
  O -3.88918225  0.34475869 -1.29277969
  C -2.46021167  0.51953153  1.88025794
  C -3.81931953  1.09493076  2.15304168
  O -1.57620275  0.52539963  2.69793785
  H -1.55977358 -2.43233617  1.47258181
  H  0.13129295 -2.43901751  0.97877586
  H -0.43385690 -1.26738595  2.16402115
  H -1.63131172 -1.07436623 -1.96863177
  H -0.36213616 -2.18007758 -1.44658707
  H -2.01683921 -2.47281709 -0.95141321
  H  0.57370576 -0.09727378 -1.18879350
  H  0.98997397  0.72989675  1.71743263
  H  2.61397886 -0.97196271 -0.24298469
  H  2.45311106 -0.00974688  3.47006704
  H  4.18722166  0.29803405  3.53462747
  H  3.11464985  1.40500489  2.65877893
  H  4.73058830 -1.72109934  0.52155594
  H  5.40848314 -1.17631174  2.12900933
  H -1.56343982  3.91228879 -0.19358474
  H -0.43116646  6.05022948 -0.75507558
  H  1.91473089  6.02618047 -1.51350990
  H  3.12337975  3.88883799 -1.71730791
  H  2.00768512  1.78073854 -1.16013448
  H -3.73351565 -1.89483354  1.08187737
  H -4.34951264 -2.18874976 -0.56203637
  H -5.23675504 -1.13687416  0.50318964
  H -4.56241284  0.30624909  2.22321159
  H -3.80441760  1.64575732  3.08960619
  H -4.09065415  1.75922930  1.33525922
