36
opt_min/./Product_3634_opt.xyz
  C -1.45275873  2.37415709 -0.59927845
  C -1.56458664  1.00839147  0.06223493
  C -1.54575788  1.14923453  1.59641985
  C -0.52956264 -0.00049143 -0.51765525
  C  0.85910465  0.06158737  0.01530661
  C  1.92270239  0.27682091 -0.75631593
  C  3.29956923  0.34482346 -0.28682016
  C  3.60385898 -0.04530413  1.12961348
  C  4.26097495  0.76716713 -1.10758321
  C -1.23387436 -1.37636084 -0.38115691
  C -1.09267730 -2.24442514 -1.63748156
  C -0.80935684 -2.17298483  0.85563867
  O -2.62928604 -1.05696074 -0.20163580
  N -2.79946150  0.34016637 -0.31965368
  C -3.72859178  0.80579285 -1.10633723
  N -4.57211627  1.24111956 -1.75664507
  H -1.39473398  2.29149672 -1.68334690
  H -0.55969792  2.88192279 -0.24356548
  H -2.32228718  2.98096842 -0.35314457
  H -2.22738824  0.42455596  2.03571113
  H -0.55070002  0.98734303  1.99604126
  H -1.87078029  2.14648959  1.87991989
  H -0.48431283  0.22659387 -1.59138271
  H  0.97865462 -0.08546047  1.07641829
  H  1.78568926  0.44444856 -1.81712233
  H  3.25919824  0.72331097  1.82116801
  H  4.67477447 -0.17177354  1.26511027
  H  3.10965527 -0.98082431  1.38546805
  H  5.29023330  0.84038479 -0.80132920
  H  4.04452111  1.05733113 -2.12242346
  H -0.96056498 -1.64340544 -2.53433593
  H -2.00175889 -2.83011528 -1.75703770
  H -0.24824385 -2.92187757 -1.55108733
  H -1.51285905 -2.99019415  0.99199831
  H -0.82756370 -1.55109979  1.74496490
  H  0.19179850 -2.57155733  0.71814353
