38
opt_min/./Product_4618_opt.xyz
  C -1.17844200  0.81641500 -1.32349400
  C -2.57917225  0.30755532 -1.21842908
  C -3.02652630 -0.27187846 -0.11010348
  N -2.26575170 -0.52094506  1.00976303
  C -2.77373307 -1.49711990  1.94802742
  C -0.83437849 -0.49325243  0.89982037
  C -0.21979185  0.02195994 -0.42722950
  C  0.44491406 -1.14920004 -1.16928977
  N  0.97588957 -0.85434438 -2.37270181
  O  0.54516974 -2.25895328 -0.69033652
  C  0.92071042  0.95348910  0.15762865
  C  2.04743336  1.25014872 -0.81491801
  O  3.11449683  0.52093020 -0.51704467
  C  4.26105742  0.66175291 -1.35080382
  O  1.95992665  1.98608901 -1.76033243
  N  1.30299852  0.35871857  1.41080029
  C -0.04814998  0.35046086  1.97261866
  C -0.13835580 -0.06583973  3.41973823
  C -0.40100748  1.81002537  1.70762342
  O -1.11929629  2.54012334  2.31199697
  O  0.27872424  2.14999751  0.58263402
  H -0.85261695  0.79626829 -2.36433636
  H -1.15748011  1.86518693 -1.01072452
  H -3.24528684  0.52532498 -2.03443591
  H -4.05732747 -0.58097069 -0.02488062
  H -2.32377688 -2.48377341  1.77703405
  H -3.85219118 -1.58049841  1.83394089
  H -2.56567839 -1.18666502  2.97016888
  H -0.46008552 -1.52713697  1.04064072
  H  0.91037628  0.05159825 -2.79574835
  H  1.40891158 -1.60541022 -2.88182555
  H  4.90440237  1.44658440 -0.95025218
  H  4.77585675 -0.29463404 -1.32396465
  H  3.95824194  0.92902318 -2.36377042
  H  1.72569603 -0.55804515  1.31862467
  H -1.08914930  0.25943458  3.83358991
  H  0.65907681  0.42124469  3.97588833
  H -0.03879565 -1.14407223  3.52705301
