28
opt_min/./Product_1125_opt.xyz
 Br -2.26225000  1.99730300 -1.40051700
  C -1.31402717  0.66850175 -0.34871634
  C -0.12377969 -0.07002631 -1.03505116
 Br  0.31231182  0.48257395 -2.84597808
  C -0.61041201 -1.55244328 -0.95627309
  C -1.77405008 -1.65535183 -1.91513964
  C -2.78017585 -1.03771284 -1.30967778
  C -2.21954195 -0.55753859  0.00993062
  O -1.24245114 -1.53372705  0.31273310
  N  0.95950784  0.20358136 -0.13501138
  C  2.21555274 -0.40190019 -0.25823625
  O  2.41695869 -1.24027731 -1.10659413
  N  3.07418552 -0.00812299  0.69822621
  C  4.41609114 -0.54031046  0.76312914
  N  0.60535511  0.99249385  0.90707958
  C -0.63144990  1.30233966  0.83877961
  C -1.32169331  2.19926086  1.79489629
  H  0.18596472 -2.28859706 -1.01298398
  H -1.73074511 -2.08981191 -2.89183770
  H -3.76931174 -0.82960472 -1.66230338
  H -2.90892108 -0.40499329  0.83600266
  H  2.76783458  0.68187568  1.36428454
  H  4.89214864 -0.20420892  1.67821312
  H  5.00047783 -0.20613411 -0.09639597
  H  4.38416897 -1.63038586  0.74598305
  H -0.96522917  3.22129310  1.67465528
  H -2.39428875  2.18582579  1.62398928
  H -1.10783385  1.88934392  2.81461930
