40
opt_min/./Product_4967_opt.xyz
  C  0.95461054 -0.74666341  0.95652514
  C  0.16163820  0.39991958  0.32001467
  C  0.40307730  0.47576774 -1.20292409
  N  1.71733780  0.12758885 -1.66478136
  C  2.13166515  0.71497413 -2.91549900
  C  2.64927809 -0.30970206 -0.77885112
  C  2.37434750 -0.73727724  0.46729242
  C  3.49678903 -1.22699449  1.27845415
  N  3.17128752 -1.81278167  2.47124734
  O  4.66047859 -1.10107590  0.93701503
  C -0.74426254 -0.40229874 -1.69549029
  C -0.77738600 -0.94471082 -2.99537242
  N -0.76748523 -1.36706686 -4.06086423
  N -1.68512035 -0.56319169 -0.85387493
  C -1.36954769  0.11604467  0.37646056
  C -1.84576926 -0.70998776  1.59779350
  N -2.86836616 -1.51918274  1.30266126
  C -3.52665086 -2.31829947  2.30764903
  O -1.32356216 -0.61389988  2.68459994
  C -2.18529814  1.41723527  0.42497552
  O -3.04185498  1.65093597  1.22775280
  O -1.83102288  2.24982210 -0.55509069
  C -2.54175687  3.48471311 -0.60325874
  H  0.91205149 -0.63681192  2.03888670
  H  0.47671459 -1.69913467  0.69100157
  H  0.41758586  1.33915139  0.81009032
  H  0.17320672  1.49604486 -1.55297758
  H  3.00710738  0.18647968 -3.28587678
  H  1.33348385  0.61788985 -3.65207476
  H  2.38166938  1.77751669 -2.80307134
  H  3.66969247 -0.34044557 -1.13095694
  H  2.24322936 -2.16321050  2.63201584
  H  3.91409352 -2.32146258  2.92423081
  H -3.23279916 -1.51424406  0.36205670
  H -2.81159528 -2.52606133  3.10253708
  H -3.86536794 -3.25469941  1.86806531
  H -4.37811985 -1.78545872  2.73567957
  H -2.12320489  4.04329365 -1.43616537
  H -3.60585654  3.30201617 -0.75979953
  H -2.41083856  4.02879276  0.33347190
