40
opt_min/./Product_1446_opt.xyz
  C  5.43625700  1.47149900  0.46319600
  O  4.40479755  0.55459208  0.12656600
  C  3.29588437  0.58447174  0.87831573
  O  3.11614662  1.33868290  1.80041392
  C  2.33692583 -0.43463811  0.44189633
  C  2.37967631 -1.33585017 -0.54884078
 Br  3.64451761 -1.59935494 -1.87304564
  C  1.07722105 -2.10829927 -0.47596265
  C -0.05398120 -1.19086537 -1.00089780
  C  0.01048311 -0.04390386  0.01228960
  C  0.96888882 -0.66830985  1.07736780
  O  0.81259419 -2.06941469  0.91574741
  C -1.45838226  0.25856065  0.37331711
  C -1.63006791  0.75558114  1.80383882
  C -2.79882589  0.20791190  2.57443036
  O -0.87681094  1.57623649  2.26707159
  C -1.92494343  1.43623117 -0.55315087
  C -1.20841086  2.74779959 -0.40787051
  O -2.81735968  1.25615533 -1.33218052
  N -2.23176736 -0.89971260 -0.01571578
  C -1.41364721 -1.87560527 -0.73068300
  C -2.12919847 -2.35803457 -1.99098789
  H  6.37106853  1.01877156  0.13963627
  H  5.43923830  1.65408456  1.53916288
  H  5.27476509  2.41539248 -0.06146574
  H  1.09906615 -3.12147846 -0.86807603
  H  0.01650305 -0.87459269 -2.03901068
  H  0.50201754  0.85306554 -0.36904346
  H  0.84939623 -0.36369371  2.11060081
  H -2.62795896 -0.84272943  2.80880813
  H -3.71181240  0.29633599  1.98943367
  H -2.89663835  0.75847575  3.50764773
  H -0.48267497  2.74981104  0.39834278
  H -0.73096188  2.99696465 -1.35444618
  H -1.95726238  3.51613652 -0.21480928
  H -2.72272028 -1.34369058  0.74470312
  H -1.22460706 -2.73972865 -0.07497381
  H -3.20046075 -2.34971290 -1.81331537
  H -1.92868905 -1.69810666 -2.83145006
  H -1.81938573 -3.36685718 -2.25116574
