40
opt_min/./Product_5263_opt.xyz
  O  1.77145300  3.11896300  0.19584400
  C  2.18786507  2.49423077 -0.66822318
  O  2.60393286  1.89585117 -1.54871043
  C  1.42016793 -0.05122019  0.81005294
  C  0.22674243  0.50732038  0.91324662
  C -0.75720482 -0.54636901  3.89547154
  O -1.72950856  0.05706962  3.82871613
  O  0.23125820 -1.10665191  4.02198746
  C -0.75718444 -0.15897106 -0.02021049
  C -1.77881575 -0.97631524  0.80909744
  N -3.06650616 -0.87053006  0.47431355
  C -4.10459840 -1.57604905  1.18945707
  O -1.36676385 -1.72930381  1.67693445
  C -1.32380878  0.94108945 -0.92318980
  O -2.43159980  1.41927526 -0.84574364
  O -0.40096493  1.34303835 -1.77914271
  C -0.75478578  2.36673532 -2.70111362
  N  0.09504044 -1.04584416 -0.79563846
  C  1.39911618 -1.19119936 -0.16391025
  C  1.58599964 -2.53275676  0.56690111
  C  2.48458082 -1.09359936 -1.23979614
  O  2.32506065 -1.36758536 -2.39599605
  O  3.65359434 -0.71614068 -0.71327888
  C  4.74100545 -0.61925881 -1.62570073
  H  2.30233360  0.20456289  1.36657736
  H -0.07401706  1.31066016  1.56057744
  H -3.34448219 -0.17903887 -0.20792090
  H -4.49890316 -2.39536024  0.58414450
  H -3.67217986 -1.98423766  2.10161361
  H -4.91393896 -0.89221480  1.43971086
  H -0.52216171  3.34383980 -2.27312873
  H -1.82136452  2.32057109 -2.92811996
  H -0.15957496  2.19572412 -3.59491073
  H -0.33315667 -1.92317166 -1.05423900
  H  1.53765567 -3.35342939 -0.14632584
  H  0.79186879 -2.64370505  1.30282558
  H  2.54795268 -2.55433264  1.07175011
  H  4.54717972  0.17185344 -2.35150563
  H  5.61944560 -0.38729994 -1.02901710
  H  4.87354124 -1.56358801 -2.15671103
