36
opt_min/./Product_388_opt.xyz
  C -3.25901688  1.05624900 -0.72109306
  C -2.01020686  0.25658250 -0.76058053
  C -0.73953923  0.63141428 -0.64274918
  C -0.29715436  2.03473800 -0.44787905
  O -0.34700735  2.63659537  0.59262463
  O  0.18015322  2.52792125 -1.59319884
  C  0.66782600  3.86410566 -1.58691630
  C  0.18138314 -0.54543431 -0.91685549
  C  1.50784451 -0.64927786 -0.21220091
  C  2.37097281 -1.66266697 -0.62580171
  C  3.61457663 -1.81021697 -0.04255376
  C  4.02053745 -0.93661352  0.95382143
  C  3.17287677  0.07526432  1.36258377
  C  1.92065195  0.22066091  0.78432273
  N -0.66888507 -1.73337955 -0.73853956
  C -0.51196894 -2.43037923  0.52505052
  C -2.04727457 -1.26647034 -0.97554525
  C -2.45653414 -1.57550514 -2.33983571
  N -2.79526054 -1.81636362 -3.40323095
  C -3.04963976 -1.84040341 -0.09271179
  N -3.86642538 -2.22602062  0.60763679
  H -3.03336855  2.11669805 -0.79277763
  H -3.91515590  0.77038848 -1.54339664
  H -3.79597064  0.87830257  0.21193659
  H  1.61312894  3.86784776 -2.12648207
  H  0.80904215  4.20635279 -0.56045074
  H -0.05339175  4.50558622 -2.09416816
  H  0.40165569 -0.47849237 -1.99921459
  H  2.05790551 -2.33088737 -1.41440207
  H  4.26994275 -2.60348747 -0.36983006
  H  4.99356765 -1.04690657  1.40807162
  H  3.48072255  0.76150035  2.13706041
  H  1.26721572  0.99953279  1.14187822
  H -0.65348576 -1.77968209  1.39870939
  H -1.23678029 -3.24235331  0.56790303
  H  0.48497120 -2.86179924  0.56882480
