32
opt_min/./Product_4271_opt.xyz
  O  0.13475503  2.94141856 -2.14343779
  C -0.36909359  1.95073631 -2.40370058
  O -0.90138693  0.97367579 -2.67612926
  C  0.16535762  0.49816243  0.83047422
  C -1.04740257  0.08595896  1.15778828
  C -3.46166893  1.06169922 -0.51970256
  O -2.93631457  2.04080743 -0.79719922
  O -4.00508639  0.10130641 -0.22352828
  C -1.12183604 -1.42253024  1.12279341
  C -1.78338339 -2.04414457  2.35369407
  C -1.78811085 -1.86533667 -0.09641980
  N -2.15115412 -2.28343560 -1.09762457
  N  0.29196070 -1.80381050  1.02487932
  C  1.06751939 -0.67418228  0.54681775
  C  2.40376786 -0.49471465  1.31032237
  C  2.74281293 -1.57152243  2.29979087
  O  3.09080511  0.46977318  1.12180841
  C  1.45524556 -0.67420396 -0.95247261
  C  1.58850056 -2.02813781 -1.59188150
  O  1.64849474  0.35479584 -1.53977396
  H  0.52511649  1.50561903  0.74844407
  H -1.87893729  0.69363245  1.45515218
  H -1.19938384 -1.79221602  3.23477815
  H -1.82600504 -3.12615908  2.25336177
  H -2.79449066 -1.66130480  2.46574501
  H  0.43395346 -2.66379084  0.51177656
  H  2.25002857 -2.51027225  2.07543590
  H  2.40516193 -1.23219730  3.27818919
  H  3.82206535 -1.69581315  2.34362655
  H  2.14405083 -2.71432414 -0.95612590
  H  0.59245948 -2.43188541 -1.77931186
  H  2.09320043 -1.91852914 -2.54843872
