50
opt_min/./Product_5853_opt.xyz
  C  1.38237500  0.25798000  1.13451800
  O  2.07464609  0.88064200  1.91199715
  C  1.84235123 -0.13979768 -0.20624874
  O  2.69970295  0.62864501 -0.93086842
  C  3.02942856  1.93030677 -0.48590355
  C  1.54518791 -1.41354843 -0.60364116
  O  2.02795159 -2.10406390 -1.64855435
  C  3.04017258 -1.57779531 -2.48084343
  C  0.67723963 -2.27949857  0.22482884
  O  0.77354417 -3.47976669  0.18930864
  C -0.40339550 -1.59726562  1.08274186
  C -0.79792908 -2.53607297  2.21683207
  C -0.05171206 -0.13006413  1.47292705
  C -0.33212494  0.19001615  2.94159206
  C -0.98073102  0.67749572  0.46608421
  C -0.65584084  2.07078594  0.03118012
  C -0.09292462  3.01468049  0.88258564
  C  0.13609373  4.30471472  0.43405668
  C -0.19202161  4.66787950 -0.86018146
  C -0.76278941  3.73334338 -1.70778377
  C -0.99745633  2.44515822 -1.26519742
  C -2.36704569  0.50656780  1.13337108
  O -3.02444627  1.28604147  1.74355945
  O -2.67714937 -0.77943184  0.90240677
  C -1.60649395 -1.30978927  0.11110076
  C -2.14457333 -2.38750980 -0.84075593
  O -3.43691435 -2.19171327 -1.02745779
  C -4.12002478 -3.08179169 -1.90811234
  O -1.47676571 -3.23122821 -1.36123072
  O -1.14359090 -0.22187551 -0.62594796
  H  3.64092438  2.35061586 -1.28210577
  H  2.13714198  2.54314997 -0.34403582
  H  3.59905765  1.90275064  0.44482523
  H  3.32345852 -2.40148449 -3.13375501
  H  2.66589618 -0.74414539 -3.07946750
  H  3.90752826 -1.24989891 -1.90758033
  H -1.81569802 -2.34701515  2.54811282
  H -0.12115101 -2.43115984  3.05839615
  H -0.73449847 -3.55712790  1.84644776
  H -0.27689522  1.26021022  3.11177963
  H  0.42759851 -0.27946128  3.56203884
  H -1.31032468 -0.15215928  3.26091042
  H  0.17131842  2.75838508  1.89390652
  H  0.57970286  5.02612060  1.10338348
  H -0.00572077  5.67355842 -1.20429766
  H -1.03393844  4.00749438 -2.71598390
  H -1.43888534  1.71378620 -1.92276864
  H -5.00828471 -3.43549670 -1.38662031
  H -3.47047988 -3.91612827 -2.17531773
  H -4.40927218 -2.53057194 -2.80261441
