39
opt_min/./Product_375_opt.xyz
  C -1.30196347  2.81662600  1.43719667
  C -1.36813051  1.32324203  1.41976413
  O -1.39246918  0.65990204  2.42497236
  C -1.32288248  0.66319068  0.04060105
  C -0.21243937 -0.43679590 -0.10291595
  C  0.47744575 -0.80480098  1.10465890
  N  1.09537182 -1.13565363  2.00886528
  C -1.00631638 -1.63039623 -0.68797383
  C -1.83481892 -2.24344339  0.44955771
  C -2.92826346 -1.18340573  0.69667176
  C -2.61117988 -0.10653255 -0.34276962
  C -2.09936564 -0.95195220 -1.51006546
  C  0.83096115  0.25907218 -1.07206176
  C  1.43235581 -0.64439814 -2.13395853
  C  1.86098651  0.95498243 -0.14082734
  O  1.56920550  1.98198681  0.43484592
  N  3.04950185  0.34741915 -0.02262560
  C  4.06642443  0.83493002  0.88306398
  N  0.12220077  1.35095921 -1.69388817
  C -0.93908256  1.60186589 -1.06734069
  H -0.31395392  3.09350498  1.06175956
  H -1.40839990  3.17180191  2.45991205
  H -2.05440111  3.27163899  0.79990411
  H -0.38963998 -2.35587238 -1.21539805
  H -2.26784625 -3.19077702  0.12051911
  H -1.23962715 -2.43552952  1.34090641
  H -2.89130964 -0.79929583  1.71288352
  H -3.92651228 -1.59061971  0.52318341
  H -3.44446621  0.56527587 -0.55399031
  H -2.83875598 -1.66702087 -1.86802251
  H -1.72705644 -0.36533080 -2.34745090
  H  1.83654355 -1.55836336 -1.70245438
  H  0.66549249 -0.91179419 -2.85871945
  H  2.21714775 -0.10600399 -2.66103673
  H  3.23363627 -0.51950272 -0.49870124
  H  3.61691371  1.61761800  1.49281675
  H  4.90850643  1.25514728  0.32810667
  H  4.41468797  0.02501544  1.52432581
  H -1.57743018  2.41421071 -1.37638316
