44
opt_min/./Product_701_opt.xyz
  C  4.19557790 -1.65361433 -0.62106173
  C  2.92573503 -1.72650291 -1.43194499
  O  2.68021968 -2.67977323 -2.14378842
  C  2.03317817 -0.56655021 -1.38237314
  C  2.04250066  0.57768292 -0.67427997
  C  2.86504199  1.01923070  0.47624638
  C  1.01471066  1.46995099 -1.35373260
  C -0.45258110  1.00944135 -1.08675992
  C -0.45377346 -0.37234974 -1.75185602
  C  0.94947626 -0.35803912 -2.42549066
  O  1.10806301  1.03344324 -2.70429231
  C -0.88793481 -1.39528933 -0.67865939
  C  0.06652643 -2.56997821 -0.45851882
  C -2.25141070 -1.97562264 -1.10110440
  N -0.97853629 -0.60895478  0.55042500
  C -1.69973630 -1.13633627  1.68187298
  C -1.02722977  0.82165710  0.32546166
  C -2.46460731  1.41243079  0.29342292
  C -2.56896263  2.90269312  0.45807817
  O -3.41340070  0.69808606  0.11394631
  C -0.25419615  1.47154291  1.35773715
  N  0.35123683  1.96559693  2.19407673
  H  4.66342216 -0.67912060 -0.72188340
  H  4.87982215 -2.43139223 -0.94895495
  H  3.95790709 -1.82202319  0.42837390
  H  3.10027810  0.19118908  1.13945407
  H  2.35272218  1.78901570  1.04307903
  H  3.80615458  1.43989932  0.11712649
  H  1.17461989  2.53887455 -1.24313988
  H -1.06216204  1.71405191 -1.65986675
  H -1.19101539 -0.39737742 -2.55768755
  H  1.02980991 -0.95713055 -3.32616535
  H  0.98845316 -2.25120007  0.01301892
  H -0.40746111 -3.29452513  0.19938138
  H  0.28010265 -3.05745993 -1.40548324
  H -3.00185475 -1.19026982 -1.16970957
  H -2.60001296 -2.71011123 -0.38007476
  H -2.15027167 -2.46444146 -2.06624867
  H -1.60071021 -0.43503649  2.51112748
  H -2.76654086 -1.29216952  1.48817623
  H -1.24959991 -2.08114601  1.98575245
  H -3.44176379  3.13895744  1.06399494
  H -2.72736528  3.35152924 -0.52240335
  H -1.67598283  3.32874643  0.90598749
