32
opt_min/./Product_387_opt.xyz
 Cl  0.18268700  2.97643800 -1.51373900
  C  0.51108740  1.74062646 -0.22140053
 Br  0.59046667  2.73641661  1.51806875
  C -0.64737782  0.81939161 -0.20688301
  C -0.70237111 -0.49894229 -0.49937482
  C  0.33156842 -1.52268778 -0.80704422
  C  1.23602558 -1.83594099  0.39784167
  C  2.59127201 -1.13622133  0.38581124
  C  2.61234567  0.38102956  0.57448669
  C  1.91987102  1.22899304 -0.50315960
  C -2.15842720 -0.90060052 -0.46053689
  C -2.49224598 -1.99812736  0.55209581
  N -2.88039012  0.29768140 -0.14990751
  C -2.04817430  1.25416404  0.00532902
  C -2.52429921  2.60754871  0.38459648
  H  0.93636030 -1.23275170 -1.66752226
  H -0.20158737 -2.43673481 -1.07933276
  H  0.70431914 -1.61929047  1.32553463
  H  1.44912543 -2.90810399  0.38027529
  H  3.17823178 -1.55813960  1.20539858
  H  3.09915454 -1.37727082 -0.55200099
  H  2.23663713  0.64309198  1.56313117
  H  3.66968023  0.65613992  0.54132021
  H  1.92602408  0.71203467 -1.46305127
  H  2.51808269  2.13881449 -0.61592575
  H -2.46505664 -1.23071105 -1.46203096
  H -1.80053450 -2.83154327  0.46248965
  H -2.41824282 -1.59110039  1.55767030
  H -3.50553947 -2.35026508  0.38983755
  H -3.61023150  2.60061262  0.37531531
  H -2.17470049  2.86753689  1.38173171
  H -2.15979199  3.36393895 -0.30743587
