41
opt_min/./Product_1000_opt.xyz
  C  2.45117000 -0.99127400  2.32655000
  O  1.35970788 -1.11058914  1.44275503
  C  1.27464153 -0.15829625  0.42949132
  C  0.06191887 -0.45883853 -0.48045720
 Cl -0.45654550 -2.15570840 -0.40123459
  C  0.70969340 -0.22872993 -1.88835843
  C  1.47701925 -1.51784386 -2.14049397
  C  2.53818102 -1.44209857 -1.34907627
  C  2.42438779 -0.11192710 -0.64188693
  O  1.76263117  0.67983677 -1.62506091
  C -1.05000326  0.49332190  0.00846915
  C -1.79821061 -0.09517164  1.29433472
  O -1.59889356  0.42327877  2.36496199
  N -2.65064969 -1.10564035  1.10037377
  C -3.39239837 -1.68180070  2.19899161
  C -2.11527886  0.63236137 -1.06305816
  O -2.62126405 -0.34740400 -1.56188200
  O -2.48262659  1.86741479 -1.37092928
  C -3.53996928  2.01955324 -2.31364729
  N -0.36743050  1.65082953  0.55700560
  C -0.48769447  2.96754595 -0.02266866
  C  1.01493804  1.30217891  0.85890322
  H  2.36437460 -1.83986112  3.00276584
  H  3.40566053 -1.04534157  1.79237471
  H  2.41084769 -0.06373015  2.90481263
  H  0.04978010  0.15314938 -2.66140347
  H  1.18278586 -2.27218300 -2.84041246
  H  3.29992904 -2.17277866 -1.16407247
  H  3.35090692  0.34727221 -0.30863452
  H -2.80173917 -1.52569272  0.19399671
  H -4.44896712 -1.41120023  2.13371919
  H -2.97985569 -1.29275536  3.12865875
  H -3.29787104 -2.76740506  2.17986352
  H -4.15573740  1.11860770 -2.33715902
  H -4.12256547  2.88138969 -1.99520199
  H -3.11840487  2.19790565 -3.30454806
  H -1.50780404  3.32575553  0.09613127
  H  0.16823053  3.62888865  0.54068399
  H -0.20564497  3.00948575 -1.08430638
  H  1.21229156  1.45803571  1.92308304
  H  1.67881099  1.94923320  0.27350072
