41
opt_min/./Product_4824_opt.xyz
  C  1.78412900 -0.38940600  0.60169700
  C  0.99970103 -0.83681106 -0.64175661
  C  0.09288853  0.25699358 -1.24194855
  N  0.42185618  1.60808823 -0.89494884
  C -0.20529029  2.66332236 -1.66351538
  C  1.57888859  1.89210659 -0.24828736
  C  2.31972015  1.00282530  0.44398111
  C  3.53422804  1.50532071  1.09286425
  N  4.24954809  0.62151575  1.85113971
  O  3.89282679  2.66869119  1.00253699
  C -1.33075418 -0.25322154 -0.75767374
  C -2.38514871  0.81155773 -0.68360771
  O -2.56156940  1.24095195  0.56650407
  C -3.50110904  2.28882788  0.77753143
  O -2.96780948  1.24083443 -1.64200530
  C -1.55547830 -1.38071882 -1.80193047
  O -2.25438499 -1.39882285 -2.76464830
  O -0.72072733 -2.35306843 -1.42932211
  C -0.04886638 -1.88714726 -0.21122783
  C  0.45431775 -3.08819849  0.55455421
  N -1.01115334 -1.02804212  0.43645303
  C -2.14131194 -1.68195828  1.07118301
  H  2.56441824 -1.12581206  0.79053087
  H  1.09969859 -0.39551393  1.45529661
  H  1.68088929 -1.23287513 -1.39594314
  H  0.09096929  0.18460597 -2.34095321
  H -0.79961745  2.24726564 -2.47508194
  H -0.86638290  3.25460306 -1.02526594
  H  0.54786241  3.33053929 -2.08548695
  H  1.90208716  2.92085675 -0.29133998
  H  5.13645040  0.94545376  2.19745397
  H  4.10998930 -0.36920323  1.79209320
  H -4.31111641  1.90931882  1.40039713
  H -2.98782018  3.09985735  1.29254271
  H -3.89669089  2.63128079 -0.18044543
  H  0.61308591 -2.83016296  1.59649436
  H  1.38910146 -3.43391931  0.12330682
  H -0.27405953 -3.89103948  0.48566089
  H -2.73875188 -2.28234606  0.37317078
  H -1.76691083 -2.32595976  1.86315272
  H -2.77192458 -0.91611556  1.51386760
