29
opt_min/./Product_3408_opt.xyz
  C -0.24627234 -2.27448083  0.24922658
  C -0.48668137 -1.01945515 -0.56625966
  C -1.65491087 -0.17412870 -0.02303960
  C -3.01276217 -0.58599315 -0.58100615
  N -1.29366681  1.19629342 -0.39482477
  C -1.96587462  2.22672423  0.37087863
  N  0.12626736  1.22676410 -0.07311478
  C  0.68346298  0.01053280 -0.65097966
  C  1.07747968  0.18814420 -2.03921186
  N  1.36001910  0.41376102 -3.12387796
  C  2.00391626 -0.33207199  0.07461978
  O  2.43636911 -1.43243334  0.27072382
  O  2.63515969  0.79614857  0.38577177
  C  3.90604786  0.69597158  1.01915588
  H -1.17149517 -2.84731362  0.28596571
  H  0.52718243 -2.88926205 -0.20082244
  H  0.05655760 -2.03107124  1.26704508
  H -0.71336896 -1.31501883 -1.59870354
  H -1.66253010 -0.26490258  1.07937616
  H -3.64849842  0.28754349 -0.71232575
  H -2.90568301 -1.06509760 -1.55242744
  H -3.51343546 -1.27347598  0.09387360
  H -3.01281309  1.96129263  0.50314706
  H -1.91161604  3.16593847 -0.17995957
  H -1.51283588  2.35810729  1.36261597
  H  0.53949290  2.06832545 -0.47035116
  H  4.10945034 -0.34322998  1.28315712
  H  4.66559656  1.06133517  0.32572064
  H  3.88177825  1.31789863  1.91368833
