29
opt_min/./Product_301_opt.xyz
 Cl -0.63288837  0.30797174  2.76005195
  C -0.50077219  0.64068899  1.01212863
  C -0.06716634 -0.55852769  0.11697424
 Cl  0.17338031 -2.06888032  1.02985500
  C -1.21527809 -0.64157241 -0.90104047
  C -2.48031688 -1.14705932 -0.19253736
  C -2.90903465  0.04857945  0.68133203
  C -1.82923764  1.09673080  0.39064710
  C -1.55835189  0.84219655 -1.09213917
  C  1.30443211 -0.06694989 -0.48557971
  C  1.24293816  0.14166686 -1.92131983
  N  1.24347854  0.29885203 -3.05361226
  C  2.49595830 -1.07301589 -0.36549537
  C  3.73213240 -0.49724822  0.24160675
  O  2.38297509 -2.19668473 -0.76057188
  N  1.60409538  1.20149677  0.13669213
  C  0.65268783  1.58808912  0.86315970
  H -0.95476995 -1.20511746 -1.79461011
  H -3.24246297 -1.39513329 -0.93017519
  H -2.28086024 -2.03835193  0.39721724
  H -3.88078202  0.43543159  0.37605771
  H -2.96270953 -0.20482481  1.73774768
  H -2.09776922  2.11198541  0.67685885
  H -0.74950632  1.44623855 -1.49906159
  H -2.44350562  0.97834532 -1.70899946
  H  3.85564116  0.54591290 -0.03272303
  H  3.62281725 -0.55007636  1.32599273
  H  4.59341491 -1.09331858 -0.04922497
  H  0.70962679  2.51939312  1.40145889
