44
opt_min/./Product_1132_opt.xyz
  C -4.45875404  1.40987233 -0.81647255
  N -3.12025515  0.95628469 -0.52982208
  C -2.06515113  1.37086364 -1.25519026
  O -2.12248591  2.25525806 -2.08984628
  C -0.76291269  0.70878074 -0.95711812
  C  0.42391735  1.24605846 -1.29187334
  C  0.67237582  2.51948650 -1.82253712
  N  0.97210933  3.56265319 -2.19113747
  C  1.56862939  0.32849860 -0.93791756
  C  2.42340091 -0.02545854 -2.15783502
  C  2.47059693  1.00523275  0.11060949
  O  3.66226761  0.90313708  0.16425460
  O  1.74562870  1.72492116  0.98078837
  C  2.48266678  2.42888506  1.97722548
  N  0.88925229 -0.86279670 -0.41688550
  C  1.52371606 -1.56126776  0.67568827
  C -0.55636673 -0.66272640 -0.37453974
  C -1.13951881 -0.75283847  1.05895964
  N -0.75349950  0.26272608  1.85004855
  C -1.16450687  0.36570663  3.22954295
  O -1.86256707 -1.65771569  1.41710320
  C -1.31205545 -1.71337652 -1.24000065
  C -0.48347563 -2.86137555 -1.71957584
  O -2.48104581 -1.58151461 -1.47475695
  H -4.92845001  1.79214118  0.09057301
  H -4.38956365  2.20253603 -1.55943523
  H -5.05945492  0.59082229 -1.21632407
  H -3.03868021  0.19721553  0.12792383
  H  2.85429264  0.87720619 -2.58539143
  H  1.80841105 -0.51075908 -2.91128508
  H  3.22914142 -0.68871690 -1.85681086
  H  3.03814910  1.72528442  2.60019011
  H  1.75318328  2.97761026  2.56661047
  H  3.18526159  3.11509499  1.50385236
  H  1.62966419 -0.96373939  1.59132687
  H  0.93821227 -2.44579907  0.92054192
  H  2.51516050 -1.87838954  0.35343832
  H -0.13837028  0.97807248  1.48735729
  H -0.30206397  0.30262742  3.89554814
  H -1.84022449 -0.46176493  3.43970103
  H -1.68165335  1.31083177  3.39975086
  H -1.06981399 -3.47651493 -2.39609449
  H  0.40544145 -2.48484340 -2.21970811
  H -0.15886896 -3.45633541 -0.87043184
