39
opt_min/./Product_2403_opt.xyz
 Br  0.09117000  5.31535400 -0.22435800
  C  0.85019500  3.64284728 -0.49154676
  C  2.12602325  3.25512799 -0.45172452
 Br  3.66657392  4.24040516 -0.09735137
  C  2.07872155  1.74960221 -0.62168329
  C  1.53553177  1.22683786  0.74709241
  C  0.05106411  1.62776016  0.65156501
  C  0.05318208  2.37242544 -0.71093448
  O  0.96400946  1.58560243 -1.47166789
  C -0.67723021  0.25529085  0.62417152
  C -1.59976352  0.07287204 -0.62598951
  O -2.47047087  0.86531812 -0.89839325
  N -1.32788343 -1.03634035 -1.31777375
  C -2.05934992 -1.39390708 -2.51022543
  C -1.63848525  0.10451618  1.79804552
  O -2.12850993  1.02948144  2.38185492
  O -1.87578125 -1.17802023  2.06075465
  C -2.81381051 -1.45623912  3.09695510
  N  0.31931031 -0.77269508  0.63731459
  C  1.48394577 -0.26658943  0.71566766
  C  2.72060015 -1.10086851  0.70539232
  N  2.47466897 -2.40502927  0.92569047
  C  3.51458744 -3.40180041  0.94089689
  O  3.82161878 -0.62368658  0.51669958
  H  2.97137510  1.24277386 -0.97509289
  H  2.11386774  1.61638007  1.58463171
  H -0.32274845  2.25559357  1.45800505
  H -0.90507022  2.47729173 -1.20918692
  H -0.58984842 -1.64006203 -0.98073204
  H -2.45588025 -0.48676135 -2.96027770
  H -1.38905665 -1.88214089 -3.21463469
  H -2.89312418 -2.05816029 -2.27201727
  H -2.29339616 -1.52618437  4.05332273
  H -3.56122040 -0.66286820  3.14918916
  H -3.27637078 -2.40927377  2.85098962
  H  1.51143593 -2.67289242  1.06460437
  H  3.61557267 -3.87888192 -0.03804932
  H  4.45486602 -2.90587900  1.18071354
  H  3.29494940 -4.16179992  1.68760295
