31
opt_min/./Product_3496_opt.xyz
  C -3.02317500 -0.47558400 -0.23211600
  C -1.72250030 -0.33757032  0.54204589
  C -0.57898132 -1.22809978  0.01420500
  C -0.13370191 -2.27404303  1.02816414
  C  0.53333250 -0.16048109 -0.25843206
  C  1.95526533 -0.65759093 -0.46883288
  N  2.86827204  0.30648268 -0.23426956
  C  4.27440896  0.11925418 -0.49685356
  O  2.21920580 -1.78295438 -0.82795767
  N  0.32549981  0.86851177  0.75429482
  C -1.07973087  1.08107992  0.44696303
  C -1.75524593  2.19569892  1.20426082
  O -0.99907285  1.39666718 -0.95526452
  C -0.02922119  0.61631537 -1.45782211
  O  0.27927486  0.55757307 -2.60764301
  H -3.35936870 -1.51128316 -0.19972416
  H -3.79689719  0.15652239  0.19648334
  H -2.88113823 -0.19773467 -1.27626791
  H -1.90756791 -0.55013662  1.60078122
  H -0.83893964 -1.73020210 -0.92084852
  H -0.95265771 -2.96433852  1.22789493
  H  0.15644695 -1.81036147  1.97358703
  H  0.71293432 -2.83116754  0.63627273
  H  2.54247010  1.23585304 -0.01178099
  H  4.64295859  0.87170023 -1.19662815
  H  4.85135217  0.18631948  0.42955890
  H  4.40154549 -0.87504760 -0.92488410
  H  0.47382889  0.53268782  1.70208511
  H -2.80467926  2.24106122  0.93337344
  H -1.27581243  3.13914596  0.95102100
  H -1.65811291  2.02663354  2.27516667
