44
opt_min/./Product_5558_opt.xyz
  C -1.40838582  0.45974235  0.45018748
  O -2.09755728  1.09520532  1.21165755
  C -1.91243766 -0.14583617 -0.79434259
  O -3.15267864 -0.67128913 -0.85291474
  C -3.85564782 -0.91180552  0.35810001
  C -1.13027313 -0.01547587 -1.91231366
  O -1.42679735 -0.34677613 -3.18514541
  C -2.63297975 -1.00137960 -3.51687672
  C  0.19045700  0.63559923 -1.86430721
  O  0.78805272  0.91900258 -2.87716704
  C  0.85911118  0.94299952 -0.50375355
  C  1.01996102  2.45344321 -0.40841573
  C  0.10158697  0.27824915  0.66128066
  C  0.49419524  0.73899822  2.07060550
  N  0.45367929 -1.11030869  0.43005620
  C -0.15839537 -2.16904502  0.99709183
  O  0.45399732 -3.32028641  0.72114003
  C -0.08472578 -4.48804672  1.32569504
  O -1.17743920 -2.02996530  1.64212200
  O  1.62884338 -1.24920189 -0.34466742
  C  2.15198301  0.05963101 -0.52155751
  C  2.91130449  0.08283396 -1.76293891
  N  3.63850854  0.06983095 -2.64364625
  C  3.18950386  0.35963235  0.60809593
  C  4.08340144  1.54698470  0.40185569
  O  3.26939314 -0.38122892  1.54598170
  H -4.68904422 -1.55309365  0.07665068
  H -4.22942138  0.02026623  0.78546226
  H -3.21990086 -1.41463703  1.08925964
  H -2.59014274 -1.13394864 -4.59720896
  H -3.50335339 -0.39829700 -3.25522452
  H -2.70562813 -1.97633752 -3.03065043
  H  0.07419450  2.89102352 -0.09379818
  H  1.27913556  2.84939849 -1.38911597
  H  1.78957076  2.75136877  0.29583434
  H  1.05891336 -0.03858257  2.57715182
  H  1.08869947  1.64628728  2.05297801
  H -0.41171346  0.93428104  2.64124398
  H -0.37302314 -5.18324130  0.53745828
  H -0.95875584 -4.22610304  1.92769167
  H  0.68308283 -4.93169510  1.95827628
  H  3.96621499  1.99804580 -0.57796362
  H  3.89055477  2.28223911  1.18292624
  H  5.11434397  1.21931379  0.53124638
