39
opt_min/./Product_4751_opt.xyz
  C -0.32273600 -0.69026200 -2.01611100
  O -0.00993679  0.00024848 -2.95568890
  C -1.43484285 -1.65192952 -2.11598607
  C -2.08049015 -2.13170759 -1.04935770
  C -1.75053062 -1.74758187  0.33387693
  O -2.30371222 -2.25168310  1.28585967
  C -0.59343249 -0.78299503  0.49873884
  C  0.39631632 -0.70834931 -0.67284043
  C  1.19210981  0.55752210 -0.29505637
  C  2.16958206  0.21823202  0.84055849
  O  2.91359008 -0.85394498  0.55891373
  C  3.91187087 -1.23071232  1.50095785
  O  2.27362858  0.87013829  1.84530421
  C  2.03647413  1.21403718 -1.38994174
  N  0.16889123  1.47274978  0.18311279
  C -0.97821891  0.71860191  0.65554487
  C -1.33181214  1.12679754  2.11233882
  C -2.37859178  0.32171297  2.80288212
  O -0.76518515  2.06541152  2.60495253
  C -2.22856112  1.02809131 -0.17063686
  C -2.31307759  2.40913848 -0.73115955
  O -3.09910229  0.19792516 -0.28784055
  H -1.74044141 -1.90062118 -3.12112978
  H -2.91583765 -2.81053464 -1.14909991
  H -0.05653745 -1.08140797  1.40674019
  H  1.05943082 -1.58106338 -0.69990236
  H  4.79873880 -1.50944808  0.93642717
  H  4.12553481 -0.39446479  2.16877008
  H  3.55645742 -2.08222469  2.08140369
  H  1.39659474  1.58139180 -2.18270746
  H  2.73893339  0.49598292 -1.80306737
  H  2.58511923  2.05056740 -0.96285919
  H  0.52643221  2.07249186  0.92882469
  H -1.94856101 -0.62802701  3.11770644
  H -2.72555762  0.84920220  3.68604561
  H -3.20794669  0.08631720  2.14202053
  H -2.82218046  3.04391497 -0.00861069
  H -2.90308257  2.40338674 -1.64362866
  H -1.31627144  2.79931306 -0.90935431
