39
opt_min/./Product_474_opt.xyz
  C -1.00336141 -0.09779487 -3.51434714
  O -0.82876776 -0.15202772 -2.10299418
  C  0.41910925 -0.15538455 -1.63870881
  O  1.40590795 -0.15273056 -2.32993658
  C  0.42894983 -0.08834278 -0.13155253
  C -0.38682811 -1.17601330  0.61670311
  C -0.70250458 -2.46376238 -0.17260338
  C  0.63477257 -1.48691185  1.77838769
  C  1.65719337 -2.40888643  1.12860617
  C  2.36144383 -1.62029205  0.33016086
  C  1.81522669 -0.22792288  0.56004854
  O  1.38890900 -0.29621245  1.91156570
  C -1.69856283 -0.45460914  0.98895630
  C -2.22068063 -0.88163051  2.26755998
  N -2.64113423 -1.25795329  3.26158401
  N -1.49892879  0.98931083  0.93323916
  C -2.69232290  1.66064701  0.46003488
  C -0.19885792  1.26823888  0.34348584
  C -0.06807635  2.35567139 -0.72199628
  C  1.35543288  2.80773471 -0.95373628
  O -0.98602109  2.84600777 -1.32680110
  H -1.93810650  0.43094344 -3.68984174
  H -1.05681079 -1.10988351 -3.91877414
  H -0.16950583  0.43475032 -3.97442036
  H -0.19395830 -2.47430323 -1.13373928
  H -1.76931382 -2.57207872 -0.35380783
  H -0.38240550 -3.34413396  0.37720138
  H  0.19466925 -1.77423094  2.72877750
  H  1.75028216 -3.45899113  1.31909000
  H  3.15157796 -1.85372089 -0.35409919
  H  2.51456387  0.58245111  0.38053224
  H -2.44437155 -0.73318405  0.22033089
  H -3.53249102  1.28428089  1.04431464
  H -2.59439255  2.72861664  0.64467907
  H -2.89051557  1.49747281 -0.60510743
  H  0.42458787  1.59899513  1.19172872
  H  1.89699445  2.91943306 -0.01931289
  H  1.87408197  2.07570448 -1.57191595
  H  1.33980381  3.75497058 -1.48931612
