44
opt_min/./Product_5709_opt.xyz
  O -2.70605200  1.13602700 -2.21274100
  C -1.71274050  1.57386993 -2.58376823
  O -0.72551712  2.00022831 -2.96415742
  C -0.09396032 -0.56752676 -0.67436682
  C  1.21319480 -0.44975841 -0.84834138
  C  2.01589831 -3.14034812 -2.36923647
  O  1.93932251 -3.68964518 -1.36886165
  O  2.09185741 -2.62431567 -3.38782956
  C  1.89347540 -0.24156724  0.47125301
  C  2.98941015 -1.29884561  0.70886957
  O  3.01795148 -2.05689034  1.63121070
  O  3.89339036 -1.24842202 -0.27444210
  C  4.98126415 -2.16583755 -0.20020525
  C  2.58757980  1.13532081  0.50642055
  O  2.91045246  1.75592994 -0.46744421
  O  2.79662092  1.50671309  1.76264820
  C  3.35187052  2.79949147  1.97641922
  N  0.83267497 -0.40618111  1.44078378
  C -0.45579956 -0.38587094  0.77348263
  C -1.11220082  1.02296702  0.89649448
  N -2.44370612  1.04894067  0.73218744
  C -3.21276762  2.26796298  0.84033000
  O -0.42502570  2.00166240  1.08920538
  C -1.37289582 -1.43046339  1.43166424
  O -1.41162582 -1.57867457  2.62841039
  N -2.20547324 -2.08445068  0.58064487
  C -3.07489187 -3.13864477  1.05789865
  H -0.82871622 -0.66986660 -1.45357829
  H  1.76855793 -0.45979240 -1.76645297
  H  4.68694160 -3.04624855  0.37342827
  H  5.83167249 -1.68188226  0.28303986
  H  5.23906995 -2.43647082 -1.22204270
  H  2.54052960  3.51340079  2.12699888
  H  3.94759668  3.10004369  1.11272262
  H  3.96988199  2.73340631  2.86943519
  H  0.88508508  0.23686969  2.21934706
  H -2.95374104  0.18559794  0.62866094
  H -2.52617716  3.10719653  0.74191122
  H -3.95750264  2.30538645  0.04624909
  H -3.71097305  2.32950418  1.81045251
  H -2.02854581 -2.06034300 -0.41053209
  H -2.56837027 -4.10681718  1.05793905
  H -3.96047613 -3.19281251  0.42684516
  H -3.36156440 -2.89934103  2.08046346
