27
opt_min/./Product_3872_opt.xyz
  O -2.15465400 -3.16993400  1.01961400
  C -2.63846488 -2.16302221  1.27812699
  O -3.12698567 -1.17145962  1.56554723
  C -1.32799860 -1.03959040 -1.15074557
  C  0.03192559 -1.07093971 -1.03762353
  C  0.87540115 -1.83353218  1.70068891
  O -0.03403426 -1.35610769  2.19934057
  O  1.78143084 -2.33869748  1.21391825
  N  0.42514342  0.16513631 -0.59476038
  C  1.72765375  0.66137505 -0.26955786
  N  2.73490500 -0.10492020 -0.73380947
  C  4.10600103  0.19908874 -0.39090593
  O  1.85973211  1.68835353  0.33773877
  N -0.62333024  0.96144180 -0.41027463
  C -1.69439931  0.27157857 -0.74632379
  C -3.06777197  0.80787010 -0.66389220
  C -3.19617213  2.11920530  0.05167954
  O -4.00082352  0.19292514 -1.12882486
  H -1.98857850 -1.81264784 -1.48470199
  H  0.72337049 -1.86092337 -1.25121873
  H  2.55862445 -1.00297475 -1.15153395
  H  4.75793974 -0.09625378 -1.21020516
  H  4.41056107 -0.32233100  0.52014558
  H  4.18412230  1.27186018 -0.22439269
  H -2.23638498  2.62164702  0.10477217
  H -3.94187838  2.73995922 -0.43937124
  H -3.54639296  1.91183030  1.06212988
