37
opt_min/./Product_4364_opt.xyz
  C  0.66130400  1.23510100  0.33479200
  C -0.31625985  0.22361954  0.95612943
  C -0.20978259 -1.15497269  0.27644515
  N  1.11432314 -1.59605148 -0.03327597
  C  1.47090351 -2.94823475  0.35593528
  C  2.15392970 -0.69017257 -0.00918666
  C  2.02157160  0.63337439  0.15167510
  C  3.13863309  1.59695134  0.07904445
  N  4.40486891  1.08037786  0.11109367
  O  2.95608737  2.79199492 -0.03919979
  N -1.14098787 -0.95375469 -0.87882628
  C -1.30372688 -1.60257514 -2.08291142
  C -0.30069240 -2.68243700 -2.39814138
  O -2.19310109 -1.28582801 -2.83428747
  N -2.04929639 -0.00169281 -0.55852796
  C -1.69245041  0.62483060  0.49689819
  C -2.49036816  1.71291924  1.10609781
  N -3.60205838  2.00374457  0.40375798
  C -4.52277979  3.03911212  0.79372373
  O -2.15794332  2.25837915  2.14197907
  H  0.72476078  2.12729336  0.95734995
  H  0.28462745  1.55484527 -0.64287319
  H -0.19646474  0.17031877  2.03575916
  H -0.68977719 -1.91480732  0.91456356
  H  2.27093531 -3.31101762 -0.28907363
  H  0.61669169 -3.61159535  0.24971431
  H  1.81267898 -2.99222870  1.39609863
  H  3.11639715 -1.15263930 -0.17042699
  H  4.59382772  0.17166840  0.49189425
  H  5.15097128  1.75647075  0.14775626
  H -0.40620670 -3.51328569 -1.70651476
  H -0.49554895 -3.03818035 -3.40608590
  H  0.71025556 -2.29009282 -2.33829797
  H -3.76334312  1.49016856 -0.44990548
  H -4.52962250  3.84998258  0.06240254
  H -4.19157860  3.42748091  1.75559537
  H -5.53256351  2.63733791  0.88911902
