37
opt_min/./Product_3583_opt.xyz
  C -2.13997000  0.30894100 -1.53799400
  C -1.74104521  0.36818901 -0.05272165
  C -2.75695759  1.24161315  0.67623997
  C -0.26569085  0.87811277  0.13430369
  C  0.02640149  1.35643457  1.56583957
  C  0.06650468  2.00394983 -0.85907947
  N  0.45303636 -0.35653467 -0.14654501
  C  1.74776898 -0.55963640 -0.52718743
  O  2.15611532 -1.61913020 -0.96961147
  N  2.59981064  0.50053955 -0.35619874
  C  3.95112297  0.42177264 -0.85606024
  N -0.45868444 -1.50039450 -0.14160759
  C  0.08580783 -2.64895351  0.54810920
  N -1.70326437 -1.02859483  0.36594420
  C -2.06322663 -1.38791470  1.72615461
  H -3.05266912 -0.27567073 -1.61413724
  H -2.31769948  1.29350022 -1.95909925
  H -1.37035516 -0.19506249 -2.11462884
  H -2.65043444  2.26771895  0.33146563
  H -3.76455992  0.90086158  0.44981562
  H -2.62250066  1.23734293  1.75363978
  H  1.09520091  1.52082952  1.68959548
  H -0.27434759  0.61542768  2.30178094
  H -0.48950254  2.29031872  1.77449579
  H  0.81350771  2.68634374 -0.45628881
  H  0.43820069  1.59280534 -1.79420673
  H -0.82152213  2.59321615 -1.06878944
  H  2.26671989  1.40144066 -0.07195637
  H  4.57627361  1.12966655 -0.31449176
  H  4.31730654 -0.59178430 -0.69869633
  H  4.00143786  0.64366122 -1.92770894
  H  0.59912388 -2.40035111  1.48660910
  H  0.81309155 -3.10453271 -0.12348445
  H -0.71810067 -3.35404427  0.73497621
  H -2.39073412 -2.42800367  1.72832581
  H -2.91116458 -0.78556775  2.03685378
  H -1.26254890 -1.27144684  2.46753683
