45
opt_min/./Product_4841_opt.xyz
  C  4.84172900 -1.57871900  1.79585400
  C  3.91945323 -1.01729476  0.75774158
  C  4.55914890 -0.07103199 -0.21713952
  C  2.62536374 -1.35686155  0.73534550
  C  1.64152820 -0.87076136 -0.20389566
  C  0.36616656 -1.25798005 -0.17173797
  C -0.75698766 -0.84584063 -1.08977896
  C -1.30418068 -2.11067673 -1.74373987
  C -0.34907252  0.23101259 -2.10148581
  C -0.30715165  1.52165070 -1.25835023
  C -0.81148668  2.65319490 -2.01134468
  N -1.23851320  3.53999440 -2.59242424
  N -1.18420982  1.29155476 -0.10513082
  C -1.78696974 -0.02890503 -0.24098601
  C -3.17728800  0.12396966 -0.94155881
  N -3.62125629  1.38798599 -0.91333468
  C -4.86825920  1.79473153 -1.50637784
  O -3.78982616 -0.80318626 -1.41890537
  C -2.12836157 -0.67436332  1.08454123
  O -2.38946727 -1.83574800  1.24029290
  O -2.12242910  0.22505308  2.07864619
  C -2.50043796 -0.24296077  3.36695628
  H  5.34345264 -0.77206570  2.32921730
  H  5.61243302 -2.18847144  1.32308527
  H  4.30455739 -2.19359282  2.51213365
  H  4.25212509  0.95501552 -0.01470800
  H  5.64076393 -0.11879747 -0.13297326
  H  4.28672754 -0.31175928 -1.24278245
  H  2.25564131 -2.05075863  1.47727390
  H  2.00149757 -0.17108700 -0.94415827
  H  0.06454603 -1.97653177  0.57905733
  H -0.48580997 -2.65823710 -2.20623928
  H -2.04495250 -1.87481953 -2.50046315
  H -1.77237657 -2.73982723 -0.99293779
  H -1.12277069  0.31003903 -2.86709857
  H  0.59901821  0.02304664 -2.59026319
  H  0.71625852  1.75524941 -0.93746847
  H -0.72367332  1.42842436  0.78338462
  H -3.01008930  2.08158503 -0.50385678
  H -5.51123723  2.26243165 -0.75894158
  H -5.35566058  0.90388172 -1.89773405
  H -4.69246850  2.50102927 -2.31993207
  H -3.58606124 -0.20284931  3.46776091
  H -2.16441213 -1.27193384  3.50744986
  H -2.03076937  0.42116717  4.08835262
