51
opt_min/./Product_1987_opt.xyz
  C -0.47833800 -2.98896600 -1.63998900
  O  0.29309025 -1.96948463 -1.04816690
  C -0.24953211 -1.32940871  0.06427670
  C  0.64322874 -0.12884039  0.53767017
  C  1.95576480 -0.00754400 -0.21463003
  C  1.96670760  0.11035958 -1.60417346
  C  3.14899042  0.25013066 -2.30842696
  C  4.36298125  0.26566286 -1.64673533
  C  4.37289444  0.10765529 -0.27427067
  C  3.18987248 -0.03281777  0.43054888
  C  0.86013119 -0.55072066  2.03313874
  C -0.44234047 -0.54842547  2.80426529
  C -1.09088517 -1.63697158  2.41649420
  C -0.20705135 -2.24416887  1.35637860
  O  1.08891167 -1.94020646  1.84684899
  C -0.33798457  1.06389209  0.36494907
  C  0.08429185  2.31892098  1.11351787
  N  1.15840346  2.90096037  0.55395218
  C  1.74104296  4.10872386  1.08521249
  O -0.46547768  2.71453437  2.11824080
  C -0.57918230  1.22363359 -1.14860386
  O -0.25929397  2.12399641 -1.86762362
  O -1.32042176  0.17019994 -1.50799922
  C -1.58922320 -0.57034515 -0.26310927
  C -2.83826690 -1.43295965 -0.38315685
  C -3.71045000 -1.20662491 -1.58645790
  O -3.09975658 -2.24025127  0.47135792
  N -1.60724964  0.45298104  0.74331690
  C -2.75931890  1.33345216  0.80363189
  H  0.15809179 -3.41134583 -2.41526799
  H -1.38838664 -2.58075973 -2.09281758
  H -0.75808680 -3.76831594 -0.92525356
  H  1.05564334  0.05755726 -2.17401096
  H  3.11480257  0.34084648 -3.38378825
  H  5.28648043  0.38172860 -2.19426218
  H  5.30970075  0.08640687  0.26318450
  H  3.26075531 -0.18085467  1.49350391
  H  1.68030925 -0.05261483  2.53530489
  H -0.72025560  0.21578644  3.50083440
  H -2.05422299 -2.01140357  2.69338446
  H -0.31330339 -3.30397045  1.15256346
  H  1.50787866  2.56344761 -0.32966453
  H  2.81094122  3.97031579  1.24027410
  H  1.58020484  4.94817858  0.40589804
  H  1.25421476  4.31954786  2.03659356
  H -4.63007922 -0.73016426 -1.24419765
  H -3.99389365 -2.16567428 -2.01724705
  H -3.23308700 -0.57982051 -2.33143618
  H -2.75520729  1.81118596  1.78205205
  H -2.74431511  2.11019232  0.03007184
  H -3.66350365  0.73794359  0.69912937
