53
opt_min/./Product_1905_opt.xyz
  C  0.69706988 -1.51715751  1.60099456
  C  0.93338787 -0.30142869  0.68172265
  C  2.04125381 -0.58103963 -0.33183541
  C  3.17661785 -1.28704285  0.04977923
  C  4.20725876 -1.51059557 -0.84276099
  C  4.13254363 -1.02427910 -2.13617909
  C  3.01591952 -0.31071026 -2.52622255
  C  1.97914063 -0.09128753 -1.63224795
  C -0.34422437 -0.04730692 -0.08755843
  C -1.10313382  0.99485129 -0.43707069
  C -1.10782381  2.48524305 -0.13994844
  C -0.34995450  3.13673483 -1.19983412
  N  0.19859071  3.63243088 -2.07038216
  C -2.47315752  2.97925703 -0.30030021
  N -3.53365701  3.39749889 -0.36793311
  C -0.66971227  2.94793291  1.27100975
  C  0.81504988  3.28581446  1.37529217
  C  1.70779866  2.16125047  0.86444280
  C  1.42476457  0.84205035  1.59098877
  C -2.18521903  0.56637030 -1.40270471
  N -1.73952727 -0.73053365 -1.84818158
  C -2.72699915 -1.57104455 -2.47755766
  C -0.95894855 -1.29084648 -0.74708833
  C -0.01749098 -2.25789354 -1.28340944
  N  0.65179858 -3.06606935 -1.73528061
  C -1.91716408 -2.02477227  0.22358160
  O -2.17384491 -3.19464999  0.16976611
  O -2.50832917 -1.15125015  1.04325559
  C -3.52469823 -1.65311500  1.90692505
  H  0.62846628 -2.44550897  1.03943715
  H -0.21708080 -1.37385459  2.17424931
  H  1.51158815 -1.61838110  2.31367923
  H  3.27079375 -1.67830653  1.05157485
  H  5.07440106 -2.07025913 -0.52346467
  H  4.93898272 -1.20141894 -2.83327817
  H  2.93845255  0.08075008 -3.52910156
  H  1.11559773  0.45851789 -1.97755121
  H -1.25003462  3.83694153  1.53459215
  H -0.94610991  2.15993393  1.97418694
  H  1.04040583  3.48734550  2.42598308
  H  1.02278917  4.19644165  0.80825616
  H  1.56833247  2.03465279 -0.20953599
  H  2.75062622  2.44871561  0.99712837
  H  2.34465242  0.49551512  2.06502195
  H  0.69877778  0.99045444  2.39363846
  H -2.26884822  1.24487805 -2.26041774
  H -3.17087844  0.53562335 -0.89882562
  H -3.61568741 -1.74816282 -1.85477847
  H -3.04119037 -1.08093123 -3.39869908
  H -2.27442362 -2.53001850 -2.72315114
  H -3.41137290 -2.73157846  2.02988222
  H -4.50238262 -1.43273040  1.47306871
  H -3.41962449 -1.14369976  2.86299950
