61
opt_min/./Product_2531_opt.xyz
  C  2.32645300  0.39674700  4.02665100
  N  2.15090883 -0.18505802  2.71610068
  C  2.30978434  0.54461556  1.59881744
  O  2.65877199  1.70663008  1.60755011
  C  2.00316302 -0.22292494  0.28047183
  C  2.82947212  0.42473869 -0.86951665
  O  3.91883424  0.91285982 -0.68421094
  N  2.31773087  0.21010571 -2.09694123
  C  2.94947967  0.74054436 -3.28302833
  C  0.52882058 -0.05564306  0.07615109
  C -0.55158867 -0.87282956 -0.03839145
  C -0.86399024 -2.34466936  0.08765192
  C -2.16568008 -2.49310764  0.89926349
  C -2.95355958 -3.74685258  0.63052144
  O -2.50175870 -1.69260026  1.73549176
  C  0.16797304 -3.23668195  0.78995835
  C  1.27577025 -3.73442345 -0.13370440
  C  2.07114534 -2.59787743 -0.76484403
  C  2.61956344 -1.64285764  0.30194921
  C -1.69674585 -0.00033125 -0.30770280
  C -3.07706109 -0.42035739 -0.66715053
  C -4.13445290  0.53062898 -0.20534209
  O -3.30319808 -1.45713914 -1.24851934
  N -1.41687251  1.25376019 -0.27395662
  C -0.00838349  1.38215942 -0.00718217
  C -0.08813147  1.98477194  1.40877260
  O -0.17268660  3.30027904  1.39030250
  C -0.33774480  3.92691592  2.65951384
  O -0.21370554  1.30595820  2.39157114
  C  0.59644807  2.26329703 -1.12846332
  C  1.59515998  3.29931811 -0.75292269
  O  0.24650393  2.05798039 -2.26290641
  H  1.35978348  0.61744089  4.48121067
  H  2.88576943  1.32230165  3.90813966
  H  2.88663997 -0.29086764  4.66065783
  H  1.57596060 -1.01119541  2.67927960
  H  1.35737986 -0.07885203 -2.19833648
  H  3.82306648  1.31129729 -2.97276686
  H  3.26769963 -0.07379254 -3.93716675
  H  2.25250535  1.38538453 -3.81681245
  H -1.06666978 -2.74284263 -0.91247212
  H -2.90507502 -4.03168814 -0.41446201
  H -3.98768849 -3.57898492  0.92103432
  H -2.56587799 -4.56065902  1.24182765
  H -0.34264775 -4.11363221  1.19031699
  H  0.57754904 -2.69149686  1.64091670
  H  0.83129441 -4.33802274 -0.92787899
  H  1.94470975 -4.37851686  0.44068753
  H  2.89484372 -3.01886308 -1.34153944
  H  1.42548005 -2.06715704 -1.46117201
  H  3.69224033 -1.50169526  0.14780016
  H  2.52087698 -2.10612142  1.28197546
  H -5.03571634  0.42220624 -0.80090335
  H -4.35087381  0.24770838  0.82766872
  H -3.75658227  1.54690596 -0.21950485
  H  0.59467961  3.86208815  3.22275728
  H -1.13399621  3.43590712  3.22094845
  H -0.58957811  4.96377298  2.45293673
  H  2.13404498  3.61123744 -1.64464727
  H  2.28614760  2.92438228  0.00187085
  H  1.07321379  4.15641462 -0.33463234
