24
opt_min/./Product_3690_opt.xyz
  C -1.55817722  1.67108955  0.09992850
  O -1.70223093  2.81285661 -0.23645504
  C -2.64281726  0.79955026  0.57102977
  C -2.58517477 -0.53078902  0.46535803
  C -1.46265528 -1.24794439 -0.16409551
  O -1.51514538 -2.42559221 -0.41772298
  C -0.21168936 -0.43443187 -0.48279772
  C -0.18780776  0.98256228  0.09113558
  O  0.18930013  0.81479935  1.44096889
  O  0.97646541 -0.38450244  1.54612794
  C  1.01076224 -0.99609312  0.27602231
  C  2.31878416 -0.63533736 -0.49966623
  O  3.36573302 -0.76002316  0.27810628
  C  4.63888394 -0.48590578 -0.30397515
  O  2.31346413 -0.30041524 -1.65359349
  C  1.04650834 -2.44103210  0.43749576
  N  1.18308828 -3.56457254  0.58375359
  H -3.51429808  1.29949778  0.97208562
  H -3.39786792 -1.16339202  0.79867030
  H -0.02487387 -0.46730826 -1.56149530
  H  0.54004095  1.60792882 -0.44632378
  H  5.35130229 -0.49314080  0.51647001
  H  4.88664584 -1.25595263 -1.03737525
  H  4.63073672  0.48744433 -0.79683329
