43
opt_min/./Product_5041_opt.xyz
  C -1.51972600 -0.28946700 -2.20379300
  C -0.48831470  0.14947283 -1.17590952
  C  0.14935829  1.46028816 -1.64789174
  C  0.66701681 -0.86763740 -0.91443080
  C  0.25383996 -2.32320675 -0.82223527
  O -0.29567819 -2.95314162 -1.68119841
  N  1.21637387 -0.46417111  0.36535977
  C  2.45001303  0.18307179  0.43934858
  C  2.66847707  1.20704224  1.35984628
  C  3.91769380  1.78291756  1.48077648
  C  4.97667266  1.34406502  0.70403955
  C  4.77163900  0.31258693 -0.19697688
  C  3.52440825 -0.26774812 -0.32982611
  O  0.16667758  0.22557092  1.08238395
  C -1.00324829  0.25547361  0.29202048
  C -1.69765046  1.59500382  0.67451019
  N -2.87969709  1.48086501  1.30363093
  C -3.59682117  2.63703751  1.78778956
  O -1.17128235  2.66157459  0.45451573
  C -1.89632715 -0.94822359  0.60788238
  O -2.97279935 -1.15077332  0.09641787
  O -1.35786812 -1.74212350  1.52402403
  C -2.09819935 -2.91003891  1.85844386
  H -1.07527292 -0.23953401 -3.19482943
  H -1.88115023 -1.29966435 -2.05024993
  H -2.37283850  0.38418882 -2.16942123
  H -0.61246685  2.21268256 -1.82121186
  H  0.68351530  1.28772490 -2.57973663
  H  0.84364704  1.85319078 -0.90980694
  H  1.39819609 -0.77733227 -1.72162841
  H  0.53615485 -2.77509172  0.14594144
  H  1.84267641  1.55306602  1.95980432
  H  4.06397064  2.58274067  2.19211109
  H  5.95130834  1.79400105  0.80379568
  H  5.58675044 -0.04925599 -0.80516087
  H  3.39931775 -1.08716957 -1.02326653
  H -3.27001155  0.57893439  1.51894979
  H -4.62082047  2.62342907  1.41586869
  H -3.60851180  2.65483778  2.87909299
  H -3.08514528  3.52378656  1.41884957
  H -3.11132296 -2.64747418  2.16727549
  H -2.15611797 -3.57453443  0.99414479
  H -1.56026866 -3.38671518  2.67278147
