51
opt_min/./Product_5597_opt.xyz
  C -0.97807753 -0.23762262 -1.36948353
  O -0.92763983  0.14624984 -2.53281758
  C -2.08033826  0.10472196 -0.49242781
  O -3.15477314  0.82109993 -0.93526603
  C -3.61981685  0.62127313 -2.25756906
  C -1.97285232 -0.02833198  0.87569619
  O -2.90310837  0.60412338  1.60466443
  C -2.67421673  0.89000022  2.97572088
  C -0.99708811 -0.94050791  1.49596726
  O -1.14413734 -1.30097633  2.64486969
  C  0.01262452 -1.63665649  0.58090210
  C -0.56742789 -3.05520909  0.45100419
  C  0.23305393 -0.91733387 -0.75981722
  C  0.81505198 -1.84596154 -1.83402378
  C  1.28485266  0.18675711 -0.35727643
  C  0.50521504  1.31130751  0.36673874
  N  0.01602901  2.29634258 -0.40486749
  C -0.85652788  3.32080029  0.12159139
  O  0.32747815  1.27552302  1.57259217
  C  2.06727338  0.73518326 -1.54828716
  N  2.09092865 -0.45327506  0.65794843
  C  3.52750742 -0.40286392  0.61682716
  C  1.45333673 -1.64933789  1.19377874
  C  1.54376265 -1.64745726  2.72559082
  C  2.17836041 -2.83660871  0.75319380
  N  2.83963557 -3.71525759  0.43273769
  H -4.63329579  1.02197242 -2.26686183
  H -3.00396760  1.15011588 -2.98701737
  H -3.64247127 -0.44023044 -2.51622360
  H -3.35324721  1.71108843  3.20871299
  H -2.90492024  0.02859568  3.60357065
  H -1.63906294  1.19238590  3.13836712
  H -0.72763367 -3.46668295  1.44610595
  H  0.10420478 -3.71749750 -0.08845710
  H -1.52664268 -3.01721965 -0.06452097
  H  1.76962435 -2.26612778 -1.53266797
  H  0.94393868 -1.29230053 -2.75993865
  H  0.12377776 -2.65999281 -2.03733556
  H  0.09974786  2.23987780 -1.40674054
  H -1.89750783  3.11629804 -0.14017357
  H -0.75544575  3.31849653  1.20546183
  H -0.56388167  4.29301817 -0.27376984
  H  2.81468854  0.02136956 -1.88068623
  H  1.39589496  0.92668402 -2.38330544
  H  2.56739684  1.66302086 -1.27866419
  H  3.84532585  0.62923393  0.47651898
  H  3.97960397 -1.02731843 -0.16820516
  H  3.91274708 -0.74388457  1.57663749
  H  0.92793301 -2.43276135  3.15265054
  H  1.20998572 -0.68227847  3.09645335
  H  2.57554111 -1.80904171  3.03248264
