47
opt_min/./Product_5128_opt.xyz
  C  0.97018967 -0.51890008 -3.00858309
  C -0.03808099 -0.81951087 -1.90626690
  C  0.07227307 -2.28640138 -1.48532013
  C  0.08257832  0.15653306 -0.70991891
  C  1.27955435 -0.06565622  0.14814537
  C  2.36818238  0.70123116  0.06399910
  C  3.58159298  0.53475128  0.84672692
  C  3.66095143 -0.61565613  1.80478720
  C  4.58121913  1.40941654  0.72323470
  C -1.31759913  0.04542417 -0.04888611
  C -1.41176360 -0.95874338  1.10681183
  O -2.45070902 -1.77587302  0.95490068
  C -2.70830121 -2.67473916  2.02446175
  O -0.68655626 -0.96765834  2.06878962
  C -1.77172345  1.35080799  0.58256202
  C -0.89316811  2.09594726  1.35856429
  C -1.32408208  3.27114674  1.94801126
  C -2.62703171  3.70586216  1.77134309
  C -3.50476123  2.95719069  1.00597449
  C -3.08177271  1.77809453  0.41919627
  O -2.20722758 -0.35865685 -1.08768059
  C -1.50134921 -0.51937061 -2.30460985
  C -1.59868883  0.70373836 -3.08988772
  N -1.69044073  1.68500242 -3.66950915
  H  1.96355687 -0.82199396 -2.68565314
  H  0.71530644 -1.06648009 -3.91384630
  H  0.99375457  0.54237560 -3.24642873
  H -0.77902652 -2.58271667 -0.87720710
  H  0.09874671 -2.92147930 -2.36977278
  H  0.98616019 -2.45136997 -0.92038830
  H  0.13223245  1.16880961 -1.13546623
  H  1.23342190 -0.88484210  0.84752908
  H  2.37574890  1.53733818 -0.62592425
  H  4.66196312 -0.69743194  2.22021491
  H  3.41002564 -1.55293935  1.31238314
  H  2.95438907 -0.46775594  2.62144175
  H  4.52219923  2.24691482  0.04869401
  H  5.49114663  1.31813136  1.29100681
  H -1.99935858 -3.50525973  1.99742972
  H -3.72209603 -3.03832682  1.87948544
  H -2.61275369 -2.15801006  2.98113798
  H  0.11870948  1.75083508  1.50591121
  H -0.63703963  3.84852274  2.54918838
  H -2.95865439  4.62438666  2.23226843
  H -4.52333443  3.28840938  0.86777306
  H -3.75616621  1.18488188 -0.17869161
  H -1.97240341 -1.33381357 -2.86664881
