46
opt_min/./Product_5260_opt.xyz
  C -0.55762699  0.10590745  1.80140896
  C -0.08630057 -1.17053215  2.42835984
  C  0.27191350 -2.22846459  1.70230923
  N  0.25634988 -2.25081560  0.33540365
  C  0.54778179 -3.45373240 -0.39469323
  C -0.07992232 -1.06740992 -0.37318551
  C -1.06219443 -0.14205852  0.37171870
  C -2.46927935 -0.75338675  0.35356737
  N -3.42616741  0.02088210  0.91029018
  O -2.71220117 -1.82471828 -0.15559489
  C -0.94206698  1.12056496 -0.52531136
  C -1.53334881  0.83754061 -1.83028606
  N -1.93339292  0.61974861 -2.87980802
  C -1.59376258  2.41020163  0.01113119
  C -1.91893535  3.45263306 -1.02054936
  O -1.90839485  2.53910337  1.16536614
  N  0.51105168  1.22640430 -0.62055007
  C  1.10843218  2.32867713 -1.32312402
  C  1.09360330 -0.10020142 -0.75295001
  C  2.23972744 -0.20272480  0.25436853
  O  2.84370818 -1.39199006  0.20452722
  C  3.86604514 -1.60827915  1.16477271
  O  2.55938631  0.67375487  1.01445082
  C  1.61559688 -0.43805211 -2.15710634
  H  0.26308389  0.83184370  1.76439505
  H -1.34065444  0.54584250  2.42022125
  H -0.04459548 -1.20355175  3.50300520
  H  0.58874218 -3.14955384  2.16724831
  H  1.59555479 -3.48673479 -0.71450148
  H -0.09539778 -3.51573876 -1.27421520
  H  0.34512296 -4.31973629  0.23432642
  H -0.56051000 -1.37178470 -1.31488809
  H -4.34930030 -0.36868666  0.99852596
  H -3.20180664  0.84550372  1.44124058
  H -1.80979439  4.44445692 -0.58416545
  H -1.32740352  3.36482310 -1.92520901
  H -2.96997566  3.32514441 -1.28566044
  H  0.81420234  2.39644047 -2.38155673
  H  2.18881335  2.21742113 -1.26892286
  H  0.84672952  3.25681614 -0.81275636
  H  3.47579620 -1.42588415  2.16830606
  H  4.17671534 -2.64460689  1.05574964
  H  4.70637654 -0.93568326  0.97924060
  H  1.94173706 -1.47396419 -2.18006766
  H  0.82277396 -0.30015625 -2.89156692
  H  2.45772116  0.19272209 -2.43119694
