27
opt_min/./Product_58_opt.xyz
  C -0.14996894  2.80608100 -0.28067503
  C -0.49963142  1.39102996  0.00480095
  C -1.63267210  0.73081819 -0.18101895
  F -2.77729022  1.22832269 -0.66683371
  C -1.55750141 -0.71814019  0.22176176
  C -1.70987958 -1.64601585 -0.98431445
  C -2.56290382 -1.05988062  1.32184942
  O -0.22722729 -0.82380736  0.74713372
  C  0.48815561  0.38982808  0.57063649
  C  1.69621321  0.15763765 -0.38574012
  O  2.42478278 -0.84939080  0.04981035
  C  3.54873984 -1.22421062 -0.74121919
  O  1.91187702  0.81954241 -1.36141888
  C  1.03345798  0.85541164  1.83807209
  N  1.45936791  1.24666550  2.82312932
  H  0.59012698  3.16772380  0.42991112
  H  0.27456773  2.88270056 -1.28172459
  H -1.04306276  3.42598472 -0.23180231
  H -1.47953460 -2.66369890 -0.67964963
  H -1.02560202 -1.35447398 -1.77936123
  H -2.72904516 -1.60255231 -1.35876684
  H -3.57484219 -0.89168345  0.96055836
  H -2.44656572 -2.09953027  1.61333807
  H -2.38508164 -0.43090838  2.19156546
  H  3.21703579 -1.83123020 -1.58588784
  H  4.20203190 -1.80048030 -0.09211602
  H  4.05766902 -0.33563400 -1.11877732
