37
opt_min/./Product_4231_opt.xyz
  C -1.79568741 -1.55462259  1.91817162
  C -1.54005440 -1.45408979  0.40561534
  C -2.34775272 -2.54771196 -0.28120344
  C -0.00952425 -1.47584152  0.16254440
  C  0.35842206 -1.84314396 -1.26870312
  O  0.86990767 -1.10630006 -2.05747875
  N  0.40181549 -0.12955970  0.52731377
  C  1.64902394  0.37092387  0.17208437
  C  1.83081384  1.73644120 -0.04709210
  C  3.09027540  2.24564428 -0.29547716
  C  4.19427801  1.41167026 -0.32155458
  C  4.02119629  0.05699236 -0.09545762
  C  2.76745187 -0.46399827  0.15446742
  N -0.70567524  0.77657989  0.45792514
  C -1.83278935  0.00368608 -0.07459850
  C -1.89279194  0.22683208 -1.61590551
  C -1.87018397  1.67710886 -1.98278664
  O -1.97269253 -0.67086008 -2.40534725
  C -3.08256194  0.51134590  0.44769472
  N -4.04587371  0.93058618  0.89901828
  H -1.23869894 -0.80476708  2.47641444
  H -2.85467647 -1.42802167  2.13303864
  H -1.48886793 -2.53367572  2.27815627
  H -2.19172350 -2.57428433 -1.35326489
  H -3.40693298 -2.37618323 -0.09571635
  H -2.08380104 -3.51612791  0.13987721
  H  0.46330820 -2.20871294  0.82771094
  H  0.14155453 -2.90206348 -1.50495677
  H  0.97664102  2.39475595 -0.03127348
  H  3.20633258  3.30651802 -0.47159222
  H  5.17806307  1.81137776 -0.51694685
  H  4.87348690 -0.60809133 -0.11343948
  H  2.66241527 -1.52474214  0.32815420
  H -0.91602326  1.09703220  1.40637860
  H -1.55873709  1.79083806 -3.01753295
  H -2.87999225  2.07245442 -1.87147001
  H -1.20782623  2.22719026 -1.32004867
