37
opt_min/./Product_215_opt.xyz
  C  4.47667832  0.61221815  0.59460863
  O  3.15349377  1.05446173  0.83548294
  C  2.16038708  0.39096716  0.18780716
  C  1.88168945 -0.89891735 -0.02830390
  C  2.55764091 -2.17073950  0.34848033
  C  0.54710585 -0.86648992 -0.76468777
  C -0.52096460 -0.54597037  0.32322759
  C -0.18721325  0.93106598  0.59835240
  C  0.97988804  1.16070007 -0.39973576
  O  0.62122070  0.34713522 -1.49469802
  C -1.49339596  1.69155094  0.27076517
  C -1.83863148  2.75736891  1.31911463
  C -1.42664675  2.35776293 -1.02830777
  N -1.47136281  2.91849606 -2.02313200
  O -2.52350276  0.72313464  0.25885530
  C -2.01349286 -0.56001439 -0.11238992
  C -2.81296537 -1.59885077  0.67299384
  C -2.21796594 -0.76646992 -1.61638362
  H  5.11799558  1.29143938  1.15347563
  H  4.71626015  0.67527503 -0.47090491
  H  4.64197716 -0.41036097  0.93634102
  H  3.15795957 -2.04590611  1.24608123
  H  1.80755697 -2.93644943  0.53888204
  H  3.19809197 -2.52551883 -0.46028455
  H  0.34020493 -1.71127689 -1.41387759
  H -0.38290305 -1.19001778  1.18953328
  H  0.12598165  1.14316224  1.61928337
  H  1.16782390  2.19100120 -0.69018454
  H -2.73438266  3.29521954  1.01815886
  H -2.03126985  2.26658999  2.26963246
  H -1.01709974  3.46174320  1.42351639
  H -2.73119951 -1.40917917  1.74059975
  H -3.86009526 -1.53716835  0.39166312
  H -2.44235367 -2.59711264  0.45633254
  H -1.60805666 -0.07010749 -2.18587525
  H -1.97246533 -1.78412502 -1.90658264
  H -3.26445390 -0.57934625 -1.84629059
