38
opt_min/./Product_482_opt.xyz
  C  3.99706100 -1.46651900  0.86095100
  C  2.75757029 -1.30785278  0.06492889
  C  1.91343421 -2.19113020 -0.45771834
  C  0.81904240 -1.36355398 -1.10022991
  C  0.01537552 -0.82318335  0.12918581
  C  0.96702200  0.28856594  0.59858858
  C  2.18962623  0.04711247 -0.33153480
  O  1.53416780 -0.22672989 -1.55410165
  C  0.23734533  1.52007938  0.12532751
  C  0.86231200  2.87325531  0.16750682
  C  0.16681968  3.89282684 -0.68156961
  O  1.85123903  3.08907474  0.82810949
  N -0.91220801  1.32358354 -0.37135028
  C -1.29171640 -0.05746778 -0.21230428
  C -2.19287289 -0.13835479  1.03754510
  O -2.65756189 -1.36857782  1.19100306
  C -3.51305736 -1.62123246  2.30411952
  O -2.40257143  0.78701425  1.77037728
  C -2.04391750 -0.62976598 -1.41629561
  C -2.38549754  0.38443649 -2.46849619
  O -2.29489987 -1.80154353 -1.50159115
  H  4.07551440 -2.47860633  1.25369439
  H  4.86559457 -1.26355726  0.23207074
  H  4.00922736 -0.75788088  1.68679673
  H  1.90154478 -3.26037466 -0.39362979
  H  0.23340227 -1.80849658 -1.89916581
  H -0.16410122 -1.64463430  0.81904657
  H  1.18142061  0.34519974  1.66320501
  H  2.88680978  0.87536537 -0.40918801
  H  0.48315488  4.89665173 -0.40842795
  H  0.43108773  3.69558473 -1.72088252
  H -0.90699448  3.76647163 -0.58543724
  H -2.95312739 -2.17468297  3.06135599
  H -3.87428943 -0.67747308  2.71803680
  H -4.34348920 -2.22218600  1.93728451
  H -3.27202021  0.06596494 -3.01534425
  H -1.54355391  0.43530917 -3.16086437
  H -2.51809234  1.36445280 -2.02471142
