59
opt_min/./Product_2524_opt.xyz
  C  2.14794743 -2.29536743  2.59275208
  O  1.82189947 -1.71399356  1.33801446
  C  0.79410013 -0.87166708  1.33099428
  O  0.12499248 -0.63847547  2.30183066
  C  0.61083518 -0.21707588 -0.03667111
  C  0.93446510 -1.27155049 -1.12587339
  O  0.13861433 -1.82437718 -1.83098143
  O  2.23094927 -1.56048128 -1.18739771
  C  2.59587880 -2.51353906 -2.18015558
  C -0.85771497  0.30569629 -0.27598115
  C -1.61561818  0.98632514  0.88249791
  C -1.08333293  2.07914326  1.55571063
  C -1.77677608  2.73577730  2.55503899
  C -3.05187816  2.33403192  2.90504646
  C -3.62708800  1.29491784  2.19938696
  C -2.92828964  0.64226910  1.19744398
  C -1.77837674 -0.81387175 -0.74519752
  C -2.61615019 -0.67730682 -1.84315876
  C -3.50122149 -1.68565997 -2.18941922
  C -3.59230949 -2.83302457 -1.42597717
  C -2.80411680 -2.95399605 -0.29306157
  C -1.92055722 -1.95137578  0.05094108
  C -0.55251747  1.40949778 -1.32162452
  C -0.45985956  0.95212439 -2.69977886
  N -0.27102103  0.69774019 -3.79912842
  N  0.72279477  1.98344979 -0.90698966
  C  1.28614590  2.97098723 -1.79931337
  C  1.56463552  1.02507327 -0.20168760
  C  2.86316758  0.65826142 -0.95947769
  O  3.80044342  0.17808574 -0.13576764
  C  5.06145355 -0.13671914 -0.70639278
  O  3.06139375  0.88293130 -2.12437786
  C  2.03155260  1.69711619  1.12533025
  H  1.35773389 -2.97833982  2.91271386
  H  2.26995478 -1.52023343  3.35164023
  H  3.07924822 -2.83506813  2.44355994
  H  3.66933087 -2.65267841 -2.08437954
  H  2.06145515 -3.44999261 -2.01193414
  H  2.34126350 -2.13405754 -3.17175273
  H -0.12776435  2.46630664  1.27361845
  H -1.31273537  3.57240773  3.05782142
  H -3.59747689  2.83376720  3.69118808
  H -4.63641820  0.98011372  2.42032497
  H -3.44340032 -0.14982406  0.68055620
  H -2.59771464  0.21551971 -2.44777552
  H -4.12112745 -1.56326816 -3.06519075
  H -4.28046426 -3.61876646 -1.69928609
  H -2.88554383 -3.83228437  0.33103805
  H -1.33310489 -2.05791693  0.94900430
  H -1.31119761  2.20436395 -1.26370347
  H  2.03660582  3.54494338 -1.25339006
  H  1.74042247  2.56043206 -2.70334836
  H  0.48212185  3.64907811 -2.08851916
  H  5.76535290  0.67171593 -0.49632292
  H  4.96589689 -0.25977493 -1.78658762
  H  5.40386368 -1.05884271 -0.24054038
  H  1.59112462  1.23996556  2.00420738
  H  3.11108771  1.64106339  1.23649599
  H  1.76946838  2.75133847  1.09804352
