29
opt_min/./Product_3407_opt.xyz
  C -1.84314715  1.77372484  0.02102702
  C -1.62393414  0.27318383 -0.10615341
  C -0.59561363 -0.21403146 -1.18609666
  C -0.23541735  0.78703514 -2.27885142
  N  0.53062384 -0.67846632 -0.36576639
  C  1.88151345 -0.40593483 -0.47693393
  N  2.56806704 -0.60905512  0.67409078
  C  4.00669376 -0.54767392  0.71805306
  O  2.41016121 -0.05935706 -1.51468302
  N  0.02577226 -1.14113903  0.85980003
  C -0.41586511 -2.54456646  0.78913129
  N -1.04718454 -0.26154941  1.12479728
  C -1.21947620  0.23165971  2.32351908
  N -1.41236004  0.62154019  3.38691852
  H -2.34047432  2.16390603 -0.86263975
  H -0.89923839  2.29352975  0.17225683
  H -2.47914243  1.96585342  0.88328796
  H -2.59388896 -0.21236181 -0.28924177
  H -1.03356500 -1.10327464 -1.66544406
  H -0.49521286  1.80395425 -2.01185506
  H  0.83290279  0.74630711 -2.46679485
  H -0.75156150  0.52769139 -3.19891466
  H  2.06563758 -0.91284717  1.49262887
  H  4.45037656 -1.54765750  0.69430323
  H  4.34274974  0.00454617 -0.15815226
  H  4.32879361 -0.03349783  1.62278207
  H -0.35276536 -2.92831408 -0.22948150
  H  0.23675307 -3.13675897  1.42977222
  H -1.43968742 -2.64017533  1.14750040
