37
opt_min/./Product_3948_opt.xyz
  C  0.81334986 -1.37806303 -1.48537601
  C  0.39262770 -0.99726190 -0.05576181
  C  0.67247327 -2.18670300  0.86081585
  C -1.05452557 -0.41098643  0.02597439
  C -1.67645419 -0.64456599  1.40413702
  C -2.01967753 -0.95858026 -1.02221686
  C -0.76695416  1.13540127 -0.16933152
  C -0.86176372  1.51412042 -1.56235829
  N -0.89079021  1.82142871 -2.66373042
  C -1.63750494  2.06036314  0.70518451
  C -2.77419326  2.73362002 -0.00489668
  O -1.38663893  2.22288939  1.86775414
  N  0.62506728  1.33236129  0.22128962
  C  1.21377142  0.21278591  0.30804666
  C  2.66760754  0.15930038  0.65988897
  N  3.09247834  1.29853266  1.23105932
  C  4.45964472  1.51829544  1.62452565
  O  3.36682997 -0.81163351  0.44050032
  H  0.26289152 -2.25292263 -1.82211534
  H  0.64674775 -0.55938373 -2.18312797
  H  1.87495827 -1.61512671 -1.48411369
  H  0.01502487 -3.01706044  0.61230760
  H  1.70301356 -2.50139666  0.71890763
  H  0.54251318 -1.93149021  1.90915103
  H -1.05799592 -0.23071118  2.19761362
  H -2.65511468 -0.16891807  1.46279785
  H -1.81444848 -1.70874014  1.57439656
  H -2.12566799 -2.03372034 -0.89218220
  H -3.00306172 -0.50743240 -0.89530820
  H -1.68905213 -0.76333287 -2.03835778
  H -3.35413198  2.01669487 -0.58228397
  H -2.36660464  3.46381567 -0.70359022
  H -3.40912776  3.23962337  0.71887073
  H  2.42485111  2.05298914  1.30035158
  H  4.53862199  1.65389639  2.70454314
  H  5.03528439  0.64361281  1.32500813
  H  4.85717196  2.40454762  1.12456641
