58
opt_min/./Product_2074_opt.xyz
  C  1.14202900 -3.16605100 -0.22340100
  C  1.02887850 -2.02550550 -1.19814171
  O  1.83238894 -1.94477269 -2.10120718
  C -0.05575583 -0.96218155 -1.08467077
  C -1.39600939 -1.15340372 -0.28789309
  C -1.59782837 -2.28103949  0.72287342
  C -2.48019231 -1.12028390 -1.38486789
  C -2.34269689 -2.34063998 -2.29819673
  C -1.08083003 -2.01559652 -3.11808356
  C -0.60628239 -0.68426014 -2.51561721
  C -1.94793531 -0.00141768 -2.28055063
  C -1.46236965  0.14769372  0.47532005
  C -2.66189414  0.58657592  1.25374906
  N -2.48429758  1.79241678  1.82396519
  C -3.47847358  2.42715744  2.64926438
  O -3.68013303 -0.07387849  1.35499006
  N -0.43879192  0.88813367  0.42193037
  C  0.60862649  0.31257613 -0.38073981
  C  1.73204847 -0.11207041  0.57412774
  C  1.43559773 -0.42244087  1.89887503
  C  2.42435791 -0.83612290  2.77370638
  C  3.73247380 -0.95330793  2.33951917
  C  4.03901048 -0.63640716  1.02821160
  C  3.05192654 -0.21364854  0.15510055
  C  1.15339440  1.39727841 -1.29857295
  C  1.91898585  1.12255160 -2.42728167
  C  2.42374898  2.15324793 -3.20205254
  C  2.18227274  3.47271882 -2.86460708
  C  1.43642635  3.75527515 -1.73457685
  C  0.93164681  2.72776318 -0.95888231
  H  2.03181635 -3.73872233 -0.47800242
  H  0.27139139 -3.81109081 -0.29639507
  H  1.23446813 -2.80242778  0.79540499
  H -0.76637679 -2.35159364  1.41621101
  H -2.50031089 -2.06023125  1.29023396
  H -1.74734873 -3.24018532  0.23591149
  H -3.47645664 -0.98502544 -0.96902423
  H -2.23870972 -3.26923912 -1.73969973
  H -3.22318836 -2.43718621 -2.93269486
  H -1.32314361 -1.86251035 -4.17087344
  H -0.33065209 -2.80150300 -3.06763035
  H  0.08938005 -0.15844442 -3.15999212
  H -1.87192920  0.96213113 -1.78083443
  H -2.51682302  0.11879707 -3.20071773
  H -1.58470137  2.23214712  1.68978397
  H -3.20407744  2.37500532  3.70631934
  H -4.41983331  1.89863769  2.50248016
  H -3.59652673  3.47203209  2.36203806
  H  0.42215236 -0.33357163  2.26132358
  H  2.16652332 -1.06824991  3.79700836
  H  4.50731208 -1.28070830  3.01642619
  H  5.05709231 -0.71353207  0.67650931
  H  3.32689534  0.03654608 -0.85585549
  H  2.13577174  0.10498816 -2.71175957
  H  3.01309970  1.91828397 -4.07651962
  H  2.57739476  4.27289824 -3.47282131
  H  1.24720724  4.78040315 -1.45051773
  H  0.35772813  2.95674662 -0.07511292
