67
opt_min/./Product_5969_opt.xyz
  C  1.39893800  1.33811900  1.35979600
  O  1.48333518  2.41236910  1.92390535
  C  2.59636636  0.75321249  0.71639398
  O  3.71463954  1.47836920  0.94225696
  C  4.95187869  0.80363330  1.10426834
  C  2.47398932 -0.31752315 -0.11051829
  O  3.47931779 -0.79243939 -0.90797295
  C  3.85166279  0.05728012 -1.98660619
  C  1.18296908 -1.02789531 -0.26963711
  O  0.98238867 -1.67169734 -1.27022007
  C  0.24136990 -0.92542482  0.93256475
  C  0.88064088 -1.77717161  2.03429398
  C  0.09145776  0.57505809  1.31544899
  C -0.59348587  0.78006064  2.67759874
  C -0.87356537  1.01935258  0.16844138
  C -1.76490424  2.26950193  0.41213263
  O -2.88456825  2.31760890 -0.03801918
  N -1.16820797  3.29402479  1.04808371
  C -1.86361704  4.53630159  1.28842720
  C -0.18039450  1.31609306 -1.16231273
  C -0.54477599  0.60684499 -2.30068410
  C  0.03110323  0.88891610 -3.52544687
  C  0.96750213  1.90100439 -3.64013894
  C  1.30958285  2.63811104 -2.51935524
  C  0.73865584  2.35326544 -1.29186060
  O -1.76504693 -0.07058441  0.05128793
  C -1.22407907 -1.28837932  0.54066073
  C -2.11233059 -1.72019365  1.76009254
  N -1.92642123 -2.99042157  2.18079377
  C -2.77937670 -3.57064358  3.19360421
  O -2.92113076 -0.97885974  2.26503938
  C -1.48576025 -2.38817824 -0.47982601
  C -0.76200945 -3.57477986 -0.55166187
  C -1.13331942 -4.56751029 -1.44085402
  C -2.23945405 -4.40226256 -2.25618512
  C -2.97538343 -3.23362544 -2.17609759
  C -2.60732038 -2.23784388 -1.28898951
  H  5.71598098  1.57732394  1.06335413
  H  5.13584560  0.05485779  0.33457980
  H  4.98078453  0.31786731  2.08460549
  H  4.75273213 -0.37990442 -2.41202941
  H  3.05715580  0.07445285 -2.73714089
  H  4.05100541  1.07939617 -1.65459458
  H  0.19398388 -1.93945890  2.85981517
  H  1.17736841 -2.74821437  1.64509379
  H  1.77448269 -1.28215267  2.40787794
  H -0.18309420  0.10218516  3.42128975
  H -1.66454615  0.62019210  2.60100750
  H -0.42303342  1.79164929  3.03608254
  H -0.24968239  3.20197066  1.45834303
  H -1.30462047  5.37016434  0.86119936
  H -2.83943808  4.46867743  0.81133487
  H -1.99514579  4.70383811  2.35897125
  H -1.27723520 -0.17845165 -2.22087579
  H -0.25706119  0.31295543 -4.39185327
  H  1.41987373  2.12373926 -4.59544095
  H  2.02349567  3.44525311 -2.59705393
  H  1.01428471  2.96288930 -0.44681371
  H -1.36879328 -3.61510250  1.62091093
  H -3.07011859 -4.57873399  2.90558069
  H -3.66534289 -2.94489626  3.29583809
  H -2.26506161 -3.60524259  4.15742430
  H  0.12608798 -3.72247486  0.04478436
  H -0.54838639 -5.47401781 -1.49815815
  H -2.52440121 -5.18110045 -2.94782428
  H -3.84495224 -3.09567231 -2.80151436
  H -3.18766975 -1.33223853 -1.20761798
