31
opt_min/./Product_266_opt.xyz
  C  0.45034684  0.61681971  0.39389249
  C  1.36114830 -0.18975526 -0.15696046
  C  2.84774158 -0.21257834 -0.16976474
  O  3.46788242 -0.80500669 -1.02515218
  N  3.41254057  0.49051049  0.83695414
  C  4.84451082  0.55784434  1.00891351
  C  0.56230944 -1.19267302 -0.97912191
  C  1.17193686 -2.42786597 -1.36404545
  N  1.58180853 -3.44940907 -1.66974906
  C  0.03415458 -0.27024466 -2.14596509
  O  0.35562461 -0.26423187 -3.28831737
  O -0.87973500  0.51391263 -1.57354802
  C -0.88625434  0.12693137 -0.12640714
  C -2.14940064  0.60484583  0.59425638
  N -3.04227726  1.19787761 -0.20975797
  C -4.28428027  1.73310300  0.29773604
  O -2.28084331  0.42754967  1.78376625
  N -0.65375233 -1.28094942 -0.16091513
  C -1.72033081 -2.15079138 -0.60877479
  H  0.55310144  1.48571754  1.01337113
  H  2.83086673  0.90388147  1.54823422
  H  5.14877139  0.05785654  1.93075014
  H  5.17610828  1.59672597  1.03354205
  H  5.29648041  0.04936026  0.15775267
  H -2.81802657  1.33895406 -1.18406878
  H -4.61236787  1.11689127  1.13531699
  H -5.03743438  1.71851171 -0.48759004
  H -4.15450599  2.75860874  0.65403493
  H -2.37202736 -2.34775833  0.24210636
  H -1.28005594 -3.08834167 -0.94685510
  H -2.30793242 -1.72160136 -1.43057145
