31
opt_min/./Product_3421_opt.xyz
  C -1.92527808  0.99386485  1.27948325
  C -1.08208783  0.75654854  0.02881028
  C  0.35727443  1.27308935  0.19846703
  C  0.90957423  1.91343520 -1.07148886
  C  1.11758982 -0.03478865  0.54174228
  C  2.63213466  0.02836781  0.27847785
  C  3.15617955 -1.05805796 -0.60371907
  O  3.30154708  0.89806366  0.76939490
  C  0.97261475 -0.34133468  1.95823333
  N  0.81242929 -0.63122163  3.05261364
  O  0.49739451 -1.02964484 -0.24363689
  C -0.90532959 -0.73943303 -0.38898681
  C -1.23492828 -0.95238355 -1.87270693
  C -1.70014303 -1.73674362  0.45045078
  H -1.88133932  2.04617357  1.54886279
  H -2.96386474  0.73741258  1.09027355
  H -1.57389434  0.41372591  2.12861425
  H -1.56203827  1.29417682 -0.79219373
  H  0.44092826  1.98802136  1.01965690
  H  1.92941522  2.25465597 -0.90824506
  H  0.30370994  2.77272977 -1.34689183
  H  0.90846566  1.20236837 -1.89411974
  H  2.70588311 -2.01298201 -0.34566128
  H  4.24110079 -1.09766046 -0.53017066
  H  2.87439629 -0.82606721 -1.62946615
  H -2.30311652 -1.08940116 -2.00912616
  H -0.71692089 -1.84318962 -2.21936718
  H -0.90939424 -0.11327834 -2.48074889
  H -1.54141795 -2.73397606  0.04769962
  H -1.35745316 -1.73236430  1.48243838
  H -2.76002094 -1.50736502  0.42136965
