44
opt_min/./Product_1182_opt.xyz
  C -3.07942500  2.12158300 -1.04158600
  O -2.13792587  1.10512769 -1.29449475
  C -1.34694888  0.71261447 -0.20716557
  C -0.26304701 -0.30027032 -0.66993462
 Br -0.57034498 -0.87342185 -2.50957789
  C -0.44690562 -1.47970929  0.30331058
  C -1.72108753 -2.26622362 -0.02370203
  C -2.83812271 -1.23933598  0.24292088
  C -2.08779211 -0.07354676  0.90140588
  C -0.91176150 -0.77256073  1.58154607
  C  1.08160247  0.47992110 -0.53793718
  C  1.41785792  1.28714194 -1.80115470
  C  2.21864931 -0.45628262 -0.17191391
  C  2.76470966 -1.29553138 -1.13806957
  C  3.78666332 -2.17093817 -0.81553547
  C  4.27924854 -2.22507197  0.47575752
  C  3.73185330 -1.40488095  1.44699198
  C  2.70689149 -0.53288004  1.12779058
  N  0.76482495  1.38224228  0.58323653
  C  1.63501392  2.52784079  0.77225651
  N -0.59473067  1.85292824  0.31116251
  H -3.83940308  1.79658132 -0.32266622
  H -2.58827896  3.02639355 -0.67071794
  H -3.54983679  2.32727689 -2.00183774
  H  0.44348030 -2.10139920  0.38652444
  H -1.79652575 -3.11405563  0.66050724
  H -1.74429049 -2.66021473 -1.03674834
  H -3.31543869 -0.91767036 -0.68331309
  H -3.60677003 -1.63825256  0.90584058
  H -2.71110011  0.56145624  1.53211609
  H -0.17497415 -0.09059667  1.99696267
  H -1.22697080 -1.47631413  2.35226814
  H  2.31906105  1.87228871 -1.62832190
  H  1.59430430  0.65604657 -2.66508340
  H  0.58797078  1.95723473 -2.02598806
  H  2.38541445 -1.28514078 -2.14762200
  H  4.19662473 -2.81459218 -1.57945314
  H  5.07837629 -2.90795235  0.72593864
  H  4.09960627 -1.44754695  2.46151234
  H  2.27502630  0.09015178  1.89395669
  H  2.67252833  2.20054055  0.72867817
  H  1.46587501  3.32135864  0.03795706
  H  1.43897564  2.93257993  1.76872117
  H -0.97272657  2.17143506  1.20431657
