26
opt_min/./Product_48_opt.xyz
  C -3.21303200 -2.01838100  0.28413100
  N -2.16855579 -1.04289682  0.09600049
  C -0.90849188 -1.30057534  0.49584179
  O -0.56080068 -2.32420614  1.03825609
  C  0.09921018 -0.24696250  0.14472128
  C  1.40567821 -0.47326169 -0.10864780
  C  2.21821210 -1.70974324 -0.22966292
  C  3.68497331 -1.47057962 -0.01527218
  O  1.73572665 -2.77531170 -0.50620990
  O  2.07283603  0.71971496 -0.36413334
  N  1.07735009  1.72194552 -0.49988262
  N -0.10996395  1.15156871  0.04475888
  C -1.01593244  1.94148869  0.71217792
  C -0.71800237  3.41405376  0.68909011
  O -2.02097388  1.46843066  1.19533708
  H -3.77695223 -1.82148465  1.19979726
  H -3.89358271 -1.99216603 -0.56629169
  H -2.74516333 -2.99802107  0.36521228
  H -2.45251655 -0.10516556 -0.14060762
  H  4.06267026 -0.81201073 -0.79647916
  H  4.21722203 -2.41796898 -0.04844706
  H  3.84707010 -0.97810923  0.94109310
  H  0.94405354  1.83915375 -1.51850182
  H -1.38285850  3.89615447 -0.02731570
  H -0.95768444  3.81913611  1.67124935
  H  0.31592757  3.61838551  0.43447189
