29
opt_min/./Product_115_opt.xyz
  F -1.34639444  1.93701215 -1.02602688
  C -1.06627049  0.97520641 -0.08164940
  C -0.82094784 -0.41087301 -0.67852685
  C -2.18169789 -1.11727502 -0.34806234
  C -2.11962428 -1.45312449  1.13274930
  C -2.22255233 -0.28599947  1.75487185
  C -2.42745141  0.73262272  0.65630032
  O -3.08037988 -0.02124144 -0.34847105
  C  0.40411176 -0.94075578  0.08681153
  C  1.42474776 -1.62096208 -0.82665840
  C  2.85288987 -1.19739681 -0.67856353
  O  1.05199661 -2.48845285 -1.57455654
  O  0.92437531  0.11289680  0.88303782
  C  0.22329410  1.33723751  0.68830460
  C  1.11712083  2.33086897 -0.08690217
  C -0.09484565  1.93805660  1.97471734
  N -0.34421593  2.45761978  2.96058928
  H -0.62363715 -0.35952734 -1.74883357
  H -2.49181829 -1.88462748 -1.04701113
  H -1.99237187 -2.44000060  1.53195843
  H -2.18090255 -0.04450424  2.79763018
  H -2.95602109  1.64734435  0.90771965
  H  0.07374059 -1.71548451  0.79710113
  H  3.38807930 -1.34338550 -1.61279497
  H  2.92683719 -0.17365444 -0.32612945
  H  3.30479149 -1.83594078  0.08195628
  H  0.52120565  3.06084326 -0.62592069
  H  1.77489974  2.84924908  0.60805212
  H  1.72814582  1.77504590 -0.79422317
