40
opt_min/./Product_1141_opt.xyz
 Cl  2.06285223  2.41958883 -0.66066955
  C  1.94270958  0.77962870  0.01029462
  C  3.05327501  0.56327152  1.06224724
  C  3.95349413 -0.49100014  0.33918786
  C  3.17159179 -1.79235541  0.35092139
  C  2.21665460 -1.62847054 -0.55392673
  C  2.42454268 -0.22559910 -1.09647487
  O  3.82917448 -0.07906315 -1.00604757
  C  2.26934985  0.04089185  2.22996054
  C  2.90587418 -0.29520772  3.44572097
  N  3.49360059 -0.52843968  4.40085424
  N  1.01909348 -0.04827196  2.05175173
  C  0.60370814  0.46337660  0.76794907
  C -0.32653872  1.65339171  1.03387039
  C -0.79238593  1.86484890  2.32770331
  C -1.67861105  2.88888755  2.60547255
  C -2.13008100  3.71314737  1.59085260
  C -1.69105652  3.49458246  0.29795128
  C -0.80447528  2.46916034  0.01746610
  C -0.28499614 -0.56629964  0.08304363
  C -0.63046250 -0.44207669 -1.25744822
  C -1.46892453 -1.36879170 -1.85134460
  C -1.98466027 -2.41960999 -1.11339135
  C -1.66154402 -2.53595706  0.22814926
  C -0.82068122 -1.61348139  0.82334918
  H  3.63941995  1.45288604  1.29273439
  H  4.99049663 -0.52317706  0.65987425
  H  3.37704209 -2.61751046  1.00306480
  H  1.47787074 -2.31878463 -0.90472916
  H  2.06768036 -0.00932992 -2.09749541
  H -0.44956460  1.22464518  3.12561154
  H -2.01698013  3.03842781  3.62052586
  H -2.82472954  4.51235969  1.80341345
  H -2.04281274  4.12133837 -0.50780134
  H -0.49986712  2.32771834 -1.00573059
  H -0.23856216  0.36922726 -1.84941863
  H -1.72138475 -1.26685992 -2.89648035
  H -2.63682988 -3.14163473 -1.58147296
  H -2.06668997 -3.34601428  0.81658230
  H -0.56676471 -1.70230498  1.86786518
