30
opt_min/./Product_2569_opt.xyz
 Br -1.50738200 -2.02266300 -2.18262600
  C -1.22315710 -1.89618886 -0.18894893
 Br -1.32449617 -3.79792142  0.44571339
  C  0.15456988 -1.39084792  0.03443253
  C  0.74264755 -0.13453617  0.07005755
  N  2.09485524 -0.34988639  0.29274518
  C  3.16008588  0.53593243  0.61750031
  C  4.51725798 -0.06855387  0.47380172
  O  2.95088803  1.65469551  0.98650952
  N  2.37197397 -1.65389257  0.33194938
  C  1.25246429 -2.28803649  0.18027182
  C  0.23459256  1.23209519 -0.18094146
 Br  0.27018803  2.26382779  1.50999913
 Br  1.53506023  2.08358573 -1.51274248
  C -1.10101995  1.50405084 -0.86661079
  C -2.41181372  1.32608555 -0.10440343
  C -3.09946753 -0.02760121 -0.14568816
  C -2.43772982 -1.25280070  0.47104872
  H  5.07158155  0.54361047 -0.23734812
  H  5.02554548 -0.00067345  1.43386504
  H  4.48343977 -1.09841216  0.14022071
  H  1.24537555 -3.35817537  0.17352443
  H -1.14031739  0.97903323 -1.82492803
  H -1.05674597  2.57611704 -1.08638086
  H -2.30016185  1.67327021  0.92477454
  H -3.11796342  2.00338466 -0.59554797
  H -4.03640336  0.09866260  0.40557024
  H -3.36760114 -0.26106597 -1.17999637
  H -2.19624377 -1.08330215  1.52534982
  H -3.22527732 -2.01256128  0.43731888
