60
opt_min/./Product_5875_opt.xyz
  C  6.34390600 -2.02490000 -1.32739300
  C  5.20683370 -1.71358991 -0.40281014
  C  5.56990591 -1.57134565  1.04782994
  C  3.95491391 -1.61478598 -0.86063383
  C  2.78827191 -1.34279951 -0.05476071
  C  1.56453848 -1.24780292 -0.57525265
  C  0.30039695 -0.98026082  0.18448712
  C  0.41169878 -1.36359445  1.66267451
  C -0.89371950 -1.71848809 -0.44168574
  C -2.13774189 -0.86027188 -0.12752638
  C -2.95482963 -0.58778501 -1.39823802
  O -3.10953930 -1.36403367 -2.30221295
  O -3.51593549  0.62755126 -1.34287441
  C -4.36139698  1.01919331 -2.41557490
  C -3.11826038 -1.54585344  0.81198202
  C -3.62714132 -2.79246358  0.46725513
  C -4.53796888 -3.43030925  1.29126237
  C -4.95174796 -2.82958264  2.46626328
  C -4.44919764 -1.58717107  2.81533035
  C -3.54111264 -0.94554948  1.99051192
  N -1.57707926  0.33373638  0.42474910
  C -0.19394634  0.50314426  0.09950456
  C  0.04115661  1.19798307 -1.27147936
  N -0.78547637  2.25106545 -1.44519158
  C -0.72935213  3.05957194 -2.64264717
  O  0.86852790  0.88000840 -2.09129996
  C  0.46527982  1.42140050  1.11423573
  O -0.14492531  2.05434412  1.93947079
  O  1.77646217  1.50488551  0.90850027
  C  2.53715101  2.35400813  1.75816951
  H  6.02079432 -2.01656821 -2.36475421
  H  7.14401610 -1.29368158 -1.20719569
  H  6.76129057 -3.00790098 -1.09694067
  H  5.12081752 -2.37014509  1.64010928
  H  5.21154100 -0.62340514  1.44877539
  H  6.64817015 -1.61731245  1.18020163
  H  3.77124742 -1.73416997 -1.92133686
  H  2.95323938 -1.21505411  1.00433483
  H  1.44242020 -1.36877948 -1.64138489
  H -0.54015279 -1.19531673  2.16378591
  H  1.17165626 -0.77950961  2.17196971
  H  0.67725868 -2.41449468  1.74864617
  H -0.99062289 -2.72170735 -0.02621335
  H -0.77763973 -1.80181206 -1.52376637
  H -5.32853889  1.29996841 -1.99881834
  H -3.90902702  1.87247413 -2.92161623
  H -4.47351539  0.19134857 -3.11810412
  H -3.32224641 -3.25178345 -0.46070366
  H -4.92625185 -4.39849652  1.00894340
  H -5.66567699 -3.32786761  3.10761420
  H -4.76446915 -1.11292249  3.73333016
  H -3.13494980  0.00817270  2.28445217
  H -2.15321595  1.10738469  0.69061238
  H -1.43966100  2.51443896 -0.72974128
  H -1.21239304  4.01423282 -2.46171580
  H -1.21687096  2.54903940 -3.47875521
  H  0.31581566  3.22017013 -2.91451891
  H  1.86751858  2.95273911  2.38007947
  H  3.17899307  1.73230535  2.38637575
  H  3.15040456  2.99321863  1.12278108
