45
opt_min/./Product_4959_opt.xyz
  C -1.51815603 -1.58988498 -2.12117799
  C -0.96104483 -1.56992989 -0.70270124
  C  0.57391212 -1.47498965 -0.57491783
  C  1.40475677 -2.22729813 -1.61767363
  C  0.83303436  0.04414392 -0.52842341
  C  0.72108406  0.60577510 -1.87258470
  N  0.66159264  1.05637168 -2.92120261
  C  2.19115246  0.47323407  0.00098499
  C  3.02991366 -0.37360789  0.71212574
  C  4.25182673  0.07963144  1.17895355
  C  4.65482617  1.38051909  0.93960944
  C  3.82812193  2.23110686  0.22459495
  C  2.60695172  1.78116038 -0.24005495
  N -0.29683806  0.58023532  0.25276586
  C -0.01178260  1.19900535  1.52697981
  C -1.40950811 -0.38053617  0.20243509
  C -2.48650375  0.57631923 -0.30351319
  O -3.02162654  1.23575536  0.73900245
  C -3.87180447  2.32300274  0.40131564
  O -2.75495801  0.83059429 -1.44390188
  C -1.77067322 -1.07663466  1.51412971
  C -3.20581305 -1.52854475  1.60006329
  O -0.95563172 -1.32713553  2.36570886
  H -1.03448298 -0.85707863 -2.75714579
  H -1.38453003 -2.58036869 -2.55056128
  H -2.58178034 -1.37340804 -2.11555502
  H -1.27929252 -2.50396305 -0.22243335
  H  0.81198666 -1.85938288  0.42218709
  H  0.77488710 -2.79162106 -2.29751804
  H  2.08715532 -2.92426066 -1.13736628
  H  1.99857908 -1.53762385 -2.21400149
  H  2.74209861 -1.39372070  0.91076548
  H  4.89238749 -0.59048491  1.73304858
  H  5.60855556  1.73261723  1.30367657
  H  4.13812598  3.24629758  0.02757839
  H  1.96565598  2.44701334 -0.79933466
  H -0.95941693  1.44882205  2.00160090
  H  0.56547490  0.56372661  2.20605981
  H  0.53552432  2.12663246  1.35239505
  H -4.73821333  1.96801804 -0.16108346
  H -3.33466169  3.04946618 -0.21041520
  H -4.18460941  2.77235811  1.34027564
  H -3.79979840 -0.71148113  2.00500995
  H -3.60146904 -1.78726619  0.62179711
  H -3.27975483 -2.37565310  2.27852598
