43
opt_min/./Product_941_opt.xyz
  C -1.73282069  3.28790131  1.80925691
  N -1.51693290  1.95889000  1.28883520
  C -0.41061407  1.66304789  0.55238071
  O  0.50471698  2.45071397  0.42380927
  C -0.35802340  0.30395158 -0.03837591
  C  0.72657640 -0.18740836 -0.65671349
  C  2.08576270  0.34134791 -0.70721211
  C  2.78554624  0.56480559  0.47582987
  C  4.07317882  1.06103943  0.43376200
  C  4.67057230  1.34998041 -0.78239653
  C  3.97748236  1.12966131 -1.96010275
  C  2.69292301  0.61917451 -1.92683017
  C  0.35633653 -1.54656051 -1.23390833
  C  1.06365504 -1.95380516 -2.41919987
  N  1.64579273 -2.31253832 -3.33433836
  N -1.11295933 -1.52363304 -1.35805633
  C -1.57485048 -1.10900038 -2.66675734
  C -1.52486845 -0.67711883 -0.21630126
  C -1.63852609 -1.66577397  0.96997857
  C -1.13269752 -1.19785032  2.31116764
  O -2.04685611 -2.78167991  0.79292008
  C -2.81700281  0.09876088 -0.50719149
  C -4.05131757 -0.39655487  0.19817605
  O -2.83276970  1.01850721 -1.28123161
  H -2.52657138  3.79997293  1.26179605
  H -0.80222137  3.83990888  1.68893750
  H -1.99729439  3.23727039  2.86640717
  H -2.32009862  1.35208707  1.27177210
  H  2.31521044  0.34599581  1.42318160
  H  4.61154623  1.22903050  1.35466425
  H  5.67236659  1.75083959 -0.81325519
  H  4.43934807  1.35298328 -2.90984509
  H  2.15206684  0.45183334 -2.84657628
  H  0.58316185 -2.29674207 -0.45111170
  H -2.65114344 -1.26811304 -2.72570014
  H -1.35935055 -0.05831997 -2.89625224
  H -1.09719632 -1.74514373 -3.40951185
  H -0.14069202 -1.62663390  2.45462885
  H -1.76733286 -1.59587196  3.10072076
  H -1.05481537 -0.11958241  2.39119200
  H -4.36266934 -1.30287782 -0.32381945
  H -4.84794532  0.34051910  0.13017303
  H -3.86491129 -0.66636976  1.23432387
