36
opt_min/./Product_4068_opt.xyz
  C  1.31644200  1.95333000 -0.62930900
  C  0.03448078  1.31684495 -0.08672268
  C -1.06526284  1.40415318 -1.13026914
  C -0.37233836  2.02164184  1.24532013
  C -0.00341882  3.47877004  1.33497851
  O -0.59861484  4.35911313  0.78168802
  N  0.25301479  1.22617132  2.28383161
  N  0.58991884  0.12351804  1.89592903
  C  0.31539004 -0.12190598  0.48997285
  C  1.51921723 -0.83447164 -0.14800641
  N  2.32162909 -1.43376662  0.74176855
  C  3.46120399 -2.22089035  0.32917431
  O  1.69315900 -0.86549775 -1.34977888
  C -0.86632950 -1.07244332  0.36553014
  C -1.12727021 -1.71580389 -0.83927219
  C -2.22076393 -2.55350323 -0.96027235
  C -3.06396665 -2.76231256  0.11847968
  C -2.80293399 -2.13178593  1.32216271
  C -1.71188309 -1.28996285  1.44670100
  H  2.11962860  1.90447745  0.10584491
  H  1.63780085  1.44500302 -1.53244172
  H  1.13216211  2.99576924 -0.87749428
  H -1.99018020  0.94801323 -0.78407052
  H -1.25595794  2.45102127 -1.35469786
  H -0.75040906  0.90827320 -2.04369813
  H -1.45869690  1.93933563  1.39451806
  H  0.85306916  3.67939918  2.00289853
  H  2.08038431 -1.35559315  1.71798545
  H  4.24930187 -1.57337404 -0.06132099
  H  3.16693251 -2.90886125 -0.46287995
  H  3.84200490 -2.77829357  1.17970858
  H -0.46426526 -1.56057636 -1.67625598
  H -2.41092588 -3.04267116 -1.90412174
  H -3.91684317 -3.41506948  0.02074363
  H -3.45187983 -2.29170223  2.17056749
  H -1.51765673 -0.80785196  2.39372248
