47
opt_min/./Product_1959_opt.xyz
  C  3.68936900  2.91708600 -1.93919200
  N  2.48598309  2.23814840 -1.52131866
  C  2.52043664  0.97591524 -1.05945821
  O  3.54068976  0.32068978 -1.02909680
  C  1.21192761  0.43200498 -0.54422378
  C -0.08407313  0.82037797 -0.75309453
  C -0.64088033  1.87591201 -1.60075135
  F -0.09589720  1.92442457 -2.83539637
  F -1.96642727  1.77329972 -1.78678369
  F -0.46063257  3.14102892 -1.10838180
  C -0.97050832  0.03686397  0.20657816
  C -1.50605245  1.04425428  1.26698883
  N -2.71365522  1.57157327  1.00006012
  C -3.28166925  2.62519065  1.80710245
  O -0.82934417  1.33281822  2.22741134
  C -2.03731744 -0.83240316 -0.43627553
  C -3.05363806 -1.36301936  0.34931014
  C -3.99564558 -2.20942529 -0.20728773
  C -3.92469916 -2.53942292 -1.55016437
  C -2.89898346 -2.03496284 -2.32938048
  C -1.95227169 -1.19279079 -1.77501526
  O -0.04228641 -0.82650479  0.86234594
  N  1.25084112 -0.55806675  0.36291908
  C  2.26736971 -1.31332106  0.95762898
  C  3.11812545 -2.09902209  0.18807286
  C  4.09925231 -2.84487943  0.81509929
  C  4.21254082 -2.83315797  2.19594177
  C  3.33879478 -2.07608520  2.95839622
  C  2.36301868 -1.31387184  2.34514754
  H  4.52115612  2.22285562 -1.83033207
  H  3.60585789  3.22682658 -2.98195953
  H  3.85975810  3.79612867 -1.31517914
  H  1.63740781  2.76537801 -1.61109041
  H -3.20076045  1.31009604  0.15756569
  H -4.35057363  2.45890739  1.92858290
  H -3.12004993  3.60250707  1.34517700
  H -2.78747684  2.60799231  2.77765362
  H -3.09810220 -1.11754362  1.40048597
  H -4.78367727 -2.61448873  0.41060084
  H -4.66232341 -3.19738506 -1.98533750
  H -2.82759652 -2.30316592 -3.37306780
  H -1.14432420 -0.81662086 -2.38790627
  H  3.01893022 -2.11397256 -0.88528756
  H  4.77034552 -3.44740811  0.22151286
  H  4.97781355 -3.42029537  2.67972795
  H  3.42342532 -2.07420620  4.03474522
  H  1.67208278 -0.71535830  2.91970080
