33
opt_min/./Product_666_opt.xyz
  C  3.37701400 -2.68732100  0.85930200
  O  2.84893471 -1.41830464  0.48860336
  C  1.52587630 -1.25753250  0.53407679
  O  0.73478418 -2.11448450  0.81964594
  C  1.18053737  0.12353608  0.14765186
  C  2.00898216  1.14036017 -0.13349654
  C  3.49761596  1.29044913  0.03929341
  F  3.86809509  2.56927983 -0.05937291
  F  3.91661175  0.86087275  1.23019777
  F  4.17921840  0.61461450 -0.89222193
  O  1.39380329  2.22438899 -0.66007660
  O  0.07134127  1.80167696 -0.95853105
  C -0.21373520  0.68720395 -0.11087579
  C -0.80270888  1.18294066  1.25292796
  C -1.82654469  2.26235744  1.10490991
  O -0.44873654  0.70156890  2.29229759
  C -1.26357064 -0.18947223 -0.75183774
  C -1.68764098  0.07587615 -2.04799930
  C -2.68645952 -0.69274333 -2.61874496
  C -3.26667077 -1.72487770 -1.90047073
  C -2.84383075 -1.98594536 -0.60885730
  C -1.85147842 -1.21719917 -0.02573085
  H  2.56372375 -3.38132662  1.07827654
  H  4.00468135 -2.54204385  1.73848472
  H  3.97843231 -3.05530510  0.02824185
  H -2.72754506  1.82457022  0.67503267
  H -2.05934406  2.68436448  2.07910145
  H -1.47605120  3.03290993  0.42342533
  H -1.22644078  0.87916842 -2.59944160
  H -3.00953147 -0.48308520 -3.62698418
  H -4.04796469 -2.32130463 -2.34750854
  H -3.28926885 -2.79172495 -0.04601579
  H -1.52767317 -1.42869159  0.98007750
