49
opt_min/./Product_5350_opt.xyz
  C -0.69763200 -2.18880100 -0.98441500
  C -0.64858459 -0.65962839 -1.14027018
  C -1.58066764 -0.31468240 -2.30507772
  C  0.82752738 -0.09652927 -1.22511943
  C  1.85642937 -1.22328299 -1.42716900
  C  1.03525986  0.86479975 -2.39281973
  C  1.05516534  0.57033218  0.18770810
  C  1.15665355  2.12210570  0.26428409
  C  0.73324888  2.68112229  1.59504817
  O  1.68095473  2.79300163 -0.58054678
  C  2.37309499  0.18707408  0.85617751
  O  2.43779472 -0.42020396  1.89461508
  O  3.43243353  0.63418475  0.19134295
  C  4.70576774  0.36871719  0.76296339
  N -0.03053410  0.14040925  1.05209181
  C -1.18674125 -0.03281616  0.19100385
  C -1.74097388  1.39036175  0.00496186
  O -2.61769782  1.66827585  0.96148306
  C -3.16936947  2.98267548  0.98164122
  O -1.36919000  2.17709149 -0.82154772
  C -2.27449677 -0.89157708  0.81292048
  O -3.40868497 -0.92229596  0.41042996
  O -1.83126784 -1.63086395  1.82900098
  C -2.81232188 -2.43108696  2.47668684
  H -0.19012453 -2.53221742 -0.08598833
  H -0.25483950 -2.67821082 -1.84672506
  H -1.73717591 -2.50935499 -0.93258199
  H -1.47154173 -1.04820035 -3.10179576
  H -2.61082893 -0.35403009 -1.95377170
  H -1.40461135  0.67191125 -2.71441704
  H  1.91084727 -1.89744094 -0.57532068
  H  1.61808027 -1.79751917 -2.31783940
  H  2.84035367 -0.78753064 -1.57823730
  H  0.36545707  1.71573742 -2.34374680
  H  0.88185527  0.33008125 -3.32758266
  H  2.05226718  1.24530611 -2.37283209
  H  0.66815059  3.76476619  1.52689632
  H -0.20005934  2.25764716  1.94975580
  H  1.50377027  2.41560360  2.31984680
  H  5.42859766  0.45158752 -0.04497926
  H  4.72076585 -0.63084885  1.20181949
  H  4.92697290  1.10317320  1.53992039
  H  0.19010381 -0.71929337  1.53815166
  H -2.49334023  3.67278299  0.47266454
  H -3.28704723  3.25486530  2.02961552
  H -4.13928158  2.98090719  0.48270581
  H -3.13157139 -3.23991496  1.81595170
  H -2.33705116 -2.82991559  3.36932079
  H -3.68167000 -1.82625928  2.73860999
