23
opt_min/./Product_3261_opt.xyz
  C -2.98375800 -0.43651700  0.54404100
  C -1.84927544  0.58521350  0.54338663
  C -0.53063481  0.18962326 -0.17954311
  C -0.47747378 -1.21645638 -0.76364636
  N  0.41408164  0.32104396  0.94597614
  C  1.79192235  0.10963990  0.95018522
  N  2.35619502  0.09217012 -0.29192370
  C  3.79408665 -0.02616678 -0.40273397
  O  2.41064813 -0.08623513  1.96592273
  N -0.23116915  0.63698966  2.07940524
  N -1.42591472  0.81261686  1.92690937
  H -3.91161233  0.05618509  0.81826019
  H -2.78512215 -1.21442485  1.27715494
  H -3.11052052 -0.89286540 -0.43222834
  H -2.22685260  1.54337884  0.17054303
  H -0.28425826  0.93600502 -0.94774611
  H  0.50072657 -1.41221171 -1.19515615
  H -0.66303115 -1.95264078  0.01425357
  H -1.22182905 -1.33050395 -1.54717548
  H  1.87256859  0.51607395 -1.06644599
  H  4.30441889  0.86958411 -0.03647653
  H  4.06049522 -0.19604698 -1.44244225
  H  4.11632981 -0.87212624  0.20237182
