64
opt_min/./Product_3027_opt.xyz
  C  3.78421213  2.74209702  1.06762250
  N  3.14173775  1.45820264  0.88863309
  C  2.42284315  1.19634466 -0.22335020
  O  2.37171963  1.97306525 -1.15255242
  C  1.74671800 -0.19544724 -0.25848937
  C  2.39697528 -1.10644104  0.79971887
  O  1.82770763 -1.49252684  1.79682249
  N  3.70007085 -1.37138851  0.55074139
  C  4.48002462 -2.24653189  1.39319464
  C  0.29114822 -0.00990982  0.08500009
  C -0.76952426 -0.82596320  0.08112072
  C -1.05127103 -2.19112124 -0.49696715
 Cl -0.14317329 -3.45861130  0.44409760
  O -2.40958192 -2.40383359 -0.29943066
  C -2.95477661 -3.68430933 -0.52754920
  C -0.71889962 -2.21397846 -2.00528585
  C  0.60858712 -2.80284968 -2.48567277
  C  1.83540986 -2.28073928 -1.75020006
  C  1.92494423 -0.75413535 -1.69354647
  C -1.91926142 -0.09502459  0.76260707
  C -2.05122976 -0.60728416  2.22961396
  O -2.27136500 -1.90695621  2.27392248
  C -2.36018525 -2.49968780  3.56309925
  O -1.93903243  0.11652601  3.17400128
  C -3.22211265 -0.17437506  0.12600625
  N -4.27046516 -0.11804290 -0.32337532
  O -1.53773526  1.26559896  0.82051246
  C -0.18005275  1.38807192  0.42275111
  C  0.52884706  2.06135548  1.60560438
  O  0.82468962  3.21919187  1.70017047
  O  0.68853471  1.16140646  2.56847260
  C  1.11292328  1.64350942  3.83601734
  C -0.21895505  2.17383416 -0.91385777
  O -0.34547818  1.59749215 -1.96238964
  O -0.23720253  3.46896434 -0.73378787
  C -0.31203007  4.28770558 -1.89519755
  H  4.48840740  2.67779287  1.89288579
  H  3.04121910  3.51596662  1.27499107
  H  4.30855593  3.00104540  0.14862674
  H  3.10974140  0.81073772  1.66062153
  H  4.11854721 -1.05291085 -0.30737095
  H  4.54959706 -3.24687514  0.96259356
  H  3.97831232 -2.31628535  2.35673294
  H  5.48167646 -1.83950272  1.52414714
  H -2.58458331 -4.40087017  0.21042403
  H -2.74162171 -4.06344750 -1.52985141
  H -4.02704555 -3.55317384 -0.41081996
  H -0.80870644 -1.17980695 -2.34489835
  H -1.51071622 -2.78093367 -2.49558355
  H  0.58129929 -3.88816689 -2.37860604
  H  0.68956802 -2.56342681 -3.54757446
  H  2.73000538 -2.69286219 -2.22297541
  H  1.80576214 -2.68550220 -0.74144080
  H  1.15979695 -0.28405421 -2.30929340
  H  2.88245228 -0.41165606 -2.08533126
  H -2.07376273 -3.54123033  3.43894166
  H -3.38424668 -2.43030453  3.93201994
  H -1.68745711 -1.99551667  4.25732854
  H  0.60658538  2.58082328  4.06869553
  H  0.84258411  0.87360841  4.55307070
  H  2.19199267  1.80942273  3.83794674
  H  0.05851840  3.73995833 -2.76232321
  H -1.35033433  4.58223364 -2.05823375
  H  0.30078108  5.16479826 -1.69986393
