62
opt_min/./Product_2813_opt.xyz
  C  3.72801309 -2.42545720  1.49689684
  N  3.03799127 -1.53757901  0.58974219
  C  1.85844395 -0.97118028  0.91023352
  O  1.35158459 -1.08808255  2.00979396
  C  1.32041102 -0.00017366 -0.15344466
  C  2.30220677  1.19859683  0.00915022
  O  2.73430930  1.80318533 -0.95722470
  N  2.68822048  1.45159845  1.26532841
  C  3.59150136  2.53029729  1.58835688
  C -0.07625621  0.45281305  0.17858908
  C -1.17107976 -0.26267974  0.51585842
  C -1.48027367 -1.73528437  0.46109123
 Cl -2.91293247 -1.84611446 -0.73014694
  O -1.87148330 -2.06416418  1.73364686
  C -2.41805411 -3.34083328  1.98952913
  C -0.45444172 -2.71119304 -0.12642030
  C -0.10429045 -2.56013862 -1.61130846
  C  1.28066419 -1.98617820 -1.89036127
  C  1.40157475 -0.48908397 -1.62127864
  N -2.20767654  0.60488197  0.88401888
  C -3.52562576  0.40111867  1.22392697
  O -4.05867935 -0.64643918  1.46935821
  O -4.15195291  1.59288791  1.27255507
  C -5.54286161  1.57192009  1.54474931
  N -1.73388525  1.93629348  0.94332253
  C -1.56106887  2.34285821  2.33223618
  C -0.50168761  1.92257080  0.15289739
  C -0.89136704  2.29003214 -1.33682021
  N  0.16122740  2.52398440 -2.13028650
  C -0.00406600  2.87733474 -3.52182179
  O -2.04660414  2.30540994 -1.67686589
  C  0.40207865  2.95280882  0.58801590
  N  1.01502885  3.87515760  0.88197047
  H  3.42186832 -3.46336550  1.34134985
  H  4.80152190 -2.34118678  1.34598531
  H  3.47475874 -2.14217654  2.51801422
  H  3.46204615 -1.34419025 -0.30190999
  H  2.21303686  1.00331263  2.03536588
  H  4.10873869  2.81907370  0.67561949
  H  3.03999982  3.39323902  1.96589243
  H  4.30846865  2.19091962  2.33426396
  H -1.64174815 -4.10795719  2.07267097
  H -3.14277621 -3.61719086  1.22042595
  H -2.93307674 -3.24089821  2.94280405
  H  0.43821532 -2.68786561  0.49478771
  H -0.90968901 -3.69406407  0.00981836
  H -0.14227844 -3.55190017 -2.06589289
  H -0.85668117 -1.95172665 -2.11154497
  H  1.48896340 -2.12516048 -2.95444168
  H  2.02246428 -2.56750494 -1.34158981
  H  0.59172455 -0.00299217 -2.16877444
  H  2.33697367 -0.11918435 -2.05060900
  H -5.72387712  2.09336752  2.48619556
  H -6.05110357  2.08864260  0.73097825
  H -5.89607894  0.54135815  1.61708872
  H -2.54732144  2.44306703  2.77833264
  H -1.07311379  3.31305557  2.36248434
  H -0.97404412  1.61494779  2.90742518
  H  1.11331003  2.49060668 -1.78173803
  H -1.05819836  2.77660141 -3.77445576
  H  0.31170318  3.90759521 -3.69312226
  H  0.59113643  2.21290908 -4.14890569
