39
opt_min/./Product_298_opt.xyz
  C -2.67450813 -2.32467093  0.95694979
  O -2.30130064 -1.24931445  0.13791934
  C -0.90449042 -1.00243821  0.08760082
  C -0.64792239  0.48286974  0.02228405
  C  0.53405754  1.14758774  0.00133028
  C  1.93732211  0.64176419  0.26000590
  C  1.97324878  0.41733476  1.70123917
  N  1.92676904  0.25814895  2.83310088
  C  2.97223599  1.63904968  0.02831476
  N  3.86204004  2.34003003 -0.12199354
  C  2.41030385 -0.60002800 -0.54935346
  C  1.95212878 -1.93799980  0.04339523
  C  0.90601164 -2.62533058 -0.83129805
  C -0.30826149 -1.74284150 -1.13508542
  C  0.20388862  2.65003257 -0.00503100
  C  1.02256846  3.58552278 -0.88457305
  N -1.18857285  2.65359713 -0.46404140
  N -1.69495760  1.35672038 -0.15883047
  C -3.03686395  1.32284917  0.35380229
  H -2.36889816 -2.16103588  1.99881989
  H -3.76171914 -2.37302112  0.90542712
  H -2.25782653 -3.27716215  0.61043168
  H -0.45314842 -1.39176724  1.01229797
  H  2.07955817 -0.48867239 -1.58043426
  H  3.50707591 -0.56718565 -0.55276379
  H  1.55379481 -1.78264206  1.04605561
  H  2.80747093 -2.60754609  0.15514148
  H  0.57530773 -3.52901411 -0.31344656
  H  1.35352257 -2.93003166 -1.77915909
  H -1.10719626 -2.36802649 -1.53887999
  H -0.06245384 -1.00914900 -1.90394656
  H  0.22227898  3.00873398  1.03843326
  H  1.90737968  3.94406526 -0.37037429
  H  1.33248856  3.09418274 -1.80546158
  H  0.40050268  4.44131459 -1.13821178
  H -1.18735126  2.73840861 -1.48821006
  H -3.33288000  2.35382419  0.54425000
  H -3.72459695  0.87985672 -0.37416621
  H -3.09588121  0.75627212  1.28184275
