54
opt_min/./Product_2392_opt.xyz
  C -3.23177312  0.11277519 -1.79929462
  C -2.34840999  1.05216163 -0.95293797
 Cl -2.33542407  2.62789611 -1.86131147
  C -0.95356915  0.51172059 -0.84964282
  C -0.50531634 -0.57243041 -0.19056081
  C -1.14416992 -1.75115242  0.50933356
  C -0.47824591 -2.05679376  1.76866951
  N -0.07906862 -2.31768863  2.80618057
  C -0.94416989 -2.88948348 -0.38431539
  N -0.86125516 -3.77110436 -1.10380176
  C -2.65993036 -1.72330303  0.82182104
  C -3.06267954 -0.70202577  1.88117839
  C -2.47044430  0.68865761  1.68824005
  C -2.92098252  1.44443449  0.43688940
  C  0.99861659 -0.64968279 -0.49691998
  C  1.87996334 -1.49979189  0.36050567
  C  2.36234804 -0.97474899  1.55647307
  C  3.16304648 -1.74781815  2.37318086
  C  3.49038842 -3.04079003  2.00061535
  C  3.02508718 -3.55702905  0.80397071
  C  2.22392571 -2.78917468 -0.02290651
  O  1.04549314 -1.06787543 -1.91561835
  C  0.55794474 -0.03469961 -2.60524023
  O  0.35312274 -0.01175980 -3.77314275
  C  0.28704423  1.08624117 -1.53208565
  C  0.36666775  2.51470730 -2.06691087
  N  0.60574905  3.41676167 -1.08763246
  C  0.61367003  4.83360742 -1.37131000
  O  0.29201385  2.79435967 -3.23803860
  N  1.31492906  0.75308411 -0.53551132
  C  2.69164838  1.09726043 -0.89414901
  H -4.20351305 -0.03894489 -1.33507667
  H -2.74747970 -0.84626073 -1.97116301
  H -3.40032629  0.54964366 -2.78107680
  H -3.21058094 -1.56009498 -0.09825460
  H -2.92619262 -2.72032081  1.18751861
  H -4.15300020 -0.63461813  1.88050542
  H -2.75645226 -1.06503571  2.86516963
  H -2.78989886  1.29109973  2.54214759
  H -1.38061267  0.64200982  1.73069765
  H -4.00985936  1.42305378  0.36860404
  H -2.63240287  2.48405613  0.60177359
  H  2.08960664  0.03111028  1.84046674
  H  3.53000717 -1.34176249  3.30367396
  H  4.11308543 -3.64517121  2.64361836
  H  3.28433428 -4.56182174  0.50760116
  H  1.86565795 -3.17888468 -0.96225825
  H  0.83221990  3.10183004 -0.15930208
  H  1.20935443  5.02474747 -2.26493191
  H -0.40382754  5.18283242 -1.56181715
  H  1.03211278  5.37356062 -0.52688978
  H  2.73555976  1.61823874 -1.85067424
  H  3.10673355  1.74333078 -0.11907362
  H  3.30933462  0.20140801 -0.96609225
