36
opt_min/./Product_684_opt.xyz
  F  0.78687897  1.84839553 -0.02575559
  C -0.17641461  1.00169112  0.45144858
  C -0.84295114  0.15300862 -0.67169404
 Cl -0.28419770  0.58876685 -2.31767497
  C -2.33930077  0.47498727 -0.47298790
  C -2.61980084  1.90118155 -0.96974251
  C -1.86870036  2.77881537  0.04923503
  C -1.35234092  1.76201031  1.07779027
  C -2.43941387  0.68676523  1.04204236
  C -0.40551097 -1.31931286 -0.39370369
  C -1.48100346 -2.36726602 -0.67058531
  C  0.74025023 -1.67382410 -1.23930885
  N  1.59539080 -2.06841747 -1.88527668
  N  0.06622429 -1.36733601  0.98026173
  C  0.48072586 -0.04705616  1.42400233
  C  2.02396438  0.13317923  1.38326120
  O  2.57714093 -0.75805819  0.59037293
  C  3.98788352 -0.66893424  0.41255021
  O  2.58812149  0.99423462  1.99771566
  C  0.09883681  0.13564089  2.81080879
  N -0.21876755  0.21316194  3.90566478
  H -3.01063999 -0.26228766 -0.90650119
  H -2.28277086  2.05895501 -1.98941606
  H -3.69225456  2.08601458 -0.93559143
  H -1.04543408  3.33117036 -0.39891525
  H -2.53395479  3.48944239  0.53580060
  H -1.10485131  2.20588421  2.03982151
  H -3.41011287  1.07126780  1.33836791
  H -2.21156404 -0.19399447  1.64183997
  H -1.04457746 -3.36273804 -0.63756009
  H -2.27407684 -2.30944141  0.07340057
  H -1.90240005 -2.21410353 -1.66100774
  H -0.58654993 -1.81274130  1.61283713
  H  4.26863290  0.35212502  0.14928626
  H  4.22282326 -1.35460301 -0.39623802
  H  4.50034653 -0.95405160  1.33230047
