45
opt_min/./Product_4708_opt.xyz
  C  0.53057000  2.21640000  2.37194800
  C  0.07820096  1.86488992  0.95446327
  C  0.87760410  2.68271587 -0.06623209
  C  0.10342877  0.33045632  0.69438093
  C  1.37449459 -0.13044092  0.05900286
  C  1.56938083 -1.08698716 -0.84577241
  C  2.86860170 -1.48748867 -1.36966129
  C  4.09363387 -0.74549477 -0.91979562
  C  2.94988169 -2.50124418 -2.23145609
  C -1.30082440  0.03803031  0.03235375
  C -1.24906555 -0.09541217 -1.48874862
  O -1.35060033 -1.11576629 -2.11643700
  O -1.07223595  1.09929042 -2.04913207
  C -1.00024127  1.15925271 -3.46638648
  C -1.95707132 -1.16064304  0.69224051
  C -1.59514917 -2.46907571  0.40317325
  C -2.18510962 -3.52503610  1.07735598
  C -3.13649886 -3.29402782  2.05390392
  C -3.49814456 -1.99204445  2.35383291
  C -2.91092424 -0.93665761  1.68093717
  N -2.09411637  1.23006392  0.28729500
  C -1.38524810  2.15392946  0.75668312
  H -0.12500112  1.76072467  3.11173690
  H  0.51874138  3.29420250  2.51723469
  H  1.54319476  1.85791030  2.54394989
  H  0.67556468  2.33669850 -1.07610271
  H  0.59378437  3.73076813  0.00297327
  H  1.94404057  2.60822377  0.12730463
  H  0.04815908 -0.15580624  1.67841417
  H  2.23511900  0.37770665  0.47360617
  H  0.73840305 -1.63400816 -1.25875576
  H  4.26290579 -0.90528997  0.14466153
  H  4.96750705 -1.09284529 -1.46257652
  H  3.97990466  0.32361066 -1.09015412
  H  2.07220470 -3.03528919 -2.55479692
  H  3.88920370 -2.82943759 -2.64197909
  H  0.03939863  1.30389154 -3.76512308
  H -1.60149394  2.00829596 -3.78703736
  H -1.38167072  0.23237255 -3.89809839
  H -0.85865826 -2.67793453 -0.35299676
  H -1.89237486 -4.53635733  0.83516217
  H -3.59271132 -4.12095125  2.57749423
  H -4.23981192 -1.79322344  3.11379817
  H -3.20377862  0.07698511  1.90802551
  H -1.82110744  3.11304663  0.98652182
