40
opt_min/./Product_3971_opt.xyz
  C  3.95461859  0.33119767 -1.11509711
  C  2.75779253  0.00036711 -0.26847186
  C  2.91864670  0.10821111  1.22075732
  C  1.62831434 -0.39946547 -0.84419122
  C  0.36249564 -0.78831964 -0.14833401
  C -0.73691465  0.29689172 -0.10105184
  C -0.54748277  1.43631636  0.86189194
  C -0.72815478  2.81711347  0.30692175
  C -0.27160374  1.24372261  2.14376109
  C -1.94506355 -0.59014257  0.26376429
  C -3.30358401  0.08221331  0.14433058
  C -4.41692753 -0.64795280  0.84863213
  O -3.45869380  1.14057422 -0.40671872
  N -1.79553152 -1.82226590 -0.51497403
  C -2.72331777 -2.08522741 -1.59915032
  C -0.39382496 -1.89385611 -0.91903719
  C  0.16857001 -3.20707707 -0.69728812
  N  0.65125734 -4.23762130 -0.59224409
  H  4.80823770  0.61148943 -0.50495200
  H  3.73475934  1.15971528 -1.78933808
  H  4.24184666 -0.52311847 -1.72858273
  H  3.88297104  0.53894729  1.47798313
  H  2.13634814  0.73308391  1.64631711
  H  2.85265907 -0.87961237  1.67906401
  H  1.59498234 -0.47544888 -1.92504826
  H  0.56899993 -1.13257421  0.86803419
  H -0.87795914  0.68992333 -1.11320934
  H -0.53423228  2.84421028 -0.76272524
  H -1.75845478  3.13865195  0.46311186
  H -0.06916450  3.52560005  0.80523865
  H -0.17399488  2.05620478  2.84279910
  H -0.17165822  0.25596422  2.57367419
  H -1.83616884 -0.86888944  1.32767146
  H -4.23548283 -1.71894119  0.88067584
  H -5.37376871 -0.43017892  0.37922005
  H -4.45727126 -0.27389714  1.87227698
  H -2.28077290 -1.88989944 -2.58407239
  H -3.01841071 -3.13697481 -1.56704140
  H -3.61734621 -1.47086096 -1.51265045
  H -0.29207493 -1.69935927 -2.00562201
