49
opt_min/./Product_4975_opt.xyz
  C -0.86947300 -1.60078700 -1.20856800
  C -0.39533160 -0.78612288 -0.00206536
  C -0.08622549 -1.75157660  1.14733624
  C  0.78926685  0.12768325 -0.41245788
  C  2.20103760 -0.32796084 -0.21235435
  C  2.68423215 -1.56388329 -0.33218147
  C  4.09317210 -1.91618970 -0.21127854
  C  5.06429750 -0.83387635  0.15543037
  C  4.49105783 -3.16995154 -0.41999207
  C  0.47157583  1.47579539  0.27928738
  C  1.04693298  2.65450712 -0.50149233
  O  0.20754666  3.68025988 -0.52948263
  C  0.66106143  4.84160528 -1.21333087
  O  2.14167703  2.66206911 -1.00474342
  C  1.01324115  1.59966265  1.71431286
  O -0.93607248  1.55506361  0.26480344
  C -1.47238964  0.25991828  0.46920756
  C -2.79514076  0.14876743 -0.24033905
  C -3.76948555 -0.72168171  0.23301773
  C -4.97322088 -0.85489771 -0.43360988
  C -5.22139334 -0.10982626 -1.57455577
  C -4.26162925  0.77061405 -2.04224735
  C -3.05240375  0.89643397 -1.38105562
  H -1.71391064 -2.23029369 -0.93733250
  H -1.17478435 -0.95298835 -2.02623315
  H -0.05767451 -2.23403666 -1.55961035
  H  0.60690935 -1.31874409  1.86276064
  H -1.00592863 -2.01617751  1.66523338
  H  0.34813449 -2.67329680  0.77341497
  H  0.68311011  0.32219756 -1.49007963
  H  2.88670882  0.49331815 -0.07192454
  H  2.03355143 -2.39866497 -0.54839531
  H  5.03505594 -0.03166419 -0.57988244
  H  6.07581876 -1.22756018  0.20212539
  H  4.80771156 -0.41037978  1.12542386
  H  3.79419927 -3.95098906 -0.68082380
  H  5.52438809 -3.46211657 -0.34197028
  H  0.82916758  4.61898220 -2.26915776
  H  1.59680398  5.19834824 -0.77939774
  H -0.12301795  5.58517869 -1.09945979
  H  2.09826248  1.56008060  1.72387943
  H  0.68513973  2.54826280  2.13490466
  H  0.61884766  0.79741074  2.33041056
  H -1.65062361  0.11829580  1.54706285
  H -3.58109424 -1.29759979  1.12858562
  H -5.72217491 -1.53758346 -0.06046436
  H -6.16261438 -0.21189380 -2.09378847
  H -4.45423259  1.36014686 -2.92624505
  H -2.30203639  1.58805817 -1.73246378
