61
opt_min/./Product_2835_opt.xyz
  C -1.52709500 -2.41492800 -3.77279700
  N -0.94913054 -2.04264159 -2.50275441
  C -1.34380713 -0.93739232 -1.85126954
  O -2.25489628 -0.24762530 -2.27350903
  C -0.71340635 -0.60416996 -0.49267229
  C  0.59676503 -1.26614528  0.08069652
 Br  1.59760565 -2.75442376 -0.76561872
  C  0.13254716 -1.82927870  1.44685049
  C -0.73943945 -3.08019044  1.25304658
  C -1.99289616 -2.51727237  0.56264792
  C -1.74960706 -1.00125165  0.59656690
  C -0.94045673 -0.83800930  1.88301865
  C  1.60110900 -0.08532865  0.19868887
  C  2.47357887 -0.30297849  1.45575077
  N  2.30106794  0.62487115  2.40910697
  C  3.03037416  0.61267279  3.65183102
  O  3.21816882 -1.25527354  1.55277580
  C  2.57013571  0.15956865 -0.96142134
  C  3.71573425  0.89874621 -0.68640179
  C  4.61607531  1.22036491 -1.68677052
  C  4.38307963  0.81803914 -2.98845040
  C  3.23478999  0.10433892 -3.28002537
  C  2.33363924 -0.21624891 -2.28025299
  O  0.78833517  1.06050029  0.36256264
  C -0.41424421  0.95715406 -0.40942266
  C -0.20912627  1.64879388 -1.76826835
  C -1.47238102  1.79937369  0.30028822
  C -2.78212704  1.84730986 -0.16846525
  C -3.72068316  2.65708820  0.44427440
  C -3.36886698  3.44777453  1.52448584
  C -2.06246968  3.43316411  1.97580322
  C -1.12291364  2.62056497  1.36490364
  H -1.69219425 -3.49084892 -3.79402336
  H -2.47429050 -1.88950984 -3.88373299
  H -0.86906787 -2.13595849 -4.59888051
  H -0.18987553 -2.61555928 -2.16914866
  H  0.96293982 -2.01195300  2.12597097
  H -0.98186724 -3.47810802  2.23952344
  H -0.26101186 -3.87939526  0.69134569
  H -2.10822297 -2.88715315 -0.45455141
  H -2.90040564 -2.76669369  1.11048902
  H -2.66580253 -0.42288244  0.52753510
  H -1.48610535 -1.17640063  2.76153959
  H -0.58353236  0.17271346  2.05221590
  H  1.67671158  1.39177639  2.21328174
  H  3.59683947 -0.31702009  3.68946695
  H  2.34066764  0.65799852  4.49574738
  H  3.72251252  1.45570343  3.70953781
  H  3.91395669  1.22931692  0.32203808
  H  5.50211421  1.78702415 -1.44211578
  H  5.08630736  1.06120550 -3.77052591
  H  3.03181562 -0.20769739 -4.29385855
  H  1.44920510 -0.77007247 -2.55554366
  H  0.45387903  1.09488716 -2.42239459
  H -1.16172659  1.78602138 -2.26854968
  H  0.23221705  2.62545241 -1.57753457
  H -3.06461637  1.24734290 -1.01923622
  H -4.73338090  2.67411007  0.06888060
  H -4.10401821  4.07894955  2.00133412
  H -1.76593982  4.05977577  2.80448397
  H -0.10291577  2.64471395  1.71487384
