41
opt_min/./Product_1003_opt.xyz
  C  4.28148400  2.49018000  0.74976100
  O  3.03322687  2.35243889  0.09294008
  C  2.78849730  1.18773738 -0.51698427
  C  3.44289875  0.03754827 -0.70423395
 Cl  4.99928122 -0.51082217 -0.23667056
  C  2.45676883 -0.87800556 -1.41305998
  C  1.40784836 -1.34195152 -0.36768485
  C  0.73037001 -0.00247381 -0.03316824
  C  1.40121514  0.92230813 -1.10081838
  O  1.69437977  0.04639845 -2.16903628
  C -0.79003133 -0.24821527 -0.16294345
  C -1.33483692 -0.29586372  1.30455845
  O -1.55544487 -1.34101769  1.87459628
  N -1.45646607  0.90596959  1.88415072
  C -1.94076733  1.03602391  3.24211283
  C -1.48077808  0.87990429 -0.93309886
  O -1.49731890  2.03684999 -0.56492787
  O -2.06976153  0.44504286 -2.02695991
  C -2.73526255  1.38827193 -2.85791512
  N -0.93518022 -1.48471715 -0.88574965
  C -2.10718757 -2.30127001 -0.69386099
  C  0.31928306 -2.19054984 -1.03211794
  H  4.28555304  3.49326249  1.17159061
  H  4.38515578  1.75115570  1.54822699
  H  5.10818472  2.38065085  0.04534305
  H  2.88732922 -1.65958746 -2.03188343
  H  1.84848036 -1.81641365  0.50644209
  H  0.98076671  0.37466211  0.95989266
  H  0.83928417  1.78963421 -1.42456962
  H -1.24936545  1.74053078  1.35260505
  H -1.98952534  2.08799125  3.50384807
  H -2.93029072  0.58323988  3.33305581
  H -1.27279303  0.51328876  3.93055563
  H -3.75774278  1.04060781 -3.00485193
  H -2.21538067  1.42271367 -3.81548432
  H -2.73043331  2.37285481 -2.38725357
  H -2.01792771 -2.98702701  0.15728559
  H -2.96621985 -1.65538409 -0.52522400
  H -2.27612717 -2.87555704 -1.60656747
  H  0.25804460 -3.19749756 -0.60371242
  H  0.54002790 -2.29069332 -2.10476588
