62
opt_min/./Product_2812_opt.xyz
  C -4.47154684  2.08461346 -1.16615252
  N -3.70840294  1.28100047 -0.22913165
  C -2.41238554  1.00147556 -0.54446560
  O -1.93668719  1.16891299 -1.64129410
  C -1.62529798  0.16894853  0.52068258
  C -1.91141929  0.52823360  1.99542872
  O -1.07406194  0.96691864  2.74988277
  N -3.18269245  0.29103006  2.40682656
  C -3.55307169  0.51444982  3.78712197
  C -0.17286477  0.47792324  0.27966019
  C  0.88925570 -0.21976628 -0.16388082
  C  1.06964536 -1.55956706 -0.83328733
 Cl  2.89301139 -1.97591365 -0.75629339
  O  0.76892070 -1.33188873 -2.15546008
  C  0.88903770 -2.39103184 -3.08366361
  C  0.39646085 -2.79068940 -0.20285155
  C -0.09412973 -2.56518429  1.22627576
  C -1.60209810 -2.32447471  1.23135871
  C -2.05851507 -1.27429825  0.21819295
  C  2.12328378  0.67151024 -0.04000441
  C  3.05604507  0.02528337  1.04523452
  N  4.36987675  0.25079105  0.86206144
  C  5.35779111 -0.33634255  1.73877956
  O  2.57500329 -0.50695237  2.01848806
  C  2.82061555  0.87121369 -1.29574404
  N  3.42079604  1.05664276 -2.25167272
  N  1.61338468  1.96712379  0.42009457
  C  2.21161675  2.49052331  1.63930825
  N  0.21359692  1.80239242  0.54695973
  C -0.58634378  2.89906441  0.60421591
  O -1.78669816  2.88401367  0.78339659
  O  0.12679571  4.02781475  0.47286110
  C -0.59578653  5.24847285  0.50061500
  H -4.34152692  3.15255967 -0.98038124
  H -5.52559873  1.82257707 -1.07525881
  H -4.12093345  1.85926191 -2.17162584
  H -3.85053945  1.54248209  0.73763788
  H -3.79940690 -0.27228921  1.84552903
  H -3.14230959  1.47246082  4.10357686
  H -3.14656462 -0.26078355  4.44350605
  H -4.63696375  0.52968383  3.86957270
  H  0.75394602 -1.92964845 -4.05932076
  H  1.88018732 -2.84916273 -3.02789640
  H  0.12347198 -3.15834262 -2.93422228
  H -0.45482151 -3.06081182 -0.83305639
  H  1.08385741 -3.63533863 -0.24610016
  H  0.42756852 -1.72528055  1.68428867
  H  0.12542127 -3.44554450  1.83247186
  H -1.91911840 -2.03688447  2.23629073
  H -2.11024803 -3.26313915  0.98617218
  H -3.15292281 -1.29363333  0.16985521
  H -1.70884422 -1.50818372 -0.78767980
  H  4.69315034  0.55964396 -0.04335254
  H  6.14508162  0.38966918  1.94276793
  H  4.85880289 -0.60933102  2.66696831
  H  5.79643344 -1.23072330  1.29133711
  H  1.94258600  1.90412496  2.52403874
  H  1.86658505  3.51400013  1.76601604
  H  3.29136699  2.50466875  1.51291935
  H -0.16796880  5.88011005  1.28005739
  H -1.64961808  5.05481942  0.70959146
  H -0.48990714  5.73146271 -0.47128134
