36
opt_min/./Product_1179_opt.xyz
  C  1.49078077  3.37442502  0.88800333
  N  1.21899011  2.32806921 -0.06494490
  C  0.76665824  1.13980973  0.31813009
  O  0.57310204  0.79427358  1.46459486
  C  0.50722090  0.10374374 -0.80549176
 Cl  1.43369845  0.48142093 -2.28798725
  C -0.99805399 -0.15554827 -1.06566588
 Cl -1.35755876 -0.33596361 -2.81412793
  C -1.93924505  0.97050240 -0.60335756
  O -1.53434044  2.04947915 -0.23600836
  N -3.23612360  0.65065256 -0.71641402
  C -4.28143926  1.59514838 -0.39858113
  C -1.23566407 -1.52323617 -0.32061009
  C -1.81520265 -1.35124399  1.10089132
  C -2.10735171 -2.40479919 -1.07634228
  N -2.82976088 -3.07495717 -1.65231982
  N  0.06618602 -2.11576207 -0.14637865
  C  0.97008836 -1.25789090 -0.33029066
  C  2.39989834 -1.54273787  0.00551809
  O  3.11524797 -0.42038734 -0.04436160
  C  4.48349652 -0.51303635  0.33186598
  O  2.82206365 -2.62111550  0.30968828
  H  1.15186441  4.32821289  0.48836428
  H  2.55862956  3.43012943  1.11197574
  H  0.94346779  3.14875441  1.80141751
  H  1.36370868  2.51630223 -1.04467585
  H -3.51065307 -0.23551086 -1.11160563
  H -3.84304928  2.59182793 -0.38325513
  H -4.70869887  1.38438277  0.58432080
  H -5.06669062  1.54197747 -1.14995249
  H -1.54467963 -0.37574278  1.49760559
  H -1.36323839 -2.11086021  1.73637458
  H -2.89395585 -1.48410667  1.11252341
  H  4.74513006  0.43664303  0.79400774
  H  4.62565816 -1.33782840  1.03197427
  H  5.09643890 -0.68245710 -0.55541277
