42
opt_min/./Product_4765_opt.xyz
  C  5.62859098 -1.54100507  0.78525198
  C  4.60880339 -0.50039621  0.44093401
  C  5.18279979  0.82580237  0.04588980
  C  3.29858384 -0.77010070  0.51114440
  C  2.21828077  0.14062982  0.23281715
  C  0.93635848 -0.21806100  0.32841407
  C -0.25810843  0.64096623  0.03848799
  C  0.06045336  2.13000502 -0.11521076
  C -1.40672878  0.40180164  1.03902316
  C -2.63578184  0.05859941  0.13512819
  C -3.64679767  1.21078163  0.16809941
  O -3.85742237  1.69886583 -1.04749922
  C -4.79714497  2.76193274 -1.14371240
  O -4.14559795  1.63344701  1.17111416
  C -3.31609941 -1.21262069  0.66237223
  O -4.09675286 -1.24580759  1.56838599
  O -2.87202521 -2.27392786 -0.00281917
  C -3.40919961 -3.53240368  0.38768333
  N -2.14076499 -0.14496145 -1.19338532
  C -0.91274342  0.15631172 -1.25567843
  C -0.15906594  0.07639066 -2.44683706
  N  0.49044349  0.03535741 -3.38950815
  H  6.31597931 -1.15704369  1.53896320
  H  6.21828714 -1.79390366 -0.09664518
  H  5.16183231 -2.44679819  1.16244367
  H  5.39113423  1.42099741  0.93661335
  H  4.51039925  1.39038262 -0.59276037
  H  6.12308347  0.68441848 -0.48376692
  H  2.99545344 -1.76681004  0.80762248
  H  2.47869375  1.15002344 -0.04449954
  H  0.69291676 -1.23833940  0.60096205
  H  0.72528557  2.29621410 -0.96059704
  H -0.85725759  2.68975096 -0.29076996
  H  0.53363146  2.50519254  0.78988583
  H -1.18795087 -0.43647013  1.70118369
  H -1.61583226  1.27377260  1.65539912
  H -4.56404550  3.54522004 -0.41977100
  H -5.80529461  2.39106400 -0.95063040
  H -4.71966558  3.13907784 -2.16044262
  H -4.42362796 -3.64245141  0.00059309
  H -2.75818723 -4.28983764 -0.04205345
  H -3.43466461 -3.61301949  1.47628681
