30
opt_min/./Product_4532_opt.xyz
  O -0.86301270 -3.33528561 -0.76804830
  C -1.37285867 -3.67531584  0.19841588
  O -1.85454507 -4.04250216  1.16783321
  C -1.67724322 -0.73289710  1.81116952
  C -0.36659790 -0.61466611  1.61128148
  C  2.21313000 -2.65300839 -0.01728981
  O  1.52185013 -2.91059833  0.85822857
  O  2.91345844 -2.40571066 -0.88510859
  N -0.09977415 -0.10877820  0.35300237
  C  1.04600555  0.42333839 -0.15529517
  O  2.10187004  0.15361103  0.64410570
  C  3.34449776  0.66672421  0.17575754
  O  1.08875670  1.05234612 -1.18173833
  N -1.31570939  0.00012013 -0.37336943
  C -2.39909519 -0.21636977  0.57956497
  C -3.33123734 -1.19748299  0.04003525
  N -4.05906397 -1.97271540 -0.37487642
  C -3.22970205  1.03819796  0.96222574
  O -4.07763156  1.04248819  1.80780037
  O -2.85188080  2.09156645  0.24664477
  C -3.54453838  3.30985531  0.50266572
  H -2.20096269 -1.07907470  2.67720182
  H  0.44977344 -0.85051893  2.26428110
  H  4.06732433  0.45515682  0.95922880
  H  3.63112896  0.17406180 -0.75499669
  H  3.26948258  1.74124969  0.00067264
  H -1.35737581  0.88488292 -0.87431698
  H -3.07872417  4.05906882 -0.13164490
  H -3.45260773  3.58063028  1.55575050
  H -4.60126279  3.19743217  0.25574221
