45
opt_min/./Product_1538_opt.xyz
  C  0.58451853  1.49368743  3.38986673
  C -0.38195095  0.54353346  2.73294305
  O -1.49116492  0.34652321  3.15646857
  C  0.16652673 -0.13398879  1.52219751
  C  1.41961536 -0.57762373  1.33918820
  C  2.45018340 -0.70335463  2.27643588
  N  3.32554180 -0.81974093  3.01104127
  C  1.63778239 -0.92729977 -0.13059336
  C  2.55354312  0.19096264 -0.75450007
  N  3.77393543  0.24283939 -0.19886334
  C  4.76985217  1.18929171 -0.65008339
  O  2.16066484  0.91747436 -1.62991293
  C  2.34852493 -2.17518108 -0.29506411
  N  2.97281701 -3.12954550 -0.38797709
  N  0.31158954 -0.89630745 -0.73210019
  C -0.17245524 -2.19190219 -1.15907780
  C -0.55494328 -0.14014878  0.18396082
  C -0.54810274  1.35315712 -0.23667998
  O -0.50490153  2.25220367  0.56529285
  O -0.58379113  1.48460703 -1.54218069
  C -0.48545182  2.79348132 -2.09038186
  C -1.98175691 -0.64119133  0.21591472
  C -2.87105673 -0.30927997 -0.80127734
  C -4.16873617 -0.78615906 -0.77741261
  C -4.59204710 -1.60500688  0.25540681
  C -3.70164699 -1.96853047  1.24896445
  C -2.40039584 -1.49827692  1.22612927
  H  1.27494746  1.93455807  2.67843934
  H  0.02552177  2.27336526  3.89941160
  H  1.15168198  0.93621032  4.13596854
  H  4.05018101 -0.42213575  0.50748838
  H  5.35524124  0.77595315 -1.47462815
  H  5.43522870  1.43548626  0.17409166
  H  4.26212765  2.08827094 -0.99665702
  H -0.31149873 -2.90477468 -0.33458928
  H -1.12168216 -2.06167427 -1.67373446
  H  0.54003337 -2.60889913 -1.87028958
  H -0.14993715  3.49599672 -1.32624086
  H -1.46304211  3.09527448 -2.46888172
  H  0.23839745  2.73758327 -2.90139452
  H -2.54322860  0.31462571 -1.61770346
  H -4.85148006 -0.51702640 -1.56990602
  H -5.60930683 -1.96585032  0.27692671
  H -4.01555362 -2.62344928  2.04664780
  H -1.71292532 -1.81255308  1.99540288
