35
opt_min/./Product_174_opt.xyz
  C -1.12367100  2.76479800 -1.84631700
  C -1.24607138  2.04531162 -0.52306046
  O -2.23009439  2.13789738  0.17427546
  C -0.08769610  1.21794052 -0.14520103
  C -0.13043818  0.06768206  0.54145791
  C -1.32286784 -0.63879382  1.01701009
  C -1.92295434 -0.24713867  2.20758418
  C -3.05364165 -0.89711363  2.66595272
  C -3.60142981 -1.93621451  1.93388892
  C -3.01642633 -2.32104631  0.73931851
  C -1.87961951 -1.68025103  0.28250496
  C  1.30915306 -0.38283647  0.78288892
  C  1.63395533 -1.87110755  0.84713870
  C  3.02256562 -2.14732096  1.36785099
  O  0.87122717 -2.74096444  0.52234795
  N  2.08802381  0.31460968 -0.24954711
  C  2.13078545 -0.42403155 -1.49831326
  C  1.36543735  1.57565203 -0.40967339
  H -2.03009284  3.33367313 -2.03671144
  H -0.26637577  3.43338842 -1.83844802
  H -0.97304782  2.02777947 -2.63518818
  H -1.50357280  0.57640593  2.76617302
  H -3.50543198 -0.59279856  3.59927250
  H -4.49155446 -2.43686827  2.28669536
  H -3.44466819 -3.12496423  0.16011909
  H -1.42464690 -1.98131101 -0.64847992
  H  1.60146349  0.04750580  1.75794322
  H  3.76063342 -1.78233819  0.65624745
  H  3.15476492 -3.21602389  1.52049621
  H  3.18468022 -1.61547265  2.30212858
  H  2.55911875  0.21692398 -2.26771507
  H  2.77990573 -1.29174720 -1.39362843
  H  1.14199660 -0.76647174 -1.83595276
  H  1.72237699  2.28195671  0.35127915
  H  1.54876549  2.00347585 -1.39567579
