44
opt_min/./Product_4477_opt.xyz
  C  4.57293800 -0.42729500 -0.35663500
  C  3.28002607  0.32624999 -0.28400194
  C  3.39565472  1.72019789  0.25317656
  C  2.13524728 -0.21322817 -0.68299846
  C  0.80290433  0.48064312 -0.66572711
  C -0.35491080 -0.44419191 -1.08400149
  C -0.97406796 -0.22347907 -2.44138308
  C -1.93741182 -1.30198567 -2.83775989
  C -0.70415419  0.78879729 -3.24685751
  C -1.35485933 -0.30908131  0.10215871
  C -2.40687601  0.77026901 -0.22649771
  N -2.04538530  2.01915412  0.08090228
  C -2.87893250  3.15959632 -0.20517771
  O -3.46593287  0.48543500 -0.75300435
  C -2.01881282 -1.65218002  0.45512406
  C -3.20569384 -1.53082006  1.36141447
  O -1.58330324 -2.69905729  0.05291659
  N -0.51333679  0.11523603  1.23293148
  C  0.16529068 -0.95784314  1.93787505
  O  0.44780685  0.97050868  0.64677681
  H  4.43632508 -1.41666416 -0.78696087
  H  4.99996804 -0.53350104  0.64028550
  H  5.28647807  0.12521573 -0.96612855
  H  2.41937502  2.14343897  0.46401708
  H  3.98255191  1.71870987  1.17135191
  H  3.91223400  2.35473803 -0.46716769
  H  2.12931725 -1.22685446 -1.06306463
  H  0.84825199  1.38097556 -1.28449219
  H -0.00971295 -1.48738580 -1.05169465
  H -1.51440347 -2.28658367 -2.65252064
  H -2.84622942 -1.21328610 -2.23839705
  H -2.20776891 -1.21260963 -3.88554856
  H -0.02140177  1.58761792 -3.01307382
  H -1.18440085  0.86041691 -4.20929391
  H -1.14718296  2.17994297  0.51733785
  H -3.78975932  2.79142635 -0.67659483
  H -2.37384360  3.84797620 -0.88535349
  H -3.13055593  3.68785045  0.71599274
  H -4.03002037 -1.11606823  0.78175182
  H -2.98887575 -0.83943058  2.17221128
  H -3.48807736 -2.50793942  1.74565660
  H  0.74871496 -1.61232914  1.28188748
  H  0.83744070 -0.48798255  2.65550050
  H -0.57128536 -1.55110597  2.47576172
