42
opt_min/./Product_5053_opt.xyz
  C -0.41458400 -2.18172400  0.42327800
  O  0.50479629 -2.84070428 -0.02404259
  C -1.66117174 -2.85044971  0.83533497
  C -2.74847218 -2.21468336  1.28351299
  C -2.80803702 -0.74475266  1.35689509
  O -3.66561310 -0.15643061  1.96888317
  C -1.70946502 -0.04184168  0.60390945
  C -0.31226800 -0.68479895  0.68404304
  C  0.40769750  0.15463572 -0.41759787
  C  0.69594044  1.55214985  0.24329062
  N  1.68161256  1.52994148  1.15931256
  C  2.13499274  2.73418842  1.81915019
  O  0.02977325  2.52844952 -0.00156644
  C  1.79819202 -0.22175814 -0.94282065
  O  2.27972999  0.32681440 -1.90884475
  N  2.54062982 -1.01095016 -0.11212305
  C  3.88827679 -1.37759265 -0.50897289
  N -0.61387013  0.36228916 -1.44106798
  C -0.37402573 -0.09371884 -2.78948365
  C -1.89254527 -0.08268469 -0.92588674
  C -3.07829188  0.77199827 -1.38055895
  C -2.83045860  2.24132782 -1.47247844
  O -4.12638623  0.23535128 -1.64049483
  H -1.62261911 -3.92783958  0.76752369
  H -3.62458003 -2.75170364  1.61834337
  H -1.67639649  1.00098067  0.92567417
  H  0.15065606 -0.54627153  1.66691879
  H  2.28681509  0.72096495  1.19882654
  H  1.42406154  3.52519925  1.59342677
  H  3.12289170  3.02762362  1.46116388
  H  2.17445790  2.57405997  2.89699439
  H  2.04755573 -1.74455759  0.37664622
  H  4.27372129 -0.59967423 -1.16395847
  H  3.89978330 -2.32883667 -1.04148605
  H  4.51139545 -1.45567209  0.38110273
  H  0.52081308  0.37759222 -3.17987756
  H -0.26779317 -1.18685521 -2.85642530
  H -1.22541752  0.21097337 -3.39489291
  H -2.10956446 -1.12777549 -1.22664179
  H -2.82459873  2.52686246 -2.52201338
  H -3.65221483  2.77516228 -1.00127473
  H -1.87819197  2.50913651 -1.02651554
