48
opt_min/./Product_5315_opt.xyz
  C -4.45645400 -1.03771000  0.18872000
  C -3.10591119 -1.22829129 -0.42824934
  C -2.74535163 -2.63949833 -0.79338160
  C -2.28373287 -0.20324931 -0.62600419
  C -0.93854332 -0.32258571 -1.27007111
  C  0.24672613 -0.91190793 -0.43834469
  C  0.03602892 -1.29983420  1.00047406
  C  0.79325673 -2.51928822  1.44653355
  C -0.71565584 -0.61236088  1.84659541
  C  1.29815990  0.25887968 -0.55713613
  C  2.69679362 -0.13429224 -0.19656792
  C  3.28610551  0.32842316  0.96993098
  C  4.56476634 -0.07801988  1.30976893
  C  5.26251467 -0.94720751  0.48973306
  C  4.67644471 -1.41199944 -0.67658871
  C  3.39795992 -1.01230371 -1.01711752
  N  1.08915910  0.81076072 -1.87794781
  C -0.33005594  1.06037685 -1.70048135
  C -1.02917815  1.68902766 -2.87843937
  O -2.19980665  2.19763356 -2.51493665
  C -2.96391530  2.82400243 -3.53832804
  O -0.58684706  1.69351894 -3.99683907
  C -0.23490389  1.85792150 -0.39027682
  O -0.91910938  2.74431210  0.01637390
  O  0.81131625  1.33036300  0.25752937
  H -5.23140123 -1.42802715 -0.47060623
  H -4.51403072 -1.58581514  1.12878651
  H -4.65549353  0.01208254  0.38346095
  H -1.82523991 -2.94298595 -0.29850332
  H -2.58940084 -2.72508824 -1.86878157
  H -3.53623841 -3.32741468 -0.50646035
  H -2.59885742  0.79400251 -0.35747888
  H -1.05018999 -0.92351223 -2.18264653
  H  0.67011502 -1.76448109 -0.97350226
  H  0.21564951 -3.42223162  1.24639539
  H  0.98788117 -2.47612720  2.51445187
  H  1.74520891 -2.59966700  0.92557895
  H -0.80023181 -0.91831490  2.87583992
  H -1.27276417  0.26108173  1.56909425
  H  2.73688692  1.00608926  1.60357563
  H  5.01687062  0.28522581  2.22009271
  H  6.26028984 -1.26091506  0.75636390
  H  5.21592942 -2.08925389 -1.32145388
  H  2.95041732 -1.38058671 -1.92950991
  H  1.30687976  0.18715212 -2.64622077
  H -2.32811950  3.45693948 -4.15846911
  H -3.43183230  2.06587017 -4.16989509
  H -3.71974034  3.41707743 -3.03017235
