40
opt_min/./Product_4448_opt.xyz
  C  5.37893843 -0.59854226  1.59899521
  C  4.15945303 -0.45416965  0.73937146
  C  4.40063806  0.23735502 -0.56621624
  C  2.99038800 -0.97766438  1.11812270
  C  1.70780207 -0.92832842  0.44277626
  C  1.24860652  0.08232008 -0.29226871
  C -0.13808426  0.17284396 -0.85951880
  C -0.21609279  1.28209141 -1.91267867
  C -0.68658761 -1.14600142 -1.43901203
  C -2.07329275 -1.18058916 -0.84993264
  C -3.07487656 -2.18478697 -1.23126756
  O -4.21066592 -2.05229582 -0.54947920
  C -5.25995545 -2.96731879 -0.82920144
  O -2.87306918 -3.02532251 -2.07807543
  N -2.24884925 -0.30307059  0.06318619
  N -1.15857282  0.45815779  0.19033293
  C -1.13456878  1.46419368  1.12365312
  O -2.04425593  1.73734495  1.85516230
  O  0.05283998  2.10750155  1.10539739
  C  0.19295479  3.13128719  2.07934730
  H  6.09677836 -1.26691167  1.12193196
  H  5.13266622 -0.99868941  2.57894330
  H  5.86598708  0.36794930  1.72586833
  H  3.62986614 -0.00787836 -1.29148313
  H  4.41775715  1.31877086 -0.42744604
  H  5.37136984 -0.05755930 -0.96305129
  H  2.96722384 -1.54298660  2.04324851
  H  1.07735022 -1.78567403  0.63164186
  H  1.82789057  0.98599638 -0.38097124
  H -0.07058447  2.25373237 -1.44499023
  H -1.18791426  1.27457836 -2.40260324
  H  0.55836222  1.13547348 -2.66046468
  H -0.67191135 -1.16947979 -2.52675848
  H -0.14095401 -2.02322621 -1.08298164
  H -6.17268707 -2.38856104 -0.96433054
  H -5.37155170 -3.64351311  0.01987254
  H -5.02903664 -3.53809431 -1.73135687
  H -0.68923553  3.77475657  2.08686897
  H  1.07991958  3.69521802  1.80069329
  H  0.31963473  2.69405602  3.07191448
