39
opt_min/./Product_4371_opt.xyz
  C  0.83614600  1.14774900  0.02040300
  C  1.89165332  0.83838864 -1.03364317
  C  1.49224553 -0.58560393 -1.44218364
  C  2.00285740 -1.61168860 -0.40267353
  N  3.34643562 -1.77631764 -0.42923139
  C  4.02364711 -2.69951032  0.45256046
  O  1.27976511 -2.17560547  0.38417696
  C  1.94600791 -0.98048629 -2.85265227
  O  0.07777972 -0.57023934 -1.42809122
  C -0.40596835  0.43352445 -0.55073685
  C -1.25469687  1.40287379 -1.39550172
  O -1.55967911  1.22735376 -2.54059516
  O -1.67095231  2.43468550 -0.65005267
  C -2.56815665  3.36054268 -1.25366560
  C -1.33276973 -0.14629555  0.49712736
  C -1.60745769  0.53507992  1.67390910
  C -2.47252235 -0.00868420  2.60632190
  C -3.07033803 -1.23436918  2.36942253
  C -2.80385800 -1.90983143  1.19201571
  C -1.94431610 -1.36814989  0.25419857
  H  0.66445388  2.21276909  0.16464036
  H  1.10337541  0.68974511  0.97530774
  H  2.91099577  0.91913384 -0.65995895
  H  1.76723879  1.49678441 -1.89724983
  H  3.89789615 -1.30945266 -1.12966815
  H  3.26657673 -3.35242540  0.88867060
  H  4.74437525 -3.29448757 -0.10790441
  H  4.53983519 -2.17229381  1.25927055
  H  2.91248391 -0.53832330 -3.09098798
  H  2.01069629 -2.06142851 -2.94939460
  H  1.20596222 -0.61527972 -3.56165259
  H -3.37848583  3.53900848 -0.54712415
  H -2.95336481  2.95367264 -2.18959919
  H -2.03204346  4.29135410 -1.45159680
  H -1.15435283  1.49696152  1.86088533
  H -2.67615088  0.52758488  3.52202986
  H -3.74196805 -1.65913788  3.10092846
  H -3.27057286 -2.86625684  1.00206328
  H -1.72265039 -1.89042667 -0.66237502
