56
opt_min/./Product_2608_opt.xyz
  C  3.71317000  2.14672300  2.20712300
  O  3.08182159  0.95578822  1.74469191
  C  2.92798415  0.84074463  0.44439233
  O  3.38076203  1.60299976 -0.36775418
  C  2.13176178 -0.44045000  0.07605662
  C  2.67112490 -1.45195767  1.11591849
  C  1.81755528 -1.74708336  2.31230368
  O  3.78613644 -1.88950524  0.99599528
  C  0.65466139 -0.17551535  0.14984494
  C -0.37136979 -0.97100034 -0.20640141
  C -0.48185328 -2.43146730 -0.57479771
  F -0.31651427 -3.20089605  0.53990052
  F -1.77217484 -2.66310974 -0.96921426
  C  0.41280409 -2.97956300 -1.68982345
  C  1.85066090 -3.27586586 -1.25906611
  C  2.87412469 -2.23260739 -1.69384164
  C  2.49437533 -0.78628534 -1.39712597
  N -1.59016832 -0.26961229 -0.23819254
  C -2.64533971 -0.63211709  0.68390083
  N -3.69097556  0.19040507  0.53096345
  C -4.90100273  0.01970760  1.29851299
  O -2.56009560 -1.56064720  1.44048241
  O -1.24642146  1.10772005 -0.18478421
  C  0.02270145  1.19320868  0.44747247
  C  0.73422980  2.40159524 -0.19228871
  O  1.09912661  3.36118165  0.42551101
  O  0.82855692  2.21620204 -1.49237689
  C  1.46963087  3.23049208 -2.26173272
  C -0.13866567  1.38766316  1.97604168
  O  0.75368843  1.54069382  2.75832635
  O -1.42417912  1.32608853  2.30346725
  C -1.72046329  1.45421987  3.68952711
  H  3.61606580  2.12928869  3.28846545
  H  4.76123992  2.15540099  1.90425003
  H  3.20165187  3.01718091  1.79404944
  H  0.76151614 -1.57308719  2.14412780
  H  1.97639881 -2.77753142  2.62404783
  H  2.15559537 -1.09715715  3.11889565
  H  0.37731450 -2.29785711 -2.54001454
  H -0.07263859 -3.91125299 -1.98863464
  H  2.15263416 -4.23053443 -1.69381245
  H  1.87916794 -3.39985064 -0.17623561
  H  3.02889973 -2.30723227 -2.77298210
  H  3.82120793 -2.46897580 -1.20767963
  H  1.65107601 -0.48819244 -2.02345736
  H  3.33628527 -0.15396026 -1.68786623
  H -3.60510665  0.96206050 -0.10949855
  H -5.51205841 -0.78255935  0.87773471
  H -5.46768665  0.94670300  1.29547312
  H -4.64620353 -0.25343195  2.32300937
  H  2.18513694  2.73117308 -2.91185759
  H  0.71495981  3.75252947 -2.85033418
  H  1.98604466  3.92766422 -1.60170709
  H -1.15741679  0.71621002  4.26319606
  H -2.78832396  1.28059392  3.78608200
  H -1.45662396  2.45457524  4.03604368
