49
opt_min/./Product_989_opt.xyz
  C -3.01708700  2.42986000  2.41354200
  O -2.57231131  1.45531615  1.48138557
  C -1.30857420  1.58343925  1.07581716
  O -0.61661899  2.54067068  1.33703128
  C -0.86170666  0.47235261  0.13454345
  C  0.32948530 -0.31719798  0.76048117
  C  0.35467634 -0.27066230  2.28856646
  C  1.35976359 -1.16271714  2.96398765
  O -0.45290223  0.35940526  2.92929084
  C -0.09358668 -1.77562282  0.45089878
  C -0.24306478 -2.03429324 -1.05918681
  C -1.62133082 -1.43337672 -1.39528668
  C -1.92788230 -0.62787690 -0.12697573
  C -1.55786239 -1.69904316  0.90322949
  C  1.61865141  0.30278969  0.14640944
  C  2.40264558  1.14808499  1.16452029
  C  2.59119341 -0.77257911 -0.37316794
  O  2.99580710 -1.68041056  0.32829579
  N  3.01085048 -0.54819732 -1.62545937
  C  3.97165097 -1.37959339 -2.30120661
  N  1.18866754  1.17994406 -0.94399545
  C -0.25339830  1.12825142 -1.14174397
  C -0.82085550  2.48931400 -1.53819563
  H -3.98495413  2.08976657  2.77431919
  H -3.11006681  3.40530821  1.93048725
  H -2.30260396  2.50408571  3.23492372
  H  0.81021444 -1.99169705  3.41266315
  H  1.83236623 -0.62247739  3.78213192
  H  2.10083556 -1.55644606  2.27541613
  H  0.53039735 -2.51572426  0.94453399
  H -0.20963256 -3.10595762 -1.25867975
  H  0.55657735 -1.56528770 -1.62879683
  H -2.37413768 -2.21905195 -1.48619688
  H -1.64579098 -0.87459830 -2.32760312
  H -2.94574365 -0.24819691 -0.08396055
  H -2.09605234 -2.63185467  0.74649286
  H -1.69501401 -1.38156724  1.93236602
  H  2.91894364  0.53278075  1.89382252
  H  1.72517718  1.83332624  1.67084628
  H  3.15873288  1.72749439  0.63230220
  H  2.57954212  0.23800402 -2.09965284
  H  4.75717014 -0.76675434 -2.74451122
  H  4.40484475 -2.05164548 -1.56117673
  H  3.49632416 -1.97557681 -3.08449350
  H  1.47475449  2.13501936 -0.75555968
  H -0.43107700  0.47404534 -1.99619858
  H -0.38221900  2.79262263 -2.48763666
  H -0.59787521  3.24834977 -0.79412848
  H -1.89924457  2.41950894 -1.66363086
