56
opt_min/./Product_2153_opt.xyz
  C  4.19028200 -2.35790064 -0.21466793
  O  3.22329480 -1.33937084 -0.35531840
  C  1.91362120 -1.56774731  0.13397351
  O  1.93636487 -1.97548187  1.49417522
  C  2.53640008 -1.11014158  2.43292458
  C  1.27802720 -0.18219655  0.02668822
  C  0.02909362  0.35752607  0.09112699
  C -1.33249630 -0.07174802 -0.38490333
  C -1.37375677  0.55622338 -1.83507568
  C -2.69452706  0.86958365 -2.47734179
  O -0.34989658  0.58042554 -2.46606838
  C -2.46481375  0.26076493  0.56871260
  C -2.24574088  0.71369917  1.86560963
  C -3.29433383  1.01294060  2.71993159
  C -4.60290147  0.84781261  2.31038628
  C -4.84222819  0.32429167  1.05206172
  C -3.79166525  0.02141071  0.20619519
  C -1.40552395 -1.57871871 -0.70689699
  C -0.97279990 -2.44379557  0.47734510
  C  0.10391197 -3.43082597  0.04690320
  C  1.29360291 -2.75113712 -0.63372117
  C  0.22910965  1.82279084  0.44669957
  C -0.66570022  2.90525520 -0.12791850
  O -0.67908397  3.95069718  0.68998149
  C -1.42526450  5.08350681  0.25826826
  O -1.29768920  2.84158875 -1.14746139
  N  1.62521610  2.09706267  0.30938575
  C  2.20428098  0.95930291  0.14572790
  C  3.62311095  0.92237960  0.11015164
  N  4.76365248  1.03440859  0.15698167
  H  4.01628132 -2.95553922  0.68333321
  H  4.21034127 -3.00834658 -1.09469499
  H  5.14652344 -1.83943815 -0.13248112
  H  2.01561807 -0.14891948  2.50156354
  H  2.45548933 -1.62704035  3.38785105
  H  3.58928060 -0.92239910  2.20304141
  H -3.17842127 -0.06009316 -2.77190068
  H -2.49188342  1.45233897 -3.37236970
  H -3.34708102  1.43224713 -1.81921083
  H -1.24837567  0.79537536  2.26495436
  H -3.07670568  1.36932642  3.71614808
  H -5.42156648  1.09340898  2.96945605
  H -5.85524350  0.13878787  0.72640456
  H -4.03104159 -0.41972403 -0.74650781
  H -0.74898946 -1.76351239 -1.55406162
  H -2.41443385 -1.83788999 -1.02612939
  H -1.82577238 -2.97926113  0.89716523
  H -0.56297000 -1.81752052  1.26942567
  H  0.46228373 -3.97108538  0.92307518
  H -0.31612380 -4.15729721 -0.65273340
  H  1.06330067 -2.40543549 -1.64139825
  H  2.07926093 -3.50171168 -0.72669815
  H  0.08754103  1.93004466  1.53535395
  H -1.47906304  5.75340533  1.11221497
  H -0.91899143  5.56995139 -0.57695160
  H -2.42415249  4.77770783 -0.05926348
