57
opt_min/./Product_5468_opt.xyz
  C  4.91309500  2.19630100  0.89756300
  C  5.06569530  0.75086099  0.53204800
  C  6.35902221  0.14650735  0.99061800
  C  4.15640149  0.02022938 -0.12319522
  C  2.86584001  0.45273442 -0.60548354
  C  2.04194939 -0.36698221 -1.25557479
  C  0.67024118 -0.08132283 -1.81300510
  C  0.65137664 -0.65234448 -3.23220963
  C  0.31518596  1.41021678 -1.80741613
  C -0.22366217  1.68593298 -0.39918176
  C -1.32359394  2.72033407 -0.34909992
  C -1.22252384  3.77039154  0.55594603
  C -2.21240827  4.73072710  0.65539579
  C -3.33554717  4.65604795 -0.14997760
  C -3.45296881  3.61570167 -1.05474979
  C -2.45530905  2.66169271 -1.15328587
  N -0.57587398  0.37096550  0.12958400
  C -1.69815388  0.30275648  1.02565566
  C -0.41372047 -0.69301706 -0.85507906
  C -1.72781528 -1.02879912 -1.58086524
  C  0.13127689 -1.92663213 -0.14767415
  C  0.82617679 -1.78259303  1.05013898
  C  1.36685947 -2.87618042  1.69831195
  C  1.23087085 -4.14409322  1.15926484
  C  0.54812390 -4.30117865 -0.03242933
  C  0.00482668 -3.20378119 -0.67980019
  H  5.62931120  2.80046481  0.33758835
  H  5.12688464  2.33507192  1.95763720
  H  3.91648373  2.57293455  0.69421335
  H  6.39016359  0.12253047  2.08099633
  H  6.47701009 -0.86990645  0.62234822
  H  7.20110676  0.74782269  0.64957608
  H  4.38946466 -1.01835346 -0.33095526
  H  2.58683581  1.47559420 -0.40981294
  H  2.37283674 -1.38408149 -1.43160054
  H  0.77771122 -1.73330024 -3.20870491
  H -0.27071321 -0.41016756 -3.75365438
  H  1.47986282 -0.22675496 -3.79756364
  H -0.44413772  1.62085805 -2.56007987
  H  1.18272997  2.02819334 -2.03710204
  H  0.58755150  2.06623050  0.24487665
  H -0.35269307  3.83538316  1.19640121
  H -2.10730919  5.53965619  1.36389841
  H -4.11371779  5.40089599 -0.07352187
  H -4.32484094  3.54593701 -1.68934620
  H -2.57780685  1.86572374 -1.87357092
  H -2.67408298  0.49001833  0.55152963
  H -1.71827407 -0.68505984  1.48819210
  H -1.55674333  1.05022735  1.80785986
  H -2.18361698 -0.12662413 -1.97770295
  H -2.42285665 -1.48648103 -0.87939025
  H -1.56677058 -1.71894806 -2.40097009
  H  0.94139196 -0.79419514  1.46494479
  H  1.90292255 -2.73803635  2.62655911
  H  1.65325100 -5.00164726  1.66270439
  H  0.43807073 -5.28457712 -0.46751513
  H -0.51783195 -3.36479137 -1.61007451
