49
opt_min/./Product_1423_opt.xyz
  C -4.85967833 -0.46491723  0.89272521
  N -3.68984851 -0.00932619  0.17624515
  C -2.46484206 -0.11906961  0.70984192
  O -2.24131557 -0.53474370  1.83073457
  C -1.30437011  0.27724879 -0.22660049
  C -0.02468510  0.77024858  0.52060806
  C -0.11953584  0.84961317  1.97075609
  N -0.06647453  1.00472221  3.10315932
  C  0.16821249  2.21271826 -0.02745254
  C  0.70210413  2.16889517 -1.45916179
  C -0.47097139  1.54466531 -2.23592284
  C -1.59252941  1.44485850 -1.18897955
  C -1.28689771  2.62411001 -0.26370647
  N  0.97355089 -0.21080030  0.12835160
  C  2.34163722 -0.06397189  0.10294596
  C  2.98140187  0.88952503  0.89812186
  C  4.35546142  1.01526548  0.85627492
  C  5.11713466  0.18971297  0.04551940
  C  4.48705085 -0.77409736 -0.72362608
  C  3.11376345 -0.90717457 -0.70027275
  N  0.38270032 -1.39064828 -0.35550574
  C  0.22043732 -2.35736096  0.74309606
  N -0.85131280 -0.96081724 -0.86349711
  C -1.51815581 -1.52946992 -1.89321164
  C -0.81864638 -2.67823015 -2.57074434
  O -2.60211012 -1.09453055 -2.24212682
  H -5.25134020 -1.38334657  0.45393893
  H -5.62918346  0.30734520  0.86151228
  H -4.56997228 -0.64998931  1.92573331
  H -3.76590277  0.04132789 -0.83093569
  H  0.73934602  2.85079860  0.64366864
  H  0.89282745  3.18896743 -1.79331441
  H  1.62808130  1.60726031 -1.55886150
  H -0.78687807  2.17566130 -3.06543450
  H -0.21577380  0.56981086 -2.64775895
  H -2.57759472  1.42417700 -1.64477150
  H -1.88636688  2.62136260  0.64644447
  H -1.37573263  3.58916036 -0.75779562
  H  2.39981804  1.51635491  1.55516288
  H  4.83690102  1.75788182  1.47518087
  H  6.19101136  0.29160072  0.02218988
  H  5.07194412 -1.43019295 -1.35200377
  H  2.61851408 -1.65677636 -1.29735358
  H -0.03491672 -3.32892959  0.32526495
  H -0.54631572 -2.05370530  1.45854575
  H  1.17944209 -2.42946547  1.25081640
  H -1.52539444 -3.18769449 -3.21912218
  H -0.39866995 -3.37535278 -1.85398856
  H -0.00521302 -2.28085892 -3.17656900
