33
opt_min/./Product_710_opt.xyz
  C  3.47301179 -1.33087149 -2.44059503
  O  3.04442355 -1.95196570 -1.24741873
  C  1.75682771 -1.83139916 -0.89813749
  C  1.11621709 -2.42262562  0.11549453
 Br  1.74631427 -3.61956263  1.40408137
  C -0.28546688 -1.84699297  0.11529722
  C -0.14874614 -0.41463255  0.71695332
  C  0.63219559  0.27843689 -0.42187310
  C  0.71534792 -0.88118666 -1.47407846
  O -0.48622885 -1.58908003 -1.26186796
  C -0.27548104  1.44667796 -0.86872033
  C -0.24127661  1.68834708 -2.30479253
  N -0.19132517  1.90362777 -3.42460389
  C  0.20891461  2.68907273 -0.25510322
  N  0.57844734  3.66106820  0.21891908
  N -1.59043641  1.05825626 -0.41020521
  C -1.47094121  0.37776379  0.87215019
  C -2.70747061 -0.50281984  1.05323628
  C -1.36515589  1.36145687  2.06043591
  H  4.53543324 -1.55759925 -2.51814280
  H  2.95203492 -1.73508606 -3.31334727
  H  3.33048646 -0.24568556 -2.40122923
  H -1.06045114 -2.47456073  0.53789845
  H  0.38446960 -0.46400211  1.66414148
  H  1.63017469  0.63008722 -0.16306645
  H  0.81368196 -0.57584335 -2.51187659
  H -2.28893635  1.78927617 -0.44766249
  H -3.57150759  0.12641554  1.25488211
  H -2.57179688 -1.18392419  1.88941970
  H -2.89717322 -1.07110531  0.14598440
  H -1.79827052  0.91957136  2.95402002
  H -0.33184469  1.63346999  2.26989389
  H -1.90536342  2.28056035  1.83464721
