80
opt_min/./Product_3098_opt.xyz
  C -2.33120200  5.63237400  1.35303100
  O -2.12326793  4.76335343  0.24744490
  C -1.19821266  3.80273031  0.41811646
  O -0.56842467  3.67493850  1.43364367
  C -1.01137901  3.00741434 -0.86561338
  C -1.18205841  1.49325352 -0.55957477
  C -0.40625288  0.42096831 -0.29156809
  C  1.13012891  0.37841056 -0.13065153
  C  1.47988003 -0.04232405  1.28505583
  C  2.02275240 -1.28894476  1.57390030
  C  2.29494116 -1.67227183  2.87611149
  C  2.03022223 -0.81137866  3.92488312
  C  1.49328980  0.43422021  3.65232269
  C  1.22038532  0.81353665  2.35147684
  C  1.85735996 -0.36537058 -1.22729152
  C  1.26568793 -0.53172271 -2.47500552
  C  1.94810321 -1.13524208 -3.51419945
  C  3.25453054 -1.55619848 -3.33683525
  C  3.87800648 -1.32919921 -2.12313923
  C  3.19148998 -0.72709809 -1.08353318
  C  1.35437748  1.86100013 -0.42398603
  C  2.46546689  2.81556716 -0.78360564
  C  1.56841123  4.05991378 -1.01219573
  C  0.15865003  3.78357567 -1.61840572
  C -1.26221175 -0.82295309 -0.07683664
  C -1.29988588 -1.18469583  1.42753646
  N -1.46447215 -2.49324304  1.71900959
  C -1.58205977 -2.94059689  3.08787315
  O -1.30153147 -0.33031784  2.29129168
  C -0.86224583 -1.95826251 -1.00962874
  C  0.09281557 -2.91214413 -0.68325077
  C  0.45561225 -3.89460594 -1.58902044
  C -0.13801008 -3.94942861 -2.83623911
  C -1.10180020 -3.01246209 -3.16845284
  C -1.45612189 -2.02817726 -2.26579312
  N -2.58927071 -0.36097022 -0.45907676
  C -3.71954616 -1.13764956 -0.02499512
  C -2.66294078  1.09026145 -0.48572771
  C -3.48202204  1.49884315 -1.72173604
  C -3.30456689  1.66751947  0.78711349
  H -3.08345938  6.35127072  1.03994008
  H -1.40066300  6.13821862  1.61679784
  H -2.67826452  5.06449890  2.21902824
  H -1.86430578  3.24646385 -1.50347048
  H  2.26030668 -1.97600073  0.77584016
  H  2.71507757 -2.65016477  3.06606205
  H  2.23760256 -1.10945094  4.94292836
  H  1.27206864  1.11546526  4.46027998
  H  0.76939638  1.77844438  2.19015848
  H  0.25396791 -0.19186328 -2.63627236
  H  1.45822405 -1.27091029 -4.46746716
  H  3.78846300 -2.03653962 -4.14343199
  H  4.91079405 -1.61591181 -1.98398523
  H  3.70949363 -0.52432444 -0.15826980
  H  0.81873283  1.88424144 -1.36098133
  H  0.80853198  2.37792550  0.35559687
  H  2.97790843  2.51657803 -1.70102358
  H  3.20826345  3.00699109 -0.01247217
  H  2.05742716  4.77371324 -1.67863292
  H  1.42636959  4.55364352 -0.04883357
  H  0.27203759  3.34284103 -2.61049414
  H -0.27565444  4.77875223 -1.77023149
  H -1.53899247 -3.17065719  0.97868037
  H -0.88363192 -2.37044418  3.70139936
  H -2.59075019 -2.76916539  3.47404848
  H -1.34801028 -4.00032938  3.14689764
  H  0.56840626 -2.89100515  0.28312377
  H  1.20897310 -4.61868113 -1.31447629
  H  0.14594901 -4.71477832 -3.54307566
  H -1.57571350 -3.04418960 -4.13845064
  H -2.20142029 -1.29410195 -2.53127858
  H -3.81214094 -1.22736246  1.06594005
  H -4.63467863 -0.68785765 -0.40392019
  H -3.63900922 -2.14157794 -0.44833757
  H -4.40609724  0.92814338 -1.75033376
  H -2.92592742  1.28561020 -2.63222389
  H -3.75054282  2.55036739 -1.70011849
  H -4.26915796  1.19770285  0.96372830
  H -2.66153506  1.47254902  1.64225752
  H -3.46959789  2.73551406  0.69004270
