46
opt_min/./Product_1007_opt.xyz
  C -0.90521300 -2.80865300 -0.61827500
  C -0.35472332 -1.93959781  0.48825751
  O  0.08272693 -2.45013948  1.49411494
  C -0.38824136 -0.42855872  0.35991241
  C -1.62240627  0.31968466 -0.26689779
  C -2.78066185 -0.42877504 -0.90490463
  C -2.11612428  1.11771655  0.98868925
  C -2.68775167  0.08381606  1.93896372
  C -1.63141049 -0.49789560  2.48464324
  C -0.44222890  0.17634493  1.82672543
  O -0.91131578  1.48593522  1.62304133
  C -0.92735302  1.27234710 -1.27982431
  C -1.61074313  2.60684255 -1.53599118
  O  0.34941298  1.49903554 -0.73519487
  C  0.85170267  0.22936024 -0.37595811
  C  1.41672369 -0.40062072 -1.67419371
  C  1.79366788 -1.85665318 -1.74577085
  O  1.63028238  0.32565062 -2.61000953
  C  2.07171109  0.43378459  0.52140617
  C  2.44161166  1.73505007  0.84558807
  C  3.53066694  1.97472001  1.66328085
  C  4.26540289  0.92029674  2.17615193
  C  3.89413857 -0.37625305  1.86926054
  C  2.80659114 -0.62177774  1.04839735
  H -0.18529573 -3.59247713 -0.84592308
  H -1.15745322 -2.26361988 -1.51725869
  H -1.78863925 -3.31409748 -0.22773933
  H -3.03352583 -1.33007443 -0.35461643
  H -2.57631916 -0.67698410 -1.94455601
  H -3.65733970  0.21831103 -0.88889117
  H -2.74533671  1.97424922  0.77095482
  H -3.73477897 -0.07096866  2.10753753
  H -1.57030022 -1.31261435  3.17670615
  H  0.49260970  0.14862098  2.37510892
  H -0.82374401  0.71740055 -2.23280736
  H -1.27497941  3.01248528 -2.48611998
  H -2.69062229  2.48977125 -1.56982020
  H -1.33549154  3.29924205 -0.74536161
  H  1.10266001 -2.34654794 -2.43032742
  H  2.78535306 -1.92064923 -2.19265521
  H  1.78239669 -2.36661689 -0.79399267
  H  1.86653389  2.55439863  0.45093477
  H  3.80190315  2.99202722  1.90371075
  H  5.11531926  1.10595338  2.81625170
  H  4.44990071 -1.20918709  2.27426109
  H  2.52871531 -1.64546656  0.86563026
