69
opt_min/./Product_2977_opt.xyz
  C  3.29408503 -3.25424565 -2.45766510
  N  2.81159703 -2.31055545 -1.47082680
  C  3.06083448 -2.51269630 -0.16123953
  O  3.52773750 -3.53479504  0.28621777
  C  2.64100961 -1.34331746  0.78221038
  O  3.91406538 -0.69823045  1.00615324
  C  3.99300598  0.22696600  2.06499948
  C  1.74933095 -0.31143556  0.13470301
  C  0.41301814 -0.05537903  0.13009406
  C -0.79150958 -0.95623379  0.24103874
  C -1.43373917 -0.84660170 -1.15128044
  C -2.71579857 -0.36045728 -1.37211076
  C -3.24898703 -0.33112183 -2.65060267
  C -2.49988697 -0.75448786 -3.73529872
  C -1.21375768 -1.22054577 -3.52835625
  C -0.69207801 -1.27450503 -2.25053608
  C -1.73665214 -0.58799045  1.36862371
  C -2.99660581 -1.17840752  1.44523200
  C -3.85300313 -0.88242872  2.48880046
  C -3.45825737 -0.01053998  3.49005387
  C -2.18695765  0.53049206  3.45735904
  C -1.32946627  0.23150950  2.41187608
  C -0.43412319 -2.46170774  0.39898805
  C -0.19392146 -2.95983767  1.82727084
  C  1.27808323 -3.17625680  2.14160852
  C  2.12406928 -1.90455808  2.12845402
  C  0.26912020  1.38933918 -0.36911034
  C -0.77109869  1.80691209 -1.41974326
  O -1.83650418  2.33950147 -0.82738848
  C -2.80794995  2.92239485 -1.68842819
  O -0.58796035  1.75385036 -2.60134712
  C  0.11739956  2.28986141  0.76833272
  N  0.11424724  3.04050319  1.62874527
  N  1.58299502  1.77052225 -0.84598343
  C  2.39151968  0.82971645 -0.52969584
  C  3.80059217  0.91598420 -1.02049282
  C  4.49720259  2.19221658 -0.66989822
  O  4.24037793  0.08365496 -1.77637375
  H  4.22371170 -2.90347359 -2.90851497
  H  2.53871345 -3.37801794 -3.23360589
  H  3.47494617 -4.20467856 -1.95956224
  H  2.76329044 -1.35439959 -1.79813883
  H  3.94338053 -0.25378177  3.04586224
  H  3.20862530  0.99240870  2.00814446
  H  4.97062675  0.69513345  1.96188743
  H -3.30765090  0.01372791 -0.55091210
  H -4.25624145  0.03246202 -2.79800272
  H -2.91361173 -0.71021903 -4.73096247
  H -0.61188201 -1.53929823 -4.36550063
  H  0.31074533 -1.64713641 -2.10920461
  H -3.30370722 -1.88389148  0.68805824
  H -4.83026723 -1.34096414  2.52558668
  H -4.13089643  0.22532511  4.30102321
  H -1.84906667  1.18243370  4.24855960
  H -0.32587524  0.62626631  2.43047770
  H  0.43785031 -2.69738655 -0.20817344
  H -1.27839942 -3.01164582 -0.02180323
  H -0.70573365 -3.91598366  1.95323237
  H -0.61968711 -2.27181295  2.55789619
  H  1.34550195 -3.58639634  3.15225819
  H  1.70296649 -3.91808724  1.46853585
  H  3.03035639 -2.14611693  2.68761341
  H  1.58741885 -1.11426583  2.65900599
  H -3.66725095  3.14770035 -1.06274713
  H -2.40810927  3.83586281 -2.13197036
  H -3.07192105  2.22403767 -2.48414781
  H  3.91797047  3.00032412 -1.11667904
  H  5.50908759  2.19146200 -1.06550405
  H  4.50758043  2.35485996  0.40400614
