59
opt_min/./Product_2496_opt.xyz
  C  0.82253000  1.69399000 -3.63292100
  N  0.64154071  1.49176720 -2.21550721
  C  0.14114676  0.34341851 -1.71834614
  O -0.17825320 -0.58331556 -2.43033732
  C  0.03656739  0.28340191 -0.16773413
  C -0.39323298  1.68677107  0.25169790
  O -1.55719265  2.03406576  0.12326958
  N  0.56310663  2.56469824  0.59494653
  C  0.21823404  3.91944492  0.97040030
  C -1.00907011 -0.81581435  0.23243949
  C -1.97334740 -1.18240969 -0.94139251
  O -2.13525225 -2.30995516 -1.35128729
  N -2.70330466 -0.12133428 -1.31918025
  C -3.66560006 -0.19414391 -2.38684025
  C -1.90104022 -0.51177938  1.43314147
  C -1.44418458  0.23922864  2.50948987
  C -2.26201749  0.47449639  3.60037347
  C -3.53834072 -0.05442988  3.64922449
  C -3.98665462 -0.83643960  2.60101162
  C -3.17564465 -1.06827651  1.50391903
  C -0.11358718 -1.96711224  0.62221876
  C -0.65668392 -3.30075899  0.93872513
  N  1.12768080 -1.71764846  0.65570047
  C  1.41361342 -0.35208767  0.30017251
  C  2.13108299  0.18996138  1.56089435
  O  1.59396251  0.84153606  2.43408735
  N  3.40403373 -0.21372262  1.64527497
  C  4.19504500  0.05309496  2.82713651
  C  2.39262929 -0.31407885 -0.87308390
  O  3.11539290  0.63476771 -1.09323760
  O  2.36384332 -1.42765218 -1.56646152
  C  3.12949302 -1.50810999 -2.76194730
  H  1.86251753  1.93959879 -3.84996867
  H  0.17291802  2.49418707 -3.99131033
  H  0.55235923  0.76671788 -4.13725273
  H  0.97060505  2.21968082 -1.60244769
  H  1.51838602  2.27505209  0.71756991
  H -0.39831416  4.36838749  0.19101204
  H  1.12848814  4.49348850  1.11209737
  H -0.35601847  3.92065934  1.89912038
  H -2.52536880  0.77818732 -0.88129062
  H -3.39063032  0.47589189 -3.20335634
  H -3.67994658 -1.22005444 -2.75176417
  H -4.65955595  0.07465916 -2.02127971
  H -0.44428068  0.63802296  2.50982338
  H -1.88979167  1.07080431  4.42052290
  H -4.17709085  0.13324831  4.49993883
  H -4.97335743 -1.27594158  2.62513674
  H -3.54142623 -1.68938348  0.70163261
  H -1.47573035 -3.22214753  1.65082031
  H  0.12556503 -3.94908427  1.31793711
  H -1.07368902 -3.70350978  0.01297538
  H  3.82402029 -0.72432638  0.88933728
  H  4.54447445  1.08856867  2.83186315
  H  5.04780540 -0.61808967  2.84857161
  H  3.57355462 -0.09850319  3.70965342
  H  3.82269329 -0.66664217 -2.82202951
  H  3.66642141 -2.45436128 -2.74319246
  H  2.43599338 -1.48880530 -3.60316416
