53
opt_min/./Product_5636_opt.xyz
  C  0.26364638 -1.71415595  0.38860393
  C -0.25325083 -0.84233176  1.53404974
  C -0.17331982 -1.64647705  2.82952725
  C  0.52411707  0.49408396  1.67463908
  C  2.01931013  0.44722352  1.64019594
  C  2.79599707  0.14244296  0.59893274
  C  4.25127496  0.12207472  0.61164596
  C  4.98029016  0.56973673  1.84460795
  C  4.91163705 -0.30471295 -0.46546712
  C -0.16874080  1.40395298  0.60862455
  C  0.58653054  1.51456801 -0.74248154
  N  1.52924693  2.47308034 -0.76405332
  C  2.38326276  2.68975982 -1.90740599
  O  0.31825365  0.79971202 -1.68114954
  C -0.33676292  2.73601351  1.15982719
  N -0.47550744  3.78340122  1.59862052
  O -1.44223656  0.84211098  0.35535784
  C -1.67306442 -0.30778367  1.18718456
  C -2.46131024  0.33312041  2.35280042
  C -3.85728668  0.73076192  1.97531965
  O -1.96166936  0.62677311  3.41081488
  C -2.51530255 -1.31738397  0.44639474
  C -2.67720513 -1.24901342 -0.92939425
  C -3.43884908 -2.20040839 -1.58530848
  C -4.04071070 -3.22468509 -0.87565569
  C -3.88184231 -3.29595653  0.49883331
  C -3.12498875 -2.34550224  1.15894303
  H  1.28683605 -2.01830248  0.59339307
  H -0.34699244 -2.61058120  0.30165472
  H  0.22316390 -1.18625988 -0.56051349
  H -0.67852035 -2.60148380  2.70960213
  H  0.87181846 -1.84316177  3.06029182
  H -0.61484994 -1.11259620  3.66513307
  H  0.23687389  0.90081944  2.65160045
  H  2.48196221  0.69424160  2.58582760
  H  2.36087596 -0.12342829 -0.35306950
  H  6.03534261  0.71588251  1.63001794
  H  4.56889813  1.50097442  2.22750965
  H  4.89150090 -0.18626370  2.62518939
  H  5.98737066 -0.33403546 -0.49665646
  H  4.39851157 -0.64148991 -1.34949153
  H  1.70231924  3.02809986  0.05974214
  H  2.01115367  2.06938745 -2.72072553
  H  2.35419122  3.73766270 -2.20534050
  H  3.41237646  2.40524807 -1.67705249
  H -3.83589746  1.23303368  1.01056449
  H -4.48363553 -0.15301275  1.87439363
  H -4.26663143  1.38871378  2.73787312
  H -2.19905699 -0.45265519 -1.47785891
  H -3.55746598 -2.14222985 -2.65705325
  H -4.63309999 -3.96714954 -1.38968293
  H -4.35079560 -4.09178318  1.05870769
  H -3.00854763 -2.39665196  2.23221228
