39
opt_min/./Product_806_opt.xyz
  C  2.65004905  0.91561049 -2.73699034
  N  2.14480652  0.58894916 -1.42632841
  C  1.12944792  1.26193054 -0.86412455
  O  0.50452879  2.15036270 -1.40348197
  C  0.78730768  0.77897443  0.55356288
  C -0.67905887  0.30066431  0.70880526
  C -1.58565705  0.83545003 -0.27229339
  N -2.38996223  1.25115973 -0.97296771
  C -1.06343447  1.08901210  2.03958484
  C -0.16931502  0.60834769  3.16102171
  C  1.01179001  1.16563011  2.93076831
  C  0.82896554  1.93445560  1.63799606
  O -0.51801859  2.34734680  1.71532627
  C -0.56337167 -1.23280019  0.77072886
  C -0.78522057 -1.99952393 -0.58195083
  N -1.90680256 -1.77411993 -1.27481629
  C -2.15117404 -2.43529360 -2.54095990
  O  0.05550996 -2.81297280 -0.91324082
  C -1.49614203 -1.85623480  1.83705584
  C -2.97672986 -1.73118543  1.59097725
  O -1.04734095 -2.39492674  2.80838135
  N  0.81450181 -1.48230816  1.17685111
  O  1.60367063 -0.29882365  0.95879004
  H  3.44724674  1.66042842 -2.67712230
  H  1.82972532  1.33117985 -3.32086394
  H  3.03026403  0.01630813 -3.21607061
  H  2.63561994 -0.09480226 -0.86868092
  H -2.12922687  1.15793846  2.23907644
  H -0.47399246 -0.07130387  3.92961239
  H  1.93856519  1.06106052  3.45489652
  H  1.48854299  2.76249004  1.40426515
  H -2.51293028 -1.00078988 -1.05006558
  H -2.46497380 -1.70380644 -3.28269361
  H -1.23060267 -2.91857184 -2.86262120
  H -2.92806430 -3.19344881 -2.42654286
  H -3.50265860 -2.21574355  2.40984468
  H -3.25589643 -2.20917906  0.65638143
  H -3.27665640 -0.68595893  1.54238839
  H  1.19933656 -2.19004681  0.53711689
