44
opt_min/./Product_1460_opt.xyz
  C  1.54741019 -1.21500977  2.46058223
  C  0.90416885 -2.01199135  1.36258438
  O  0.56889060 -3.15484639  1.52959055
  C  0.75982282 -1.41546603 -0.05374207
  C  1.74125758 -0.31794451 -0.59575135
  C  2.74436159  0.35050395  0.33757395
  C  2.40882351  1.75080058  0.78397292
  O  3.77309747 -0.19444144  0.64210257
  C  2.47353546 -1.13970010 -1.73586725
  C  3.29410131 -2.21091497 -1.05715827
  C  2.41135636 -3.11878106 -0.66444989
  C  1.06752197 -2.56834160 -1.09750062
  O  1.38983423 -1.86264015 -2.27245400
  N  0.85007076  0.66921870 -1.19886406
  C  1.29040362  1.59917321 -2.01371610
  N  1.66806495  2.51105474 -2.60343573
  N -0.39905858  0.01354639 -1.47201802
  C -0.63258006 -0.77183678 -0.28962011
  C -1.09380810 -0.01586382  0.99015738
  N -1.47484908  1.25858737  0.81605493
  C -2.01751274  2.05608842  1.89079935
  O -1.12190320 -0.58869805  2.05784453
  C -1.85004669 -1.67815404 -0.52767948
  O -2.82583150 -1.25855287 -1.09407673
  O -1.71939999 -2.85752388  0.02938755
  C -2.83461213 -3.74412248 -0.00354394
  H  2.59335421 -1.51576233  2.52331575
  H  1.48502639 -0.14499654  2.31024260
  H  1.05802389 -1.47703924  3.39532551
  H  1.34579864  1.87723414  0.97307888
  H  2.69381092  2.43963605 -0.01166817
  H  2.98997065  1.99518844  1.66932903
  H  2.96064241 -0.51206915 -2.47850316
  H  4.35594170 -2.16959332 -0.93377561
  H  2.54297181 -4.03152634 -0.12193570
  H  0.25794096 -3.27057038 -1.25026768
  H -1.12808365  0.65784876 -1.75893838
  H -1.44231751  1.68504779 -0.09671524
  H -1.50541908  3.01701130  1.94067717
  H -1.86885454  1.50724539  2.81908625
  H -3.08603980  2.22238710  1.74341026
  H -2.69344661 -4.46431570 -0.81055694
  H -2.84847544 -4.25533204  0.95634629
  H -3.75662115 -3.18364145 -0.16339440
