49
opt_min/./Product_5154_opt.xyz
  C -4.25718200  0.68632300 -1.06151700
  C -2.86177440  0.52176714 -0.53671704
  C -2.09456687  1.80613278 -0.39774312
  C -2.37826289 -0.68573597 -0.27330131
  C -1.01005961 -1.03039453  0.24393540
  C  0.18559736 -0.73287901 -0.69445747
  C  0.42199857 -1.75329741 -1.77583569
  C -0.82948392 -2.31509245 -2.38693981
  C  1.60830898 -2.07653166 -2.25904802
  C  1.32249287 -0.41929789  0.33578683
  C  2.01015750 -1.66902104  0.92657752
  C  3.00791956 -1.34736163  2.01065871
  O  1.70491384 -2.78903053  0.62241323
  C  2.31514635  0.59657888 -0.19162720
  C  1.92608262  1.93161189 -0.22480797
  C  2.76609481  2.90543918 -0.73453848
  C  4.01102673  2.55532699 -1.22665505
  C  4.41006506  1.23187629 -1.18941994
  C  3.57265696  0.25888293 -0.67116621
  N  0.62859143  0.08211509  1.50454837
  C -0.59351129 -0.26503329  1.47081197
  C -1.50901431  0.00384510  2.61547310
  C -0.89636186  0.79936824  3.73216391
  O -2.63850762 -0.42183014  2.63743512
  H -4.78800538 -0.26344657 -1.08615741
  H -4.23301310  1.09594915 -2.07545978
  H -4.81779753  1.38511206 -0.44214357
  H -1.56314017  2.03064222 -1.32764577
  H -1.36458686  1.73889121  0.40546404
  H -2.77444229  2.62859694 -0.18271669
  H -3.03674917 -1.53466830 -0.41406066
  H -1.01227584 -2.09039894  0.52552717
  H -0.02880017  0.22021620 -1.20159798
  H -0.59465743 -2.86339993 -3.29767413
  H -1.32157554 -2.99711303 -1.69508450
  H -1.53588905 -1.51807907 -2.61568050
  H  2.52946722 -1.69017951 -1.87608982
  H  1.69721197 -2.78163924 -3.07190036
  H  2.94531720 -2.11050136  2.78562736
  H  2.82323451 -0.36156598  2.42878723
  H  4.01567813 -1.38098727  1.59858984
  H  0.95919211  2.20810832  0.16821035
  H  2.44698862  3.93764157 -0.74857529
  H  4.66705381  3.31019035 -1.63313422
  H  5.38171914  0.94870569 -1.56662942
  H  3.91112662 -0.76619329 -0.64831643
  H -1.66555889  1.11713490  4.43189132
  H -0.35670635  1.65359391  3.33220488
  H -0.17473768  0.16629977  4.24889886
