28
opt_min/./Product_3459_opt.xyz
  C -0.92361298 -2.08916406 -0.75236086
  C -0.59602972 -0.66497507 -0.33794798
  C -1.80878850  0.19405001  0.05116732
  C -2.65475923  0.69480540 -1.11132179
  C -1.09449319  1.30364883  0.87043354
  C -2.00400185  1.94569595  1.80671652
  N -2.73170809  2.42347751  2.54397954
  C -0.51906867  2.32387217 -0.00338249
  N -0.01284429  3.08084011 -0.69363336
  O -0.03345275  0.65400426  1.56440187
  C  0.24229288 -0.60470213  0.94644332
  C  1.77147150 -0.72777669  0.79690223
  N  2.31300818  0.09487728 -0.11858376
  C  3.73126506  0.10730595 -0.39645356
  O  2.40638169 -1.49632002  1.48096813
  H -0.00694370 -2.66951704 -0.82608832
  H -1.41902030 -2.10625611 -1.72007650
  H -1.57330995 -2.56682699 -0.02211105
  H -0.07405104 -0.16177070 -1.16121528
  H -2.42946862 -0.36757078  0.75873180
  H -2.24816942  1.61056046 -1.53783418
  H -2.68461684 -0.05703299 -1.89651617
  H -3.67386625  0.89112430 -0.78810167
  H -0.07384747 -1.40439497  1.63230996
  H  1.73873252  0.75626214 -0.61650394
  H  4.25007804 -0.30863642  0.46586292
  H  4.06689848  1.12555074 -0.58029700
  H  3.95354232 -0.51022074 -1.27159816
