50
opt_min/./Product_1554_opt.xyz
  C -0.55436300 -1.96512400  3.75819400
  N -0.47553873 -1.74296664  2.33372129
  C -1.38740693 -0.99655541  1.69446010
  O -2.39784202 -0.55738021  2.20313527
  C -1.10996595 -0.78798966  0.18936094
  C -0.40247594  0.56225175 -0.15271726
  C -0.21883606  1.48409755  1.03256579
  O  0.06766889  1.11947010  2.14568931
  O -0.36979478  2.76912033  0.70777298
  C -0.19319951  3.70327469  1.76278397
  C -1.36545465  1.16699025 -1.19612034
  C -1.44225145  0.31155324 -2.47093044
  C -2.27171220 -0.91438550 -2.04606130
  C -2.47176296 -0.67439826 -0.54638044
  C -2.70233796  0.83534807 -0.52372421
  C  1.02279259  0.08668545 -0.65194544
  C  1.95045195  0.03970846  0.58702430
  O  2.59015568  1.18048385  0.77980325
  C  3.41301600  1.28278889  1.93984972
  O  2.03780627 -0.92645049  1.29803941
  C  1.66087093  0.90869980 -1.77382000
  N  0.86092875 -1.30134690 -0.99581584
  C -0.18703036 -1.77904557 -0.45584681
  C -0.51322957 -3.23216940 -0.51939513
  C  0.46362434 -4.07147942 -1.29179573
  O -1.48269462 -3.68003591  0.04439149
  H  0.35871361 -1.62236794  4.24328257
  H -1.40476224 -1.40581209  4.14199694
  H -0.69932279 -3.02769554  3.96278573
  H  0.42726741 -1.88879727  1.90283459
  H  0.86712467  3.79889620  2.00591601
  H -0.73218502  3.37367962  2.65286551
  H -0.58467114  4.64958810  1.39962189
  H -1.18056987  2.22174422 -1.38503430
  H -1.94123751  0.87553163 -3.26022268
  H -0.46491848  0.01839789 -2.84563498
  H -1.76584952 -1.85654240 -2.25466625
  H -3.23876862 -0.93727588 -2.54659609
  H -3.24002124 -1.29399088 -0.09211930
  H -3.56299849  1.13471738 -1.11816773
  H -2.79720591  1.23317325  0.48351572
  H  3.32716088  0.37354136  2.53378322
  H  4.44251205  1.43259462  1.61545280
  H  3.07056779  2.14089130  2.51553856
  H  1.89492288  0.25054344 -2.60722001
  H  2.58236026  1.37624414 -1.43909655
  H  0.99321810  1.69154708 -2.11826209
  H  0.99728182 -3.47067577 -2.01909419
  H  1.18433500 -4.46905133 -0.57737399
  H -0.04352672 -4.91190840 -1.75655170
