64
opt_min/./Product_2656_opt.xyz
  C  2.44632619 -2.44461279 -0.00700088
  C  2.01281404 -1.34505007  0.99615379
  C  3.17251492 -0.85422315  1.71045323
  N  4.06669830 -0.51310844  2.33791178
  C  1.50309195 -0.15738281  0.10777091
  C  0.32997672  0.38932034 -0.29108307
  C -1.08428047  0.09002179  0.23382590
  C -1.76869658 -1.02216099 -0.54072288
  C -1.16014593 -1.69564187 -1.59006116
  C -1.81127370 -2.74258658 -2.22150021
  C -3.07012370 -3.13454694 -1.80592673
  C -3.67976160 -2.47380782 -0.75121452
  C -3.03232048 -1.42750793 -0.12315891
  C -1.98417834  1.30256664  0.31845896
  C -2.83167093  1.62387052 -0.73931365
  C -3.66962434  2.72385284 -0.66200116
  C -3.68306426  3.51106446  0.47654732
  C -2.85626011  3.18919939  1.53910336
  C -2.01438164  2.09410648  1.46087771
  C -0.59592141 -0.49827602  1.56345564
  C -1.06567545 -1.30102257  2.75594912
  C  0.34353967 -1.70651532  3.26438068
  C  1.27562067 -2.22425161  2.13568871
  C  0.57374013  1.51218063 -1.30309209
  C  0.31326071  2.92763703 -0.74974338
  C -0.22470863  1.30852791 -2.49568887
  N -0.80671347  1.11959359 -3.46109853
  N  1.99375409  1.41594137 -1.63393162
  C  2.63853274  0.68488429 -0.55421606
  C  3.86840751 -0.01076340 -1.19167843
  N  4.99549391  0.00007963 -0.47599074
  C  6.22982718 -0.55267083 -0.98428837
  O  3.76810819 -0.48122431 -2.30892339
  C  3.04945332  1.66056570  0.44599888
  N  3.32112468  2.45452684  1.22302693
  H  2.97455404 -3.24399818  0.50889435
  H  1.55582672 -2.86108633 -0.47683873
  H  3.09101185 -2.07174995 -0.79297796
  H -0.17790161 -1.40462721 -1.93327376
  H -1.32792905 -3.24947117 -3.04376667
  H -3.57585658 -3.95054294 -2.30015890
  H -4.66188888 -2.77535706 -0.41788751
  H -3.50798407 -0.90904698  0.69698020
  H -2.84113744  1.01207753 -1.62787213
  H -4.31014858  2.96275487 -1.49775905
  H -4.33694433  4.36851602  0.53777324
  H -2.86798927  3.79127286  2.43579031
  H -1.37904565  1.86192262  2.30215882
  H -0.02508468 -1.27293039  1.08855679
  H  0.06324229  0.25906627  1.99470525
  H -1.64133568 -2.18146836  2.46911129
  H -1.61841284 -0.74830502  3.51402194
  H  0.27015749 -2.51070431  3.99920188
  H  0.80644732 -0.85143892  3.76068493
  H  2.11562046 -2.71352566  2.64115903
  H  0.72717980 -3.01843435  1.61898798
  H  0.89062943  3.62810100 -1.34972217
  H  0.65129323  2.99628091  0.28067123
  H -0.73594176  3.19696265 -0.80692285
  H  2.16850903  0.93198586 -2.51353926
  H  5.02304827  0.42559852  0.43958327
  H  6.71541501 -1.13599648 -0.20357866
  H  6.90065074  0.24315906 -1.31348468
  H  5.99671671 -1.19079239 -1.83538323
