33
opt_min/./Product_1109_opt.xyz
  N  0.27536969 -0.51911679  2.82938751
  C -0.00321497 -0.23482363  1.75872141
  C -0.28221367  0.09913544  0.38171350
  C -1.42435500  1.12727201  0.12816441
 Br -2.07271618  2.05589043  1.76615898
  C -2.49993251  0.29688178 -0.58656504
  C -3.02505130 -0.77720145  0.37447232
  C -1.88277916 -1.81205280  0.42045686
  C -0.78168204 -1.14258773 -0.40842664
  C -1.61022099 -0.51598676 -1.53190231
  N -0.81928095  2.09962436 -0.72854123
  C -1.35310514  3.22645281 -1.13382106
  N -1.85539749  4.19846213 -1.47490610
  O  0.45031847  1.68228151 -1.21371197
  C  0.96247216  0.82746252 -0.22147765
  C  1.96876530 -0.17862984 -0.86791716
  N  2.70017191 -0.82731547  0.05309356
  C  3.71173841 -1.78334641 -0.35177980
  O  2.00560659 -0.36967208 -2.05336054
  C  1.64123518  1.60727038  0.80917425
  N  2.16335018  2.26004365  1.58773868
  H -3.27206141  0.92075586 -1.03251191
  H -3.94849166 -1.21020955 -0.00814149
  H -3.23706069 -0.35953900  1.35831833
  H -1.57401168 -2.05166245  1.43743902
  H -2.17713273 -2.74476377 -0.06325062
  H  0.02945969 -1.80111353 -0.71145670
  H -1.02976938  0.07967326 -2.23455075
  H -2.17016326 -1.26266380 -2.09268404
  H  2.66745539 -0.56580357  1.02691469
  H  3.98866617 -2.39144865  0.50483001
  H  4.59706015 -1.27193147 -0.73578102
  H  3.30623101 -2.41324875 -1.14330393
