41
opt_min/./Product_1246_opt.xyz
  C  0.59427662  2.35621289  0.78427053
  C -0.52608991  1.48953639  0.14108819
  C -0.83220585  2.01997203 -1.28734045
  C  0.03447917  0.06815650 -0.03661979
  C -0.33974194 -1.28719789  0.07476175
  N  0.81031483 -2.02025583 -0.13723189
  C  1.11731161 -3.41753107  0.03127020
  N  1.82805955 -1.26253617 -0.45167479
  C  1.40198190 -0.01349376 -0.43616201
  C  2.37184336  0.97526782 -0.96316911
  O  2.12343716  1.87167023 -1.73028036
  O  3.59781503  0.68259430 -0.52411203
  C  4.67893000  1.44942748 -1.03354764
  C -1.56091350 -2.12510579  0.34230484
 Br -1.50969665 -2.71305247  2.31537858
  C -1.51549435 -3.38820406 -0.36542160
  N -1.62825739 -4.37335144 -0.93568152
  C -2.98490903 -1.63355260 -0.01503982
  C -3.08454550 -0.12678322 -0.07845923
  C -2.64547948  0.48459364  1.24653817
  C -1.77106307  1.70243713  1.04773919
  H  1.35358457  1.74562226  1.26835733
  H  1.08964443  2.97862932  0.04696333
  H  0.18378552  3.02051221  1.53968349
  H -0.41679613  1.36933038 -2.05256057
  H -0.38922197  3.00050464 -1.43140700
  H -1.90139532  2.11587555 -1.46204671
  H  2.19200945 -3.46233477  0.20512544
  H  0.88648963 -3.99628820 -0.86401854
  H  0.60028065 -3.85042579  0.88612090
  H  5.22985076  0.84906722 -1.75941853
  H  4.30345642  2.35472671 -1.51539626
  H  5.32519043  1.70294234 -0.19443317
  H -3.68946638 -2.04425624  0.70994763
  H -3.24542132 -2.04856841 -0.99382511
  H -2.42590094  0.20343327 -0.87701406
  H -4.09902208  0.17545659 -0.34053524
  H -2.04522085 -0.22969959  1.80297558
  H -3.50652257  0.72569154  1.87158469
  H -2.34976493  2.52649622  0.62799220
  H -1.44918609  2.01242261  2.04319956
