60
opt_min/./Product_5870_opt.xyz
  C -0.48877615  2.38750628  0.24488283
  C -0.34420583  0.89113008 -0.08674764
  C -0.26659813  0.63579351 -1.60576087
  C  0.86675136  0.26960173  0.64363873
  C  2.24866992  0.71012457  0.29184535
  C  2.61146824  1.70939229 -0.51247226
  C  3.99803088  2.11787463 -0.73435393
  C  4.20693219  3.55503066 -1.12896711
  C  5.02970612  1.28510138 -0.60320415
  C  0.56924871 -1.25626633  0.61433288
  C  1.24474400 -1.93549955  1.81743160
  O  2.34981972 -1.66287139  2.21626039
  O  0.47793230 -2.89735912  2.31150048
  C  0.96637213 -3.63015187  3.42715813
  C  1.05092941 -2.10640055 -0.55820305
  C  2.10980588 -1.76219800 -1.38818058
  C  2.49983989 -2.59599040 -2.42290629
  C  1.85414451 -3.79974642 -2.63617412
  C  0.82461737 -4.17356106 -1.78960550
  C  0.43348348 -3.34038623 -0.75870248
  N -0.87339421 -1.28656830  0.78149711
  C -1.47749417  0.00388124  0.53210507
  C -2.68798838 -0.18048434 -0.40010464
  N -3.30023719  0.94588131 -0.79492895
  C -4.46753286  0.91075985 -1.64443023
  O -3.01695515 -1.28579170 -0.78329445
  C -1.91277261  0.52107589  1.91108740
  O -1.29522350  0.31814761  2.91900007
  O -3.06372484  1.21411855  1.87721264
  C -3.58883089  1.67229953  3.11990135
  H -0.62973802  2.98341507 -0.65466657
  H  0.40471414  2.75125320  0.74669412
  H -1.32849616  2.58561071  0.90592808
  H  0.74333686  0.37036107 -1.90070043
  H -0.56453303  1.51423271 -2.17360535
  H -0.91043496 -0.18623743 -1.90827037
  H  0.75229016  0.52997312  1.70752792
  H  3.00268548  0.18324409  0.85920236
  H  1.87005110  2.29102588 -1.04033305
  H  5.03697532  3.65125831 -1.82530692
  H  3.31251445  3.96929879 -1.58850044
  H  4.43908745  4.15207631 -0.24661064
  H  6.04005851  1.62118273 -0.76790666
  H  4.90749029  0.25241212 -0.32368910
  H  0.28235514 -3.47656308  4.26178655
  H  1.96735492 -3.28444669  3.69177206
  H  0.99227099 -4.68599360  3.15563893
  H  2.64342114 -0.83945979 -1.23214972
  H  3.31808997 -2.29824051 -3.06228934
  H  2.15862896 -4.44736606 -3.44512681
  H  0.32655694 -5.12208307 -1.92677888
  H -0.34893369 -3.66611083 -0.08989222
  H -1.36609512 -2.00566987  0.26237504
  H -3.01149842  1.82970811 -0.41353563
  H -4.34382303  0.11114228 -2.37431117
  H -5.37103663  0.70725462 -1.06389811
  H -4.57438309  1.86382413 -2.15632861
  H -2.80392525  1.66963817  3.87809477
  H -4.39938619  1.01109090  3.42821047
  H -3.96906666  2.68021945  2.96219095
