43
opt_min/./Product_622_opt.xyz
  C -2.71170200  2.95474600  2.07298800
  O -2.05870114  2.72940887  0.84226564
  C -2.57062643  1.74950538  0.08523025
  C -3.63117894  0.94808266  0.20345256
  C -3.57678102  0.08221437 -1.03235340
  C -2.39677342 -0.92575417 -0.84650188
  C -1.20253758 -0.01417981 -1.14478466
  C -1.91072250  1.37421718 -1.23245420
  O -3.03916004  0.97928556 -1.99965246
  C -0.09900440 -0.34676700 -0.12267638
  C  0.96963714 -1.23565526 -0.79141850
  C  0.55183265  0.90810200  0.43234147
  C  1.43570658  1.64448979 -0.34633066
  C  2.00769385  2.80478931  0.14457894
  C  1.70717554  3.24147247  1.42267705
  C  0.83298713  2.51024275  2.20583630
  C  0.25495474  1.35530116  1.71153164
  N -0.78730880 -1.07213410  0.94946623
  C -2.14164692 -1.44654069  0.58551568
  C -2.55892222 -2.90333983  0.70603739
  C -1.51740168 -3.90667863  1.13603034
  O -3.69571181 -3.22609556  0.46272843
  H -2.17854805  3.77398534  2.55215208
  H -3.75678577  3.23753286  1.91434240
  H -2.67184788  2.06390028  2.70607963
  H -4.36925242  0.86472737  0.97556559
  H -4.50840795 -0.35287413 -1.38124065
  H -2.47634166 -1.76409329 -1.53993056
  H -0.83397944 -0.16202403 -2.16635001
  H -1.32585381  2.16568990 -1.69190452
  H  1.16951390 -0.92976884 -1.81365230
  H  0.63099224 -2.27236017 -0.81628550
  H  1.90101485 -1.19330151 -0.22677384
  H  1.67719831  1.32040510 -1.34762237
  H  2.69117277  3.36771232 -0.47512139
  H  2.15824549  4.14568315  1.80640794
  H  0.59748563  2.84210384  3.20727900
  H -0.40968775  0.76607279  2.32306350
  H -0.22471253 -1.84970244  1.26530722
  H -2.82267057 -0.90072600  1.26209100
  H -1.11777040 -3.64118369  2.11280965
  H -1.96914556 -4.89469286  1.18335395
  H -0.69975654 -3.92414379  0.41632990
