41
opt_min/./Product_1951_opt.xyz
  N  0.75331938 -0.33570493 -3.22626992
  C  0.57320747 -0.21207123 -2.10411397
  C  0.43410366  0.09580848 -0.70412459
  C  1.74528441  0.00300943  0.12520824
 Br  3.34228946 -0.59518799 -0.80395849
  C  1.89421550  1.49159943  0.62236948
  C  2.29625707  2.27749547 -0.60501135
  C  1.19282161  2.34761555 -1.33720781
  C  0.12950613  1.63152313 -0.53099597
  O  0.54389058  1.85165448  0.80465350
  C  1.36135434 -0.87858497  1.27203448
  C  2.28403192 -1.28901061  2.36536045
  O  3.49717701 -0.76720187  2.18697871
  C  4.49366767 -1.12564109  3.13603164
  O  1.96898432 -2.00505712  3.27662717
  N  0.14428561 -1.22643824  1.29003898
  C -0.55261378 -0.81921107  0.11542406
  C -0.98773515 -2.11311252 -0.62658506
  C -1.52372890 -3.17457531  0.28024765
  O -0.95267215 -2.18554227 -1.82140636
  C -1.88552671 -0.16749233  0.42769431
  C -2.72604962  0.20577327 -0.61623293
  C -3.94828884  0.79021981 -0.33923344
  C -4.33908743  0.99886024  0.97224995
  C -3.50423584  0.61836066  2.00945007
  C -2.27981085  0.03312780  1.74290724
  H  2.47678958  1.60763180  1.53154691
  H  3.28944983  2.62364632 -0.80500204
  H  1.03885525  2.75899995 -2.31360939
  H -0.90087430  1.92506013 -0.69643640
  H  4.36135793 -0.53337476  4.04512534
  H  4.41160976 -2.18487415  3.38619467
  H  5.45015445 -0.89844257  2.67173783
  H -0.91955161 -3.23926149  1.18124386
  H -1.55053925 -4.12441360 -0.25025028
  H -2.53836707 -2.90287523  0.57097383
  H -2.42731325  0.02970122 -1.64119097
  H -4.59749745  1.07942997 -1.15275575
  H -5.29444973  1.45561293  1.18467772
  H -3.80706204  0.77703713  3.03313094
  H -1.62105314 -0.26685798  2.54194784
