31
opt_min/./Product_3836_opt.xyz
  C  1.14174900  0.45521100 -1.47253000
  C  1.14157771 -0.56662515 -0.33787515
  C  1.06402189 -1.98180284 -0.90401455
  C  2.32377509 -0.37096428  0.67632950
  C  3.21539457  0.80217377  0.30927682
  O  3.15796166  1.89610383  0.77551307
  N  1.63384597 -0.07778203  1.95261667
  C  0.98157390 -1.34255405  2.26467152
  O  1.40560771 -2.17465938  2.99194266
  O -0.13147400 -1.41154905  1.52261166
  C -0.04093413 -0.24967652  0.66503297
  C -1.35411009  0.16317000  0.09123068
  C -2.27638960 -0.79282761 -0.31338298
  C -3.47752279 -0.39254580 -0.87112625
  C -3.76035118  0.95456194 -1.02276309
  C -2.84589754  1.90616012 -0.60204509
  C -1.64262157  1.51589565 -0.04365553
  O  0.53319647  0.69368703  1.52405066
  H  0.25846763  0.30842337 -2.09130133
  H  2.02411407  0.33140726 -2.09478691
  H  1.12362335  1.47157751 -1.08661683
  H  1.40334490 -2.72714832 -0.18842302
  H  0.03909034 -2.21776132 -1.17838823
  H  1.68138812 -2.05542977 -1.79588689
  H  2.95543338 -1.25278490  0.79955599
  H  3.95233745  0.53094573 -0.47401894
  H -2.06390096 -1.84056656 -0.16552705
  H -4.19458863 -1.13630073 -1.18413567
  H -4.69842697  1.26178318 -1.45995081
  H -3.07163059  2.95633731 -0.70485886
  H -0.92743803  2.24554426  0.30187884
