57
opt_min/./Product_2566_opt.xyz
  C  2.06224098 -2.98060084 -0.23227442
  O  1.63994540 -1.64250465 -0.42515962
  C  0.27919700 -1.28118916 -0.36974774
  O -0.36956503 -1.47999787 -1.61072423
  C -0.24091286 -2.70876223 -2.28844138
  C  0.25561398  0.22904070 -0.26723155
  C -0.80593598  1.03439909 -0.30534340
  C -2.31665908  0.90217069 -0.30149163
  O -2.71230755  2.19786880 -0.75431176
  C -4.06305688  2.60848634 -0.86312887
  C -2.93599405 -0.12271974 -1.28065179
  F -2.55998438  0.08856565 -2.53879057
  F -4.28392862 -0.00857011 -1.25869087
  F -2.73895525 -1.41338673 -1.00923260
  C -2.81007276  0.63819329  1.14051613
  C -2.50914610 -0.72065134  1.77209053
  C -1.03432611 -1.10462556  1.94129795
  C -0.43848413 -1.97559241  0.82525550
  C -0.30094756  2.49285056 -0.24970230
  C -0.39034442  3.06493792 -1.59506989
  N -0.43205271  3.50672544 -2.64655726
  C -1.05598836  3.35259038  0.64461466
  N -1.55658329  4.05361566  1.39535410
  N  1.09419699  2.40010506  0.15986119
  C  1.53905945  1.05715571 -0.18838118
  C  2.46463773  0.59465022  0.97396307
  N  3.55924619 -0.08816862  0.63517187
  C  4.46810732 -0.58244672  1.64402965
  O  2.19739969  0.94755050  2.10508383
  C  2.32119166  1.09389172 -1.51583855
  C  2.97326893  2.41639629 -1.79292724
  O  2.45102050  0.13582278 -2.23037363
  H  2.85959734 -3.15913979 -0.95537423
  H  1.27512345 -3.71625270 -0.38917118
  H  2.46750817 -3.10088401  0.77940635
  H  0.78969715 -2.87927469 -2.61048599
  H -0.87509648 -2.60065187 -3.16568461
  H -0.59967302 -3.55267865 -1.68851127
  H -4.00694991  3.69612920 -0.86769498
  H -4.67532405  2.28752641 -0.02017044
  H -4.51303645  2.26850254 -1.79804412
  H -2.38005748  1.42568370  1.76447487
  H -3.89452276  0.76601141  1.15048552
  H -3.02852154 -1.51297529  1.23476738
  H -2.95605809 -0.67280386  2.76817894
  H -0.42157211 -0.21942359  2.11552543
  H -0.97467356 -1.70735988  2.85042681
  H -1.21941152 -2.61779779  0.41674651
  H  0.30184600 -2.61615033  1.30213454
  H  1.16065463  2.50491757  1.17556023
  H  3.63137340 -0.45450951 -0.30102804
  H  5.41211546 -0.84788163  1.17601420
  H  4.62921069  0.20093761  2.38362272
  H  4.05934276 -1.45558858  2.15850214
  H  3.58611684  2.33926126 -2.68648822
  H  3.57864393  2.70914693 -0.93844628
  H  2.21355824  3.18057440 -1.93463551
