50
opt_min/./Product_2421_opt.xyz
  C  6.10675500  1.75381900 -0.61154100
  N  5.13114432  0.69751708 -0.49069959
  C  3.94515088  0.88365345  0.12465774
  O  3.58047357  1.94793670  0.58772191
  C  3.07959900 -0.31135899  0.20945817
  C  3.02927653 -1.51554562 -0.36872541
 Br  4.03464284 -2.27100443 -1.74881030
  C  1.76386529 -2.18287393  0.15051804
  C  0.61269200 -1.44577428 -0.59877701
  C  0.67228193 -0.06173677  0.09395756
  C  1.83611617 -0.30934930  1.09848524
  O  1.69473146 -1.66226478  1.44941180
  C -0.69627881  0.07636661  0.78950624
  C -0.59888955  0.88095704  2.10397021
  N -0.23564023  2.16390594  1.89497699
  C -0.07207011  3.08856700  2.99473257
  O -0.84653788  0.42349194  3.19159350
  C -1.78139476  0.72735564 -0.06278152
  C -3.03882552  0.85328251  0.52611934
  C -4.10184893  1.38987224 -0.17474360
  C -3.92733428  1.80713225 -1.48357739
  C -2.68661129  1.68256807 -2.08046124
  C -1.61920961  1.14763132 -1.37596275
  N -1.00382275 -1.31787646  1.04729602
  C -0.77745401 -1.99347964 -0.20385418
  C -0.85187819 -3.50912485 -0.09612713
  C -0.67057625 -4.22332393 -1.41704433
  O -1.09140965 -4.08339455  0.92929950
  H  6.95377323  1.58090458  0.05640055
  H  5.61978605  2.68762146 -0.33575081
  H  6.46727750  1.81274577 -1.63866579
  H  5.39706215 -0.21576852 -0.82210705
  H  1.74288649 -3.26854793  0.13756314
  H  0.76685687 -1.42566876 -1.67800301
  H  0.91323152  0.77129804 -0.56306636
  H  1.87359560  0.33284604  1.97076622
  H -0.03289494  2.48830800  0.96484648
  H  0.35619508  2.55659933  3.84378670
  H -1.03698216  3.50188068  3.30010534
  H  0.59114768  3.89492965  2.69339931
  H -3.17412940  0.53444477  1.54992586
  H -5.06614227  1.48235748  0.30160521
  H -4.75403352  2.22683313 -2.03666484
  H -2.54365385  2.00088491 -3.10273916
  H -0.66705886  1.05464009 -1.87718665
  H -1.89759937 -1.49736264  1.48096425
  H -1.49462569 -1.67750976 -0.99688494
  H -1.58674629 -4.11618319 -1.99578611
  H  0.14606207 -3.79841716 -1.99331920
  H -0.49416340 -5.28165616 -1.24070676
