33
opt_min/./Product_3802_opt.xyz
  C  0.06912800 -1.45939400 -1.27675400
  C -0.33498920 -0.70743255 -0.00743637
  C -0.31380599 -1.66986573  1.18108404
  C -1.68673124  0.04359258 -0.22459189
  C -2.84880578 -0.39076370  0.62454414
  O -3.45897201  0.28910154  1.39442235
  C -1.26579720  1.53950585 -0.05915369
  C -2.25231099  2.57984884 -0.52559897
  N  0.05680964  1.59288797 -0.63417792
  C  0.62355426  0.53956288  0.19020757
  C  2.10392786  0.27557195 -0.05143758
  N  2.73480903 -0.24153801  1.01856280
  C  4.16149700 -0.47766376  0.99715196
  O  2.60912555  0.45452129 -1.13926941
  C  0.20447081  1.11877522  1.54407117
  O  0.75965946  1.01484971  2.60347635
  O -0.95362458  1.72944458  1.33601179
  H  0.15809192 -0.78493856 -2.12703292
  H -0.66846951 -2.22470417 -1.51289741
  H  1.03793074 -1.93614393 -1.14185060
  H -0.18194989 -1.15412776  2.12866470
  H  0.50027890 -2.38119995  1.06246412
  H -1.24227579 -2.23331119  1.24206372
  H -2.01330240 -0.09753620 -1.26348556
  H -3.13732247 -1.44544715  0.43365440
  H -3.23452112  2.36402066 -0.11417736
  H -2.29774562  2.58756706 -1.61179524
  H -1.92843730  3.55444862 -0.17104159
  H  0.12036393  1.43657773 -1.63186388
  H  2.30463160 -0.12220037  1.92926463
  H  4.39055406 -1.35571419  1.59994923
  H  4.71321606  0.37940804  1.39124485
  H  4.45994083 -0.64469560 -0.03688024
