32
opt_min/./Product_3771_opt.xyz
  C -0.89760400  1.47538000 -1.77662500
  O -0.29858058  1.71292268 -2.81058764
  C -1.86341686  2.39545679 -1.20043590
  C -2.74602416  1.99789667 -0.27700014
  C -2.76431566  0.65760501  0.32930175
  O -3.42737032  0.46105282  1.32092016
  C -1.91478942 -0.42489486 -0.34056448
  C -0.67678847  0.15373018 -1.04520377
  N  0.30894778  0.24883123  0.02560322
  C  1.67425428  0.30318453 -0.18945516
  O  2.49422582  0.04797939  0.67249743
  N  2.03692252  0.67477419 -1.44536072
  C  3.43293533  0.73281788 -1.80920151
  N -0.35040029 -0.13018260  1.23568603
  C  0.48005958 -0.39253150  2.38387167
  C -1.21477637 -1.23438726  0.76986984
  C -2.10152488 -1.88289763  1.82544281
  H -1.87871281  3.39385589 -1.61673046
  H -3.48295304  2.67941159  0.12721224
  H -2.52143742 -1.01798453 -1.02578454
  H -0.31303152 -0.55765467 -1.80913957
  H  1.37521498  0.98580242 -2.13895235
  H  3.71317414 -0.12924212 -2.42150304
  H  3.63585983  1.64772380 -2.36632315
  H  4.02320554  0.72168489 -0.89338660
  H  1.02998503 -1.33691797  2.30702770
  H -0.17131094 -0.41673010  3.25710558
  H  1.19134279  0.41899310  2.50351631
  H -0.57826397 -2.01289094  0.30782000
  H -2.05329909 -1.33409817  2.75986512
  H -3.13714906 -1.89548233  1.50209324
  H -1.78360430 -2.90722196  2.00349807
