52
opt_min/./Product_2035_opt.xyz
  C  3.61756100 -2.24492000 -2.05472600
  N  2.84876949 -1.10214359 -1.62172800
  C  2.35255370 -1.01405930 -0.37557962
  O  2.55874478 -1.85628942  0.47638172
  C  1.52660071  0.23987981 -0.07473623
  C  0.37616396  0.59810753 -1.05277668
  F  0.37109336 -0.07914815 -2.24693354
  C  0.70263793  2.11516073 -1.33258465
  C  1.89374569  2.07624296 -2.26952146
  C  2.91773094  1.73815635 -1.49623533
  C  2.33561843  1.59264042 -0.10679534
  O  1.28310084  2.53047086 -0.12256135
  C -0.93198363  0.40492353 -0.25615155
  C -1.99644552  1.31371455 -0.87640592
  O -2.29911893  2.35611083 -0.10997838
  C -3.24686457  3.27812053 -0.63643391
  O -2.47300489  1.12177420 -1.96359757
  C -1.49536230 -1.01851545 -0.28305886
  C -2.81032880 -1.19207372  0.14350564
  C -3.37255124 -2.45251732  0.21616565
  C -2.63192195 -3.56519998 -0.14283600
  C -1.33179194 -3.40186023 -0.58099149
  C -0.76586867 -2.13903034 -0.65407321
  N -0.47533705  0.80348073  1.06686200
  C -1.38715836  0.73447339  2.18501793
  C  0.77848610  0.10143540  1.27811083
  C  1.55485648  0.64847550  2.47846979
  C  2.66630973 -0.23772392  2.97343813
  O  1.29934380  1.70594453  2.99084765
  H  3.85909616 -2.83755095 -1.17256149
  H  4.53650395 -1.91515194 -2.53956272
  H  3.04140446 -2.85940540 -2.75014481
  H  2.59486964 -0.42156087 -2.32037912
  H -0.13985794  2.73194095 -1.62042038
  H  1.83446488  2.23251484 -3.32773152
  H  3.94826343  1.57448391 -1.74164984
  H  2.99655292  1.75365856  0.73760415
  H -4.24896476  2.84309512 -0.60896316
  H -2.99908604  3.52762971 -1.66970862
  H -3.19689810  4.15553119  0.00380897
  H -3.40957127 -0.33220424  0.40479776
  H -4.39373368 -2.56059254  0.55195475
  H -3.06930182 -4.55129840 -0.08875907
  H -0.74255102 -4.25826270 -0.87359881
  H  0.25041969 -2.05518603 -1.00037786
  H -1.01342434  1.40326342  2.95661445
  H -2.36899320  1.07482619  1.87299912
  H -1.46971080 -0.28762804  2.58822520
  H  0.62225425 -0.98262284  1.45164798
  H  3.57116242 -0.00602098  2.41009101
  H  2.44721468 -1.28740261  2.81131107
  H  2.86168685 -0.02858592  4.02258793
