56
opt_min/./Product_2378_opt.xyz
  C -0.94498988 -1.35894996 -3.18944706
  C -1.73877990 -1.05327891 -1.94914853
  O -2.83834237 -0.56531108 -2.02950641
  C -1.16164844 -1.51424578 -0.61080063
  C -0.70129249 -0.49066566  0.49537621
  C -1.36228586  0.86412368  0.67956872
  C -0.72691152  1.80626502  1.49189208
  C -1.32035576  3.01965189  1.78197602
  C -2.58103241  3.31730276  1.29449974
  C -3.24330021  2.37128290  0.53638125
  C -2.65013820  1.15399655  0.24307119
  C -1.28414870 -1.28747547  1.75063407
  C -0.77599469 -2.70954903  1.86233924
  C -1.41582634 -3.40020568  0.92455105
  C -2.24390733 -2.35765787  0.20738613
  O -2.59892626 -1.49281833  1.25859754
  C  0.84887769 -0.48282807  0.27114424
  C  1.76095591  0.04229537  1.36552655
  C  1.85040318 -0.62153303  2.58409035
  C  2.71631847 -0.18187363  3.56920656
  C  3.51877724  0.92397199  3.35117844
  C  3.44993710  1.58215967  2.13582293
  C  2.58550769  1.14414580  1.14871475
  C  1.19993064  0.18819291 -1.06668433
  C  2.25638532 -0.33087371 -1.81480553
  C  2.61156585  0.21610583 -3.03431095
  C  1.91768649  1.30212544 -3.53802623
  C  0.88201496  1.84050242 -2.79675701
  C  0.53017236  1.29534991 -1.57339007
  N  1.01933757 -1.92901831  0.17665620
  N  0.05653873 -2.29165484 -0.81694469
  C  0.13839749 -3.42248169 -1.46005953
  N  0.26276062 -4.39371048 -2.06661555
  H  0.12039979 -1.19470971 -3.06927471
  H -1.10264039 -2.40585130 -3.45089830
  H -1.32742530 -0.74222673 -3.99965712
  H  0.24462551  1.59936022  1.90647322
  H -0.79296923  3.72944164  2.40288213
  H -3.04504407  4.26591371  1.52026129
  H -4.23960522  2.56904761  0.17049140
  H -3.21158891  0.43770795 -0.32702752
  H -1.29053675 -0.69671029  2.66237391
  H -0.06901099 -3.06389887  2.58453335
  H -1.36483083 -4.43918691  0.66824940
  H -3.10641664 -2.67403297 -0.37090731
  H  1.24087180 -1.48892229  2.75990062
  H  2.76487288 -0.71001305  4.51003404
  H  4.19445937  1.26789629  4.11960471
  H  4.07481119  2.44283055  1.94881293
  H  2.54302092  1.67843549  0.21214762
  H  2.83428942 -1.16785341 -1.44806845
  H  3.43312144 -0.21173988 -3.58913487
  H  2.18780896  1.72699298 -4.49270920
  H  0.33700025  2.69565324 -3.16680994
  H -0.27503104  1.74760276 -1.02081576
  H  1.94682981 -2.27073412 -0.05478557
