31
opt_min/./Product_164_opt.xyz
  C  0.76197200  0.70746200 -1.16311800
  C -0.36755046  0.78272667 -0.43545208
  C -1.00940638  2.04095078  0.07962167
  O -2.00755861  2.08436792  0.75440418
  N -0.34327392  3.16785107 -0.28945385
  C -0.79910576  4.46979895  0.13910772
  N -0.84836714 -0.49382409 -0.18414578
  C -1.88226230 -0.99308596  0.62333394
  N -1.65540567 -2.29474172  0.96093447
  C -2.58008651 -3.01104308  1.80565527
  O -2.86778973 -0.37898583  0.93309936
  N -0.00340174 -1.46109722 -0.82236139
  C  1.12793110 -0.73740172 -1.38464148
  C  2.43629643 -1.05396384 -0.64298944
  O  3.50675560 -0.62631360 -0.98184799
  O  2.22427139 -1.82039757  0.42003875
  C  3.37011593 -2.14075281  1.20361049
  H  1.39575969  1.48938241 -1.52777552
  H  0.51731261  3.12608092 -0.80623462
  H -0.70093533  5.18695461 -0.67484528
  H -0.22901740  4.82331330  1.00287136
  H -1.84583783  4.37689799  0.42736650
  H -0.73673158 -2.68475271  0.81254177
  H -2.98185873 -3.88504258  1.28800502
  H -2.09639823 -3.33414873  2.72913501
  H -3.39752423 -2.33085378  2.04416909
  H -0.54448183 -1.93100389 -1.54864120
  H  1.30255156 -0.95655631 -2.44568262
  H  3.78137775 -1.23577021  1.65492619
  H  3.03249680 -2.83244056  1.97117855
  H  4.13819878 -2.60092896  0.57883257
