49
opt_min/./Product_5281_opt.xyz
  C  0.49939000 -1.56741000 -1.20593900
  C -0.29670213 -2.80307671 -0.92111198
  C -1.31368748 -2.77532655 -0.05851481
  N -1.67605305 -1.67058449  0.65588695
  C -2.77583760 -1.72305013  1.58175209
  C -0.94087087 -0.45731409  0.53444529
  C  0.51246158 -0.65821427  0.03862877
  C  1.30687363 -1.36107029  1.14538417
  N  2.57087434 -1.72445442  0.82916179
  O  0.84831411 -1.57401304  2.24534108
  C  0.92708208  0.79186048 -0.35020550
  C  1.48138202  1.76775428  0.72491362
  C  1.62650614  1.35698442  2.16275015
  O  1.74822816  2.89499281  0.37810799
  C  1.95167821  0.75390552 -1.50108779
  C  3.40305789  0.82014485 -1.09827753
  O  1.61706071  0.70043110 -2.65658027
  N -0.33388487  1.41177185 -0.72686364
  C -0.38474068  2.47070636 -1.69744765
  C -1.51484065  0.63339627 -0.43525325
  C -2.51992062  1.44930949  0.40722354
  C -1.96759151  2.56780578  1.24794391
  O -3.69505621  1.17407858  0.41474514
  C -2.24057060  0.05010350 -1.65834152
  H  0.07010200 -1.01450581 -2.04579363
  H  1.51348993 -1.83943931 -1.51012865
  H -0.05209667 -3.70592178 -1.45306271
  H -1.90156521 -3.65857289  0.14051748
  H -2.56636570 -1.08305563  2.44044225
  H -3.70783274 -1.38277004  1.11941646
  H -2.90651617 -2.74335957  1.94017974
  H -0.89041893 -0.00323396  1.53293069
  H  2.92431600 -1.68559000 -0.10959849
  H  3.06144930 -2.30610017  1.48959525
  H  1.89961928  2.23481422  2.74679853
  H  0.71219286  0.92562211  2.55840197
  H  2.40799876  0.60795989  2.26391907
  H  3.98987746  0.17369460 -1.74987638
  H  3.74033680  1.84306419 -1.26987736
  H  3.57132435  0.56987149 -0.05627249
  H  0.50337256  3.09142162 -1.58713680
  H -1.26009975  3.09087211 -1.49741094
  H -0.43118634  2.11800880 -2.73454505
  H -2.36925464  2.49246779  2.25739499
  H -2.32555908  3.50887432  0.83153960
  H -0.88482303  2.58393282  1.26582612
  H -1.81426162  0.43311688 -2.58081847
  H -2.18914213 -1.03417272 -1.67283621
  H -3.29192227  0.33003682 -1.62325463
