39
opt_min/./Product_560_opt.xyz
  C -1.58209074  3.59930617 -0.54000262
  O -1.49258946  2.18185455 -0.43293286
  C -0.59521831  1.70759592  0.42474148
  O  0.08961592  2.38993471  1.14117298
  C -0.51005892  0.17404104  0.38235714
  C  0.48961494 -0.24285985 -0.74073750
  C  0.89375261  0.87503468 -1.57534587
  N  1.22298621  1.77691128 -2.19556918
  C -0.30725277 -1.28029534 -1.55333249
  C -0.58448086 -2.50787353 -0.67682975
  C -1.68290060 -2.02295507  0.29403819
  C -1.81514287 -0.53908253 -0.05966449
  C -1.66961476 -0.58667287 -1.58497407
  N  1.64363064 -0.72570752 -0.00589407
  C  2.85698358 -0.89472053 -0.58012418
  O  3.02866298 -0.92500649 -1.77442588
  O  3.81362831 -1.03658607  0.36014563
  C  5.11897262 -1.33976969 -0.11228785
  N  1.44507568 -0.70525061  1.39036917
  N  0.06733925 -0.41342917  1.57919711
  C -0.22061437  0.16078819  2.86867483
  H -0.58318603  4.04047103 -0.52364063
  H -2.16520241  3.99556702  0.29457188
  H -2.07808726  3.80611151 -1.48498210
  H  0.13973859 -1.51251975 -2.51792413
  H -0.93986828 -3.32340639 -1.30635854
  H  0.30744550 -2.83665237 -0.14716006
  H -1.39092125 -2.16021581  1.33193777
  H -2.62709695 -2.53755155  0.12395934
  H -2.71927464 -0.05959052  0.30873012
  H -1.64092340  0.39699312 -2.04681286
  H -2.43862211 -1.19542594 -2.05526421
  H  5.10206651 -1.44098810 -1.19933211
  H  5.43291197 -2.27540119  0.35371457
  H  5.79369577 -0.53356228  0.17821276
  H  2.05037001  0.01806784  1.81849178
  H  0.57791108  0.82598886  3.21865516
  H -1.14495570  0.73144519  2.82253968
  H -0.34149078 -0.65185380  3.58873239
