48
opt_min/./Product_1136_opt.xyz
  C  0.69255200  1.20192200 -0.91065200
  C -0.79563725  1.06372227 -1.23174794
  C -1.70389944  2.10716885 -0.60524596
  O -2.83290992  2.29270955 -0.97737818
  O -1.12309647  2.80547915  0.37433611
  C -1.92042288  3.76493652  1.06045387
  C -1.16131644 -0.38028991 -0.79883875
  C -2.45742661 -0.53061241 -0.05468540
  C -3.49634720 -1.29013095 -0.57009017
  C -4.68810635 -1.43261692  0.11738789
  C -4.85496852 -0.80524418  1.34122037
  C -3.80834384 -0.07657878  1.87856536
  C -2.61263056  0.05558067  1.19743753
  N -0.04924961 -0.81458009  0.03275934
  C -0.06326392 -2.23741526  0.27256020
  C  1.17077383 -0.20467907 -0.49505551
  C  1.64538833 -0.98653357 -1.73685580
  C  2.52994315 -2.18616681 -1.51078767
  O  1.27078528 -0.67895887 -2.84286481
  C  2.25640871 -0.09217014  0.54822585
  C  1.99752554 -0.28234425  1.89593860
  C  3.00668641 -0.14163487  2.83425200
  C  4.29069255  0.18691192  2.43248173
  C  4.54390267  0.41942098  1.08922127
  C  3.53669133  0.28387010  0.15457108
  H  1.24899238  1.56923779 -1.77018735
  H  0.84802506  1.87625095 -0.07053854
  H -0.99122381  1.14692729 -2.30707003
  H -2.94747199  3.72223463  0.69041355
  H -1.90240763  3.50478671  2.12014692
  H -1.49355592  4.75599494  0.90506389
  H -1.20852332 -0.98725402 -1.72307519
  H -3.38533947 -1.75007367 -1.54505308
  H -5.48705599 -2.03525301 -0.29460520
  H -5.79517213 -0.88813682  1.86813377
  H -3.92340837  0.39220726  2.84875529
  H -1.79506320  0.61841358  1.62448612
  H -0.10319578 -2.83701057 -0.65028436
  H -0.95539897 -2.46773633  0.85781043
  H  0.81298737 -2.52755867  0.84875934
  H  3.45912078 -2.03991402 -2.06109842
  H  2.04217773 -3.06450613 -1.93340202
  H  2.75118842 -2.35576789 -0.46229728
  H  0.99129455 -0.51587940  2.20716103
  H  2.79010487 -0.29577722  3.88056817
  H  5.08487054  0.27135927  3.15749407
  H  5.53548186  0.70131772  0.76633264
  H  3.73274231  0.48551279 -0.89046336
