59
opt_min/./Product_2628_opt.xyz
  C -4.22202838 -2.20466809 -0.40435188
  O -3.03635200 -1.43782983 -0.55346002
  C -2.48207646 -0.91033278  0.59885172
  F -3.50448669 -0.31915396  1.36599678
  C -1.61345314  0.22635529  0.13396871
  C -0.33909900  0.41295624 -0.23924251
  C  0.95030116 -0.35295919 -0.06875433
  C  1.85755208 -0.09589318 -1.27989067
  C  1.30767378 -0.13234016 -2.55562656
  C  2.11519309 -0.03676816 -3.67325117
  C  3.48611565  0.08053380 -3.53231243
  C  4.04449149  0.08174082 -2.26706058
  C  3.23617882 -0.02137070 -1.14867368
  C  1.51282309  0.26169988  1.21695893
  C  1.31273491 -0.29659095  2.47170621
  C  1.76842762  0.32986147  3.61965900
  C  2.42935412  1.54070351  3.54417215
  C  2.63346468  2.11542651  2.30235526
  C  2.17853986  1.48497843  1.15865175
  C  0.94905912 -1.91185591 -0.14902011
  C  0.35049453 -2.97153404  0.78286719
  C -1.15999058 -3.09973026  0.90933279
  C -1.88849172 -1.93774434  1.57071056
  C -0.34744896  1.87557352 -0.83420135
  C  0.84295477  2.79872058 -1.18637353
  C  0.83337032  4.10431587 -0.44257088
  O  1.60234996  2.56297243 -2.08099488
  N -1.34683488  2.55587397 -0.03692460
  C -2.36764865  1.52803899 -0.22251001
  C -3.64951910  1.88496229  0.31640952
  N -4.64893497  2.28246701  0.70170529
  C -2.33612472  1.48169899 -1.78026685
  O -3.21986602  1.26228789 -2.53983947
  O -1.06544854  1.73373654 -2.09047182
  H -4.99902971 -1.62417457  0.09714127
  H -4.53657864 -2.43383659 -1.41934257
  H -4.03732461 -3.13065416  0.14745231
  H  0.23923578 -0.22834669 -2.68189926
  H  1.66774058 -0.05474643 -4.65523903
  H  4.11851718  0.16051800 -4.40373439
  H  5.11502907  0.15744318 -2.14495999
  H  3.68930207 -0.04731785 -0.16749140
  H  0.79483256 -1.22892142  2.57575599
  H  1.59939714 -0.13635018  4.57911844
  H  2.78152773  2.02915702  4.43962043
  H  3.15436410  3.05777344  2.21731569
  H  2.37549798  1.94002992  0.20319371
  H  2.01866504 -2.14788114 -0.14919847
  H  0.57536389 -2.14518764 -1.14993760
  H  0.80726808 -2.94828680  1.77239307
  H  0.68230079 -3.91210437  0.32874619
  H -1.33726766 -3.98900168  1.52076296
  H -1.59258095 -3.28552100 -0.07563510
  H -2.75462667 -2.33409019  2.10861071
  H -1.26802341 -1.41728696  2.29835644
  H  0.73585111  3.96769916  0.63003155
  H -0.02665493  4.67617868 -0.78900613
  H  1.74291074  4.65256276 -0.67422017
  H -1.07846897  2.64003407  0.93974698
