46
opt_min/./Product_1980_opt.xyz
  C -3.83887325 -1.31613237 -0.92617483
  O -2.44315574 -1.08796270 -0.88394894
  C -1.91006425 -0.06769735 -0.06604660
  O -2.26579801 -0.26542769  1.28825140
  C -2.02576733 -1.52703764  1.88349315
  C -0.36889167 -0.30085288 -0.29592753
  C  0.80950172  0.34284576 -0.03173738
  C  1.00089063  1.68637475  0.64313738
 Cl  1.83864996  1.52748597  2.20215951
 Cl  1.97297874  2.76041752 -0.41662402
  C -0.44521102  2.09110301  0.70030903
  C -1.38101804  3.25116431  0.92881071
  C -2.69981481  2.48672427  0.61944381
  C -2.62961541  1.31019042 -0.40612502
  C  1.90383769 -0.44069733 -0.60860963
  C  3.32642299 -0.09500270 -0.50301875
  C  3.98847298  0.54752917 -1.54042045
  C  5.32702896  0.86919162 -1.40684693
  C  6.00893088  0.54567327 -0.24616040
  C  5.35385161 -0.11405850  0.78006918
  C  4.01504509 -0.43712125  0.65543656
  N  1.49308881 -1.47335612 -1.24398594
  C  0.06723581 -1.59062695 -1.00230780
  C  0.07547426 -2.68766336 -0.03241789
  N  0.18119680 -3.53832557  0.72020354
  C -0.66011398 -2.07209726 -2.16260710
  N -1.14068658 -2.54554809 -3.08247334
  H -4.29166712 -1.22271499  0.06407139
  H -4.33382630 -0.64557384 -1.63343936
  H -3.94204632 -2.34057274 -1.28173765
  H -2.15660423 -2.34213073  1.16976744
  H -2.76280426 -1.62382365  2.67913452
  H -1.01982322 -1.57532616  2.31062657
  H -0.66686107  1.90802346 -0.34709660
  H -0.86205542  1.31746233  1.34654362
  H -1.20683891  4.07106956  0.23267706
  H -1.39164071  3.64188225  1.94381514
  H -3.06900010  2.06261990  1.55334101
  H -3.45778031  3.17403223  0.24188199
  H -3.67368668  1.00754118 -0.49983352
  H -2.30603824  1.64559864 -1.39347159
  H  3.45098713  0.80161811 -2.44165356
  H  5.83800766  1.37159174 -2.21457902
  H  7.05125909  0.80756688 -0.14138212
  H  5.88503213 -0.37783409  1.68235971
  H  3.50047905 -0.95414094  1.45199886
