48
opt_min/./Product_2498_opt.xyz
  F -1.83012500  2.06287500  1.87589000
  C -1.72285309  0.77153459  1.41867386
  F -2.55375828  0.76918136  0.33154951
  C -0.28905208  0.55334771  1.01613125
  C  0.36390952 -0.36249370  0.25232718
  C -0.18017613 -1.52148033 -0.54789562
  C  0.77476884 -2.73795342 -0.46872361
  F  1.26259988 -2.89412461  0.76582676
  F  1.82067709 -2.66311476 -1.29699320
  F  0.16681255 -3.88804741 -0.77216781
  C -0.27791621 -1.06385705 -2.02020751
  F -0.69045515 -2.05361511 -2.81923620
  F -1.16533550 -0.06777300 -2.14214940
  F  0.86210696 -0.60327062 -2.52556272
  C -1.59359992 -1.99431912 -0.14391871
  C -1.74847468 -2.36648105  1.33865814
  C -2.78463364 -1.49612891  2.05135591
  C -2.24084522 -0.15279533  2.52449901
  C  1.77217837  0.04508421  0.27029322
  C  2.98918754 -0.51732611 -0.40973359
  O  3.59308613 -1.40741625  0.36296560
  C  4.80185183 -1.96125202 -0.15003482
  O  3.38370770 -0.12217506 -1.46860806
  N  1.97302787  1.11235246  0.95663299
  C  0.72598525  1.55292036  1.49201459
  C  0.42555617  2.98332924  0.90359287
  C  0.07617279  2.94896437 -0.54552105
  O  0.51905911  3.97145989  1.56279256
  C  0.96262880  1.59313905  3.03293975
  C  2.04411967  2.51980775  3.43925018
  O  0.34951152  0.87194654  3.76628016
  H -1.82793467 -2.86008511 -0.76759799
  H -2.30948795 -1.22272762 -0.41781548
  H -0.79411903 -2.28812237  1.86127968
  H -2.06724310 -3.40633485  1.40398600
  H -3.14316013 -2.02184264  2.93628383
  H -3.64155469 -1.33869483  1.39460715
  H -1.42875604 -0.29688180  3.23485838
  H -3.03803017  0.39678951  3.03034767
  H  4.59443148 -2.52477403 -1.06143932
  H  5.51226647 -1.16517031 -0.38004367
  H  5.18613041 -2.61364023  0.62814168
  H  0.09062955  3.96185789 -0.93774018
  H -0.92319565  2.53742201 -0.68213416
  H  0.77806975  2.32280719 -1.09230340
  H  2.88524689  2.43322038  2.75739873
  H  1.66675800  3.54006797  3.37313554
  H  2.33687162  2.30355621  4.46353434
