37
opt_min/./Product_3925_opt.xyz
  N -0.91227700  0.65346700  1.24078000
  C  0.18051656  0.93447926  0.33747193
  N  1.31721348  1.36617334  1.12915549
  N -0.14356271  1.98871088 -0.58274793
  C -0.15774949  3.33971081 -0.04380173
  C  0.49201482 -0.41067654 -0.54651099
  C  1.95232644 -0.74012013 -0.25184220
  O  2.14346886 -1.71436715  0.64724549
  C  3.49345949 -2.00254686  0.99741730
  O  2.86289189 -0.11528410 -0.73246849
  C  0.41444397 -0.14881607 -2.06160294
  N -0.47862310 -1.44941337 -0.22024307
  C -0.20044049 -2.83661056 -0.52705992
  N -1.70372158 -0.97524352 -0.32015074
  C -2.82324727 -1.71848231 -0.16010094
  C -4.04424377 -0.81868344 -0.19938978
  O -2.91332687 -2.93425196 -0.01689623
  H -0.59895007  0.29232991  2.13109160
  H -1.49677103  1.46366320  1.38035358
  H  2.04610663  1.73825944  0.53192731
  H  1.70457274  0.60180240  1.66852722
  H -1.03740259  1.76355784 -1.00338644
  H  0.86298051  3.71406341  0.01190540
  H -0.60092168  3.41536648  0.95688089
  H -0.72113681  3.97243160 -0.72415359
  H  3.46314116 -2.46454272  1.98088011
  H  3.92586192 -2.69109029  0.26965791
  H  4.08387358 -1.08501479  1.01313415
  H -0.60899601  0.07859268 -2.33943598
  H  1.06528208  0.67454258 -2.33112445
  H  0.73035636 -1.04614691 -2.59092827
  H  0.82618315 -3.09002599 -0.29587851
  H -0.40355070 -3.04281621 -1.58317481
  H -0.87654979 -3.45548864  0.06273457
  H -4.93465534 -1.40481977  0.00408460
  H -3.93466757 -0.02806738  0.53727252
  H -4.12299827 -0.36115432 -1.18323600
