38
opt_min/./Product_3842_opt.xyz
  C  0.62750900 -2.51889400  0.69464600
  C -0.35195312 -1.46757901  1.22193340
  C -0.29950412 -1.45581337  2.75527600
  C -0.09752748 -0.04774910  0.65129604
  C  1.00312990  0.08329376 -0.35181954
  C  1.97388029  0.98853360 -0.24570101
  C  3.04696388  1.20595180 -1.20223701
  C  3.07102151  0.37781145 -2.45316291
  C  3.98260099  2.12302018 -0.95803305
  N -1.37693389  0.29045424  0.03902644
  C -1.69318491  1.56161636 -0.26960621
  O -2.94890517  1.65500362 -0.77014974
  C -3.40524784  2.96212983 -1.08019911
  O -0.93608499  2.49401691 -0.12502543
  N -2.30310151 -0.77534449  0.00484192
  C -2.54703149 -1.21591811 -1.37103167
  N -1.73628293 -1.79192317  0.83344987
  H  0.52455870 -2.65727052 -0.38078035
  H  0.42840872 -3.47046199  1.18479612
  H  1.65311149 -2.22358244  0.90632982
  H -0.74982304 -0.55027325  3.15301301
  H  0.72685785 -1.52601477  3.10710509
  H -0.86613532 -2.30403699  3.13366314
  H  0.08499343  0.65797105  1.47042392
  H  0.94141828 -0.55989543 -1.21773700
  H  1.99058977  1.63545600  0.62209696
  H  2.14171261  0.50489330 -3.00729913
  H  3.89775084  0.67817163 -3.09215065
  H  3.18576769 -0.67814428 -2.20876522
  H  4.78746449  2.31353740 -1.64738472
  H  3.96790368  2.72003403 -0.06246253
  H -4.23417147  3.20942111 -0.41550568
  H -3.74140201  2.96831733 -2.11805893
  H -2.58969164  3.67590579 -0.94493339
  H -1.65564242 -1.13623629 -2.00661879
  H -2.89975230 -2.24637310 -1.36612225
  H -3.32918853 -0.58101576 -1.78322236
  H -1.75641943 -2.68038815  0.33742015
