45
opt_min/./Product_1153_opt.xyz
  C -0.79694800  1.26482000 -0.35462700
  C  0.51687813  1.07574517 -0.42234524
  C  1.47340947  2.22858742 -0.40394312
  O  1.23411081  3.23478766 -1.05042889
  N  2.54414568  2.07337862  0.38600093
  C  3.52996512  3.12169637  0.51961360
  C  0.80261288 -0.40787104 -0.54231945
  C  1.35338998 -0.99098544  0.79531661
  N  0.78324009 -2.14016791  1.14328542
  C  1.21246481 -2.91216848  2.28429493
  O  2.26392372 -0.46247354  1.41127655
  C  1.88491138 -0.83468758 -1.55370378
  C  2.52040923  0.23915343 -2.37989592
  O  2.20264496 -1.99513820 -1.63765694
  N -0.51234971 -1.02599552 -0.81902289
  C -0.69211442 -1.62483989 -2.12638228
  C -1.53025894 -0.04497086 -0.39259280
  C -2.86596303 -0.05571286 -1.15064040
  C -3.48162920  1.29528956 -1.36904991
  O -3.41392565 -1.07701969 -1.47201733
  C -1.92805200 -0.42301500  1.05842860
  O -1.82641062  0.31422138  2.00062428
  O -2.40062764 -1.65938407  1.10861524
  C -2.82642444 -2.13796730  2.37904942
  H -1.27568311  2.21440172 -0.22076586
  H  2.66491749  1.20004824  0.89892063
  H  3.03106170  4.07274503  0.71251736
  H  4.10228741  3.23585329 -0.40602049
  H  4.20069664  2.87558708  1.33661211
  H  0.04416666 -2.48566033  0.54209063
  H  1.30284993 -3.96167596  2.00866136
  H  0.50537036 -2.81186973  3.11129089
  H  2.18048707 -2.52980299  2.60544228
  H  1.78485757  0.96403185 -2.71851927
  H  3.03642768 -0.21381165 -3.22280074
  H  3.24960479  0.76080072 -1.76157804
  H  0.06330055 -2.39350862 -2.26955136
  H -0.61846696 -0.90084757 -2.95008944
  H -1.66859650 -2.10046918 -2.15350044
  H -3.63866074  1.78707553 -0.41030869
  H -4.43634029  1.17858358 -1.87679664
  H -2.82539877  1.92215676 -1.96933856
  H -3.35830009 -1.35311680  2.91994131
  H -1.96229405 -2.45211438  2.96670914
  H -3.48081673 -2.98286116  2.18200237
