37
opt_min/./Product_872_opt.xyz
 Cl  0.74891028  3.89976882  1.76455529
  C -0.53706275  3.29412168  0.84072094
  C -1.78026474  2.97971351  1.19074005
  C -2.39348504  2.40960317 -0.07747635
  C -1.76883186  0.99833139 -0.30350259
  C -0.31864731  1.37660101 -0.67720640
  C -0.41131867  2.93429564 -0.62826577
  O -1.72892946  3.15625387 -1.09126202
  C  0.49142454  0.72417283  0.41688428
  C  1.93103852  0.86602250  0.54698721
  C  2.56239464  0.39703501  1.70031902
  C  3.93238116  0.50392638  1.83461966
  C  4.68892190  1.07274279  0.82179347
  C  4.06723063  1.55514878 -0.31837203
  C  2.69652863  1.45520773 -0.45938358
  N -0.19577510  0.05348998  1.24955798
  C -1.59884907  0.05180876  0.91639949
  C -2.07155203 -1.40842988  0.61618714
  N -3.32110421 -1.45113411  0.11001289
  C -3.93845160 -2.72239352 -0.20852488
  O -1.40072455 -2.37940869  0.84319794
  C -2.36743564  0.41144284  2.08780161
  N -2.98306340  0.66033977  3.01905930
  H -2.26309112  3.06725045  2.14084363
  H -3.47288759  2.48262176 -0.17470323
  H -2.23812229  0.50129709 -1.15447195
  H -0.05463495  1.07113420 -1.68977524
  H  0.33079188  3.48031595 -1.20107167
  H  1.95709460 -0.04038206  2.47786489
  H  4.41489116  0.14178367  2.73004486
  H  5.76195424  1.14583063  0.92371997
  H  4.65600640  2.01074328 -1.10071710
  H  2.22135738  1.84666285 -1.34602457
  H -3.86037481 -0.60936039 -0.00474515
  H -3.91281974 -3.37579125  0.66555358
  H -4.96751110 -2.55825541 -0.51270314
  H -3.38804889 -3.21305582 -1.01345985
