57
opt_min/./Product_2625_opt.xyz
  F  1.74693500  3.55457700 -2.19621800
  C  1.15979362  2.84522025 -1.24919634
  C  0.07449123  3.10001733 -0.52156154
  C -0.85555559  4.25604181 -0.48848179
  F -2.10927477  3.89028765 -0.83506878
  F -0.95827773  4.78914292  0.74001680
  F -0.50392988  5.24594542 -1.31400708
  C -0.10409869  1.83011074  0.30753882
  C -0.65638309  0.81183087 -0.74796313
  C  0.64319970  0.45537490 -1.47833334
  C  1.63615833  1.46175114 -0.84148655
  O  1.23147379  1.43011553  0.51359761
  C  0.93850503 -1.01698699 -1.07536078
  C  2.19586998 -1.16020138 -0.23782963
  C  3.41596968 -1.30074820 -0.89100478
  C  4.59044429 -1.44361590 -0.17391748
  C  4.55453333 -1.45827294  1.20981497
  C  3.34406616 -1.32299225  1.86599680
  C  2.17114042 -1.17557605  1.14761669
  N -0.23405943 -1.51400011 -0.36980696
  C -0.61400040 -2.85209094 -0.75326965
  C -1.29711024 -0.50690684 -0.26949920
  C -2.48120330 -0.87764964 -1.17160776
  C -2.48061779 -0.58930979 -2.53086268
  C -3.53908448 -0.96569040 -3.34118090
  C -4.61554012 -1.65332513 -2.81224140
  C -4.61163663 -1.97895419 -1.46723445
  C -3.55533156 -1.60110845 -0.65940423
  C -1.80467978 -0.36063107  1.15494399
  C -1.37935665 -1.19082757  2.18106702
  C -1.88317910 -1.03709832  3.46157376
  C -2.82483216 -0.05982402  3.73084621
  C -3.27454841  0.75403864  2.70403098
  C -2.77421455  0.60084919  1.42403587
  H -0.63604881  1.91529781  1.24831758
  H -1.37365014  1.35710214 -1.36738651
  H  0.57021395  0.54190943 -2.56136977
  H  2.69488777  1.26144447 -0.96480336
  H  1.11115771 -1.61409326 -1.98577592
  H  3.44833032 -1.30187630 -1.97310328
  H  5.53055625 -1.54751119 -0.69578270
  H  5.46909734 -1.57467651  1.77350442
  H  3.31127564 -1.32911619  2.94530715
  H  1.23486875 -1.04448508  1.65965977
  H  0.28280690 -3.47159572 -0.75250831
  H -1.08860977 -2.91331826 -1.74364084
  H -1.30739333 -3.25777355 -0.01596511
  H -1.64466939 -0.08207574 -2.99091962
  H -3.51563790 -0.71829076 -4.39253458
  H -5.44231867 -1.94211488 -3.44292249
  H -5.43586192 -2.53285377 -1.04218380
  H -3.57123045 -1.86999881  0.38586070
  H -0.66006438 -1.96641267  1.97352995
  H -1.54151610 -1.69032536  4.25103643
  H -3.21417135  0.06119622  4.73041141
  H -4.02060464  1.51046541  2.89849167
  H -3.15047854  1.22599895  0.62627649
