50
opt_min/./Product_1376_opt.xyz
  C -3.63360956  3.85770776  1.32259904
  N -3.05707645  2.56112807  1.06738789
  C -3.52703454  1.74149541  0.09931906
  O -4.54102339  1.96757724 -0.52264925
  C -2.71091707  0.45412251 -0.05660021
  C -1.25190742  0.74228329 -0.19993780
  C -0.12382761 -0.06894436  0.08623834
  C -0.07158321 -1.38657959  0.82357645
  C  1.38192110 -1.75299769  1.15822307
  C -0.80636596 -1.27247535  2.16875516
  C -0.62700138 -2.55713227 -0.01975679
  C -2.07627849 -2.50257207 -0.50830259
  C -2.32439411 -1.50958755 -1.65455573
  C -3.21794811 -0.33190632 -1.27500614
  C  0.94691318  0.69233066 -0.38474914
  C  2.40076415  0.46337379 -0.50256456
  O  3.09718011  1.40275046  0.14887896
  C  4.51198511  1.31331139  0.04562790
  O  2.91670364 -0.41169484 -1.15574033
  C  1.34145838 -0.93353797 -3.22834749
  O  1.37077913 -2.05642636 -3.01669691
  O  1.40543680  0.19002647 -3.44713315
  N -0.87978664  1.87111043 -0.78347083
  N  0.43287296  1.84936648 -0.87708181
  C  1.12577244  2.92264708 -1.53013299
  H -3.83696904  3.97948478  2.38795343
  H -2.97003878  4.65889950  0.98912421
  H -4.56722295  3.91168381  0.76531593
  H -2.15132001  2.36940673  1.46394517
  H -2.89204177 -0.12956666  0.84814777
  H  1.87181124 -0.94113959  1.69418152
  H  1.40175002 -2.63652172  1.79315744
  H  1.94815247 -1.97722239  0.25990245
  H -0.62566268 -2.16872842  2.75834498
  H -1.87913133 -1.16680141  2.05592520
  H -0.43474678 -0.41516031  2.72720271
  H -0.51701123 -3.45708256  0.59154040
  H  0.02005591 -2.67880347 -0.89113418
  H -2.31933934 -3.50869266 -0.85759114
  H -2.75095920 -2.29458794  0.32179164
  H -1.36781496 -1.13293137 -2.02115868
  H -2.80067640 -2.02758866 -2.48919853
  H -3.28295207  0.35711050 -2.11862513
  H -4.22894698 -0.68126196 -1.05974715
  H  4.86001665  0.35915210  0.44576365
  H  4.82007886  1.38878790 -0.99904545
  H  4.91218970  2.14071530  0.62546435
  H  0.37418675  3.64980113 -1.83022651
  H  1.84184313  3.38895624 -0.85196030
  H  1.64784301  2.55548085 -2.41538514
