57
opt_min/./Product_5902_opt.xyz
  C  2.00015100  1.19868200  0.34746500
  O  2.57437278  2.25309336  0.58553814
  C  2.50530393  0.21729539 -0.58750106
  O  3.72022932  0.33104811 -1.19290394
  C  4.73411239  1.13889757 -0.63406318
  C  1.70356764 -0.78884291 -1.08002171
  O  2.20689101 -1.44994136 -2.13110421
  C  1.42790975 -2.33937268 -2.90761919
  C  0.42285080 -1.16838245 -0.45113135
  O -0.22133546 -2.11513541 -0.84320353
  C  0.07192584 -0.47477791  0.87125141
  C  0.64459415 -1.41530098  1.93360679
  C  0.61435009  0.96116751  0.93597465
  C  0.59637264  1.55933002  2.34545929
  C -0.42897292  1.70001570  0.05211819
  C -0.02311492  1.67082146 -1.42642794
  N  0.73630551  2.71369017 -1.81822225
  C  1.34395424  2.75329571 -3.12845736
  O -0.37293185  0.77995693 -2.17378071
  O -1.64830141  1.01723589  0.21740795
  C -1.46754300 -0.21077198  0.94017964
  C -2.05377189 -0.00001719  2.36101536
  O -1.70903830 -0.59017263  3.36600935
  N -3.07179929  0.87746466  2.33923923
  C -3.88469528  1.16262707  3.49372654
  C -2.34889418 -1.29287562  0.34163284
  C -2.93711427 -1.11006212 -0.90336933
  C -3.76911434 -2.08201021 -1.42723866
  C -4.02923809 -3.23773572 -0.71147969
  C -3.44888257 -3.41984190  0.53193487
  C -2.61522380 -2.45173657  1.06131420
  H  5.64652036  0.84086215 -1.15121020
  H  4.54811930  2.20213332 -0.79925898
  H  4.85079369  0.96518276  0.43781630
  H  2.03076433 -2.52929844 -3.79525699
  H  1.22704125 -3.27752021 -2.38789823
  H  0.47558074 -1.88217560 -3.18698948
  H  1.72992284 -1.32531250  1.95130602
  H  0.38602861 -2.44314648  1.68631236
  H  0.24070486 -1.19707367  2.91664457
  H  1.15460633  0.93491061  3.03546194
  H -0.41767978  1.67380180  2.71574171
  H  1.06620180  2.54125903  2.31280354
  H -0.55252505  2.73960444  0.38184640
  H  1.09843850  3.34962138 -1.12366830
  H  0.76072594  2.10998200 -3.78490418
  H  2.37164201  2.38238830 -3.09912252
  H  1.33525296  3.77333700 -3.50893959
  H -3.31043516  1.29887246  1.45364633
  H -3.91557876  2.23687123  3.68186907
  H -4.90189011  0.79208651  3.35252458
  H -3.43435804  0.65556587  4.34597718
  H -2.71631322 -0.21815963 -1.46790689
  H -4.21111904 -1.93805847 -2.40213634
  H -4.67933402 -3.99709220 -1.12142715
  H -3.64486976 -4.32015813  1.09570245
  H -2.16812664 -2.60096877  2.03242943
