59
opt_min/./Product_2455_opt.xyz
  C  1.28163816 -2.58161352 -1.58781442
  O  0.14676339 -2.06813361 -0.90660086
  C -0.22068793 -0.72872372 -1.13849840
  C -1.73359064 -0.51414045 -0.80378071
  C -2.21984791 -1.59948527  0.15334727
  C -2.51154451 -2.97016232 -0.36081154
  O -2.31186856 -1.34892459  1.33228796
  C -2.34567800 -0.37871815 -2.22885902
  C -2.11730784 -1.62501537 -3.04956865
  C -0.82655706 -1.61988836 -3.34988911
  C -0.27446290 -0.37525551 -2.68132713
  O -1.37592679  0.50711492 -2.78297452
  C -1.78426053  0.88626388 -0.09728423
  C -2.20690871  2.03442694 -1.08029234
  C -1.17747552  3.08043387 -1.41398508
  O -3.33830223  2.13949405 -1.47566537
  C -3.01797627  0.81560673  0.86170710
  C -2.95495048  1.29416025  2.28661579
  O -4.06425951  0.47230209  0.37065168
  N -0.46152732  1.05217715  0.44737430
  C -0.06970428  2.12253162  1.33123204
  C  0.55730338  0.24552600 -0.18406870
  C  1.66122374  0.98587609 -0.95936482
  O  1.93419255  2.20877676 -0.51700591
  C  3.03097824  2.87707423 -1.13241294
  O  2.29902094  0.47200829 -1.84869498
  C  1.31571997 -0.56191787  0.89144669
  C  0.63584472 -0.92102637  2.04966489
  C  1.26564631 -1.64186728  3.04742421
  C  2.59205378 -2.01285960  2.91149222
  C  3.27595269 -1.66363478  1.76173863
  C  2.64503585 -0.94537007  0.75833445
  H  1.67636126 -1.88733691 -2.32607937
  H  0.98600676 -3.51447763 -2.07226782
  H  2.06890239 -2.79027814 -0.85812425
  H -2.89140183 -2.96413475 -1.37326422
  H -1.57786914 -3.53095287 -0.34218930
  H -3.21989226 -3.44787889  0.31289198
  H -3.34489599  0.04759596 -2.23928273
  H -2.88912961 -2.29729621 -3.36904082
  H -0.25549513 -2.31699703 -3.92881031
  H  0.61557711  0.05737264 -3.12332050
  H -1.25273671  3.88905355 -0.68739017
  H -0.17116534  2.68718438 -1.41881660
  H -1.42230655  3.48313296 -2.39431203
  H -3.86053899  0.94649565  2.78084156
  H -2.95507259  2.38330918  2.31101266
  H -2.08930230  0.90207949  2.80884315
  H  0.32896641  3.00184804  0.81638111
  H  0.70252750  1.75115698  2.00877328
  H -0.91582517  2.44537914  1.92278719
  H  3.28097408  3.70952441 -0.47982783
  H  2.74382892  3.23927327 -2.12171920
  H  3.87752540  2.19674626 -1.23725414
  H -0.40333191 -0.65968664  2.15760658
  H  0.71201674 -1.91610294  3.93315285
  H  3.08609156 -2.57371007  3.69112982
  H  4.31003885 -1.95119768  1.63710048
  H  3.21125833 -0.69969313 -0.12672512
