46
opt_min/./Product_5803_opt.xyz
  O  2.48319600 -3.32532900 -0.08775800
  C  2.58478475 -2.64180712  0.82438845
  O  2.68890984 -1.98220664  1.75104171
  C  1.41696174 -0.32259124 -0.88417365
  C  0.22994680 -0.71120945 -1.31755689
  C -0.74501761 -3.08929199  0.49378721
  O -1.25182956 -3.52146694 -0.43454459
  O -0.21918741 -2.67838298  1.42382105
  C -0.81620027  0.25179110 -0.81571373
  C -1.20265641  1.23182795 -1.96905161
  N -1.85211253  2.30268235 -1.49936320
  C -2.20578319  3.42175269 -2.33789866
  O -0.93166392  1.02516401 -3.13172448
  C -2.06551274 -0.39295338 -0.27394736
  C -2.35393213 -0.35952885  1.08315344
  C -3.50219194 -0.96944714  1.55821848
  C -4.36500200 -1.61023317  0.68572168
  C -4.08072588 -1.63685241 -0.67014930
  C -2.93642430 -1.02875851 -1.15198892
  O -0.14008407  1.00802635  0.19387092
  C  1.24279228  0.92084132 -0.04821723
  C  2.03719009  0.86400663  1.26254787
  O  3.23217877  0.98035617  1.31081858
  O  1.24045161  0.66428298  2.29446378
  C  1.86659569  0.56540288  3.57023531
  C  1.71876660  2.16478339 -0.83567437
  O  1.09228447  3.18691905 -0.88182651
  O  2.87604033  1.93978990 -1.42910016
  C  3.42275623  3.02400928 -2.17519181
  H  2.38887181 -0.71896091 -1.10105358
  H -0.01668687 -1.52126252 -1.97463561
  H -1.88947110  2.42543208 -0.49874303
  H -1.76389847  4.33966066 -1.95165174
  H -3.29147088  3.52971330 -2.38704127
  H -1.81902266  3.22370376 -3.33637721
  H -1.66900035  0.13714534  1.75225456
  H -3.72275330 -0.94354015  2.61572860
  H -5.25911704 -2.08574116  1.06061278
  H -4.75282817 -2.13232266 -1.35449579
  H -2.71238441 -1.04256015 -2.20809383
  H  1.13214796  0.11537926  4.23286597
  H  2.14519227  1.55947666  3.92547042
  H  2.75969878 -0.05666048  3.50025251
  H  3.45118089  3.92707370 -1.56337527
  H  2.81098830  3.20968318 -3.06013083
  H  4.42600137  2.71849800 -2.45883960
