68
opt_min/./Product_2916_opt.xyz
  C  1.12319200  0.81694100  1.39554100
  C  0.58136655  0.41240610  0.02639619
  C  0.51193910  1.65316014 -0.87664100
  C  0.50087937  1.52384061 -2.26392662
  C  0.43921618  2.62926293 -3.09385645
  C  0.37495092  3.90238520 -2.55884594
  C  0.37919692  4.04867098 -1.18447790
  C  0.45121399  2.94236848 -0.35672515
  C -0.85744611 -0.26046698  0.06144825
  C -1.83774930  0.91636389  0.02473332
  C -2.41699737  1.47860933 -1.10562803
  C -3.20368588  2.61647995 -1.02565857
  C -3.42571680  3.24337287  0.18398613
  C -2.84863182  2.70860431  1.32121505
  C -2.07202447  1.56936147  1.23872095
  C -1.17820274 -1.09160922  1.30897625
  C -2.50417966 -1.19587965  1.72960774
  C -2.86150674 -2.00113566  2.79321861
  C -1.90615826 -2.74369551  3.46448965
  C -0.59629331 -2.69401861  3.02950023
  C -0.24506395 -1.89095306  1.95723251
  C -0.78051351 -1.32672647 -1.10391639
  C -1.29167302 -2.71922798 -0.61262382
  N -0.35309736 -3.66291591 -0.52688925
  C -0.64878268 -5.00554753 -0.10336347
  O -2.47838390 -2.91436727 -0.42528988
  C -1.58794243 -1.16890241 -2.39809841
  O  0.59973914 -1.41995112 -1.48739178
  C  1.45783012 -0.64828308 -0.69207841
  C  2.35902892 -1.60472294  0.11830441
  O  2.36834768 -2.79556750 -0.07016977
  O  3.23237198 -0.98157151  0.90019068
  C  4.18924549 -1.81088853  1.55171649
  C  2.56279797 -0.04156437 -1.59349523
  O  2.88440482 -0.49063619 -2.65701724
  O  3.17068242  0.97289243 -0.98078416
  C  4.21848186  1.61050763 -1.70173321
  H  0.41756296  1.47071015  1.89710858
  H  1.29502353 -0.02856061  2.04909577
  H  2.06453637  1.34368938  1.26107109
  H  0.54335677  0.55070847 -2.72416823
  H  0.43918518  2.48746351 -4.16472227
  H  0.32205948  4.76680826 -3.20352193
  H  0.32764920  5.03409454 -0.74517676
  H  0.44686506  3.11388306  0.70572880
  H -2.25928701  1.06543071 -2.08093430
  H -3.63672848  3.01647530 -1.93064863
  H -4.03437058  4.13314987  0.24129034
  H -3.00008761  3.17899180  2.28217048
  H -1.65459206  1.17485824  2.15295035
  H -3.27900590 -0.66307037  1.20239617
  H -3.89861503 -2.05932786  3.08721984
  H -2.18294332 -3.37305901  4.29691252
  H  0.16169674 -3.29422983  3.51219867
  H  0.77467206 -1.92910066  1.61584247
  H  0.61345893 -3.40615713 -0.69347946
  H -0.36182387 -5.72123049 -0.87539760
  H -0.11277805 -5.24069107  0.81804674
  H -1.72165402 -5.06821655  0.07450345
  H -1.42170436 -2.07334697 -2.98276442
  H -1.26165907 -0.32949792 -3.00067120
  H -2.64598740 -1.10601570 -2.16459729
  H  4.67190786 -2.47155117  0.82960617
  H  4.91084365 -1.13673239  2.00495943
  H  3.70264423 -2.41882324  2.31732107
  H  3.79274446  2.34946692 -2.38362936
  H  4.84905528  2.09879618 -0.96306700
  H  4.78614184  0.87532739 -2.27470579
