44
opt_min/./Product_1048_opt.xyz
  C -2.58125000  4.17590200 -1.02352600
  O -2.39180012  2.82881745 -0.60882818
  C -1.15521492  2.31843698 -0.71069190
  O -0.24236417  2.95989241 -1.15302647
  C -1.06701847  0.91376563 -0.07724023
  C -0.81514358  1.27758079  1.40107753
  C  0.08387158  0.12267616 -0.63885642
  C  0.40428482 -1.19450407 -0.57268382
  C -0.02704968 -2.36026508  0.27766977
  F  1.11686104 -2.76697392  0.95142679
  F -0.31602253 -3.42304450 -0.54452562
  C -1.10114587 -2.31049112  1.35628320
  C -2.54384815 -2.11076631  0.91401425
  C -3.02723879 -0.67346235  0.76455677
  C -2.40313550  0.16882194 -0.34380592
  N  1.44182284 -1.49347264 -1.41913142
  C  2.17354811 -2.66016138 -1.77880393
  O  1.71695075 -0.35117294 -2.21852512
  C  1.21209346  0.72963981 -1.47955118
  C  2.25802536  1.25629476 -0.46718989
  O  2.08413537  2.14509682  0.32435370
  O  3.36987587  0.52283705 -0.53124884
  C  4.40616985  0.83490870  0.38959448
  H -3.51793897  4.21457778 -1.57727915
  H -1.74569250  4.49535600 -1.64877932
  H -2.64083996  4.81353792 -0.13994815
  H  0.05009591  1.93543527  1.45678466
  H -1.67870182  1.78981094  1.81846532
  H -0.59661790  0.38925318  1.98349000
  H -1.03270903 -3.31265246  1.79605824
  H -0.80700809 -1.59698659  2.12480271
  H -2.71680755 -2.67079067 -0.00712007
  H -3.16760300 -2.55851919  1.69274093
  H -2.94785817 -0.16278381  1.72280739
  H -4.09217333 -0.74623664  0.53076306
  H -3.14690312  0.93122663 -0.57372281
  H -2.28137444 -0.44512619 -1.23831681
  H  3.21682006 -2.37156179 -1.91523258
  H  1.79524520 -3.08927688 -2.71397672
  H  2.11401296 -3.40599785 -0.99209553
  H  0.92558568  1.51966041 -2.16908854
  H  4.37382999  1.89584121  0.64326851
  H  5.34545595  0.58033040 -0.09727522
  H  4.27931970  0.23967409  1.29650976
