23
opt_min/./Product_3309_opt.xyz
  C -0.86899315 -0.66140263 -1.25479185
  C -6.71301328 -5.65871366  18.01118673
  C -15.41282970  10.93309688  33.35475176
  C  21.41397609 -34.36536307 -39.82580455
  N -3.69013176 -34.87030184 -47.75548420
  N  15.79665637 -30.06130693  0.68394470
  C -4.54772649 -5.85139799  9.03582957
  C -18.12139003 -16.83005649 -16.17238270
  N -18.76707656 -17.43865428  3.84558639
  C -22.68352428  2.01907389 -23.24368363
  O -122.44412249  2.27256869  4.04996079
  C -17.77512626 -4.17186595 -7.28444214
  N -1.32513490 -23.43793632  27.27586206
  H  35.27660975  3.02778429  4.17351468
  H -32.46692626  9.94381306  2.18681366
  H -1.94884247 -70.08137973  9.20244650
  H -16.72558441  6.02416019  32.83298474
  H -2.44451430 -7.65065647 -23.58789791
  H -15.69790316  12.48237582  10.36904685
  H  8.13127907 -14.38273633  6.18391737
  H  24.82754466  8.85061264 -21.73450400
  H -5.34904289  34.46031036  14.53016433
  H  13.64770677  8.84723673 -13.26788148
