46
opt_min/./Product_5678_opt.xyz
  C -1.31396227  0.78901752  0.89456373
  O -1.10945286  1.66598264  1.70387507
  C -2.29233556 -0.28849819  1.07304105
  O -3.36421241 -0.16969965  1.86700888
  C -3.62143473  1.03278672  2.56606930
  C -2.10720635 -1.52230953  0.48581997
  O -3.04391847 -2.45143106  0.77769472
  C -2.68428801 -3.82412114  0.81253974
  C -1.04607914 -1.78460229 -0.48135315
  O -1.00952071 -2.78671047 -1.16844733
  C  0.01300160 -0.70210518 -0.66110240
  C  0.64386441 -0.85981706 -2.04721756
  C -0.49670210  0.72692165 -0.40993329
  C -1.34242596  1.31283096 -1.53531876
  N  0.74669747  1.45039010 -0.19387899
  C  0.81477916  2.79696096  0.01910234
  O  1.99442921  3.12062798  0.58279361
  C  2.18725579  4.50633726  0.81984800
  O -0.01298189  3.59206028 -0.34784874
  N  1.71094247  0.59255718  0.42366113
  C  1.14320995 -0.74452009  0.42584645
  C  0.60824868 -1.01794789  1.75535011
  N  0.25459510 -1.25819330  2.81431694
  C  2.14563198 -1.88024247  0.16180711
  O  1.85481015 -3.03756766  0.26383497
  O  3.33897036 -1.40670657 -0.17347798
  C  4.36973077 -2.35226826 -0.45176498
  H -4.57942272  0.86949859  3.05762607
  H -3.69165932  1.89260575  1.89645500
  H -2.84763270  1.22717628  3.31120961
  H -3.57286141 -4.33321194  1.18201206
  H -2.41810884 -4.20480310 -0.17315422
  H -1.85233911 -3.98132010  1.50403143
  H -0.11844507 -0.75213402 -2.81407734
  H  1.42330147 -0.11952842 -2.21287267
  H  1.06127025 -1.86012856 -2.14208622
  H -1.73706125  2.27774644 -1.22704992
  H -2.16314635  0.63643927 -1.76415056
  H -0.73653291  1.47171163 -2.42296353
  H  2.40104378  5.02633067 -0.11732380
  H  1.29382790  4.94195517  1.26995897
  H  3.03448267  4.58131151  1.49710026
  H  2.58565795  0.63966845 -0.09621820
  H  5.26165318 -2.02384915  0.07873827
  H  4.06543505 -3.34493817 -0.11722897
  H  4.55455415 -2.36295362 -1.52660841
