34
opt_min/./Product_636_opt.xyz
  C -4.34149577  1.28772612 -0.29067232
  N -3.10732894  0.53806938 -0.33348752
  C -2.06618882  0.84118491  0.46895508
  O -2.07944645  1.73858036  1.28182138
  C -0.85009792 -0.00217184  0.26311484
  C  0.18235040 -0.09656703  1.11103085
  C  0.30896752  0.54710077  2.45981106
  F -0.76592420  0.37839825  3.22365910
  F  0.57985012  1.85084655  2.39315460
  F  1.34812295  0.00560916  3.14534051
  C  1.32357879 -0.86435528  0.49416312
  C  2.41668615  0.22279312  0.14750484
  N  3.42021250  0.31326038  1.02332248
  C  4.41745620  1.35541880  0.89471532
  O  2.28733298  0.87873903 -0.85789713
  C  1.85407062 -1.91993503  1.33082762
  N  2.30438405 -2.78126925  1.93284510
  N  0.70702929 -1.46922370 -0.67623031
  C  1.55511606 -1.87478180 -1.77510606
  C -0.52474088 -0.76191289 -1.00250869
  C -0.42699291  0.17677930 -2.11802833
  N -0.39169013  0.87165710 -3.02292127
  H -4.56773249  1.70558993 -1.27166739
  H -5.16176343  0.64340140  0.02974118
  H -4.21515835  2.09435873  0.42734142
  H -3.04618276 -0.19690868 -1.01720686
  H  3.40414233 -0.22363191  1.87751729
  H  5.32127824  1.05334594  1.41583268
  H  4.05032514  2.29713787  1.30668051
  H  4.63709552  1.50338875 -0.16187084
  H  2.34010691 -2.52012475 -1.38256275
  H  0.94891499 -2.45108540 -2.47278185
  H  2.00990768 -1.03346708 -2.30790034
  H -1.29181886 -1.50630221 -1.27424043
