83
opt_min/./Product_3182_opt.xyz
  C  3.29248200  3.86490100  1.28507000
  O  2.88340246  2.57302847  0.85157998
  C  2.31561407  1.81667348  1.77945641
  O  2.18485517  2.17293390  2.92354228
  C  1.98525768  0.38674515  1.29821179
  C  1.78740598 -0.28127312  2.67796121
  C  3.01918148 -0.53355921  3.50552925
  O  0.68146874 -0.46670164  3.12393147
  C  0.68420518  0.33195842  0.50777697
  C -0.16656867 -0.69039977  0.32570251
  C -0.05432433 -2.20335964  0.49518049
  O -1.10522455 -2.65588922  1.33914846
  C -0.82874919 -3.22449779  2.60080078
  O -0.30896254 -2.67766280 -0.82162011
  C -0.58445609 -4.05257058 -0.96562825
  C  1.32996484 -2.72254844  0.90929753
  C  2.38855805 -2.40895487 -0.15908705
  C  3.53206158 -1.56110065  0.38762111
  C  3.21635116 -0.06856535  0.46895261
  C -1.44720644 -0.13157533 -0.30317640
  C -2.47924200  0.35476897  0.77018919
  N -2.25613422 -0.03529622  2.03502510
  C -3.11627469  0.37736473  3.11626888
  O -3.39695545  1.07690555  0.44515630
  C -2.21329726 -0.99519478 -1.27833887
  C -3.17145731 -1.89021338 -0.81774613
  C -3.89559249 -2.65710499 -1.71141584
  C -3.68456570 -2.52573148 -3.07444039
  C -2.74686685 -1.61943658 -3.53612284
  C -2.01748789 -0.85372985 -2.64418739
  O -0.99153997  1.03254496 -0.96216371
  C  0.12178921  1.55832956 -0.23277609
  C  1.09363600  2.01106422 -1.31726817
  C  1.46158465  1.05714309 -2.26250784
  C  2.30655274  1.38153612 -3.30714801
  C  2.79741785  2.67023533 -3.42812266
  C  2.42273178  3.62875720 -2.50369945
  C  1.57346950  3.30462213 -1.45907657
  C -0.43791799  2.66043707  0.65164102
  C -0.53413556  2.54503076  2.03080210
  C -1.14399930  3.54051589  2.77626082
  C -1.69094366  4.64649347  2.15348169
  C -1.65299335  4.73966039  0.77200851
  C -1.04161266  3.74940605  0.02736281
  H  3.83062019  4.30426317  0.44969735
  H  2.42167295  4.46817041  1.54796961
  H  3.93445277  3.78116389  2.16397813
  H  2.87817271 -0.02799776  4.45967742
  H  3.11730161 -1.59754867  3.71862377
  H  3.92435359 -0.16818921  3.03586232
  H -0.26941981 -2.54342914  3.24641880
  H -0.30075018 -4.17955173  2.52491201
  H -1.81032843 -3.40290572  3.03976680
  H  0.33658871 -4.64742398 -0.96942782
  H -1.25339288 -4.40139335 -0.17712251
  H -1.08636684 -4.15233354 -1.92560381
  H  1.23856104 -3.80373859  1.02475581
  H  1.61569782 -2.31235096  1.86808538
  H  2.80064200 -3.34345460 -0.54187463
  H  1.91671665 -1.89002641 -0.99548565
  H  3.82572099 -1.95173976  1.35960846
  H  4.39640440 -1.66035589 -0.27159042
  H  4.10187492  0.43729744  0.85483353
  H  3.05747404  0.30853308 -0.54204318
  H -1.48882657 -0.65384423  2.23899729
  H -3.96067340 -0.30765948  3.23485330
  H -2.54205695  0.40880303  4.03931497
  H -3.50566066  1.36907950  2.88865719
  H -3.33723480 -1.99610840  0.24317277
  H -4.63522692 -3.35390455 -1.34413359
  H -4.25459821 -3.12239352 -3.77226101
  H -2.58375721 -1.50398033 -4.59834560
  H -1.29959462 -0.13255823 -3.00314975
  H  1.06070230  0.05597608 -2.18237886
  H  2.57946506  0.62676090 -4.03058185
  H  3.45810791  2.92741077 -4.24313210
  H  2.78633208  4.64184876 -2.59911816
  H  1.28304991  4.07246096 -0.76022412
  H -0.15213705  1.67629036  2.54098095
  H -1.20075807  3.43671670  3.84989319
  H -2.16955381  5.41926064  2.73741364
  H -2.11461707  5.57822046  0.27175454
  H -1.05835441  3.79552028 -1.05051845
