36
opt_min/./Product_4717_opt.xyz
  C  1.73482278  0.79114769 -0.84426382
  C  0.25028136  0.94351500 -0.53317170
  C -0.64245172 -0.31563824 -0.57156007
  N  0.08674524 -1.54744575 -0.40544776
  C -0.63704201 -2.80094477 -0.43765994
  C  1.42810309 -1.57372532 -0.22268268
  C  2.26822265 -0.53144880 -0.36963738
  C  3.69327186 -0.76007078 -0.11360764
  N  4.53197441  0.28565623 -0.39086991
  O  4.13042821 -1.79494170  0.35287956
  C -1.55275551 -0.04698226  0.70485565
  C -2.98957216 -0.54173559  0.65391827
  N -3.86525593  0.44728119  0.40661171
  C -5.28940947  0.19274596  0.39500354
  O -3.30116953 -1.70177079  0.78549115
  O -1.46094937  1.36063720  0.93933054
  C -0.06320381  1.41754981  0.91677117
  C  0.46808450  2.72336205  1.25729883
  N  0.90989465  3.75569621  1.45613647
  O  0.35232598  0.42758971  1.85764419
  C -0.57973909 -0.55304007  1.80114633
  O -0.59286955 -1.53050222  2.46818057
  H  2.26390533  1.62497948 -0.37506415
  H  1.86461243  0.87560613 -1.93129569
  H -0.18239949  1.70573975 -1.18923484
  H -1.25631455 -0.35478522 -1.48056229
  H -0.50398111 -3.29112878 -1.40571659
  H -0.26347695 -3.45489276  0.34885221
  H -1.69577366 -2.64363225 -0.25537334
  H  1.83965768 -2.53018595  0.06236954
  H  5.51635255  0.06735825 -0.36425745
  H  4.26909655  1.01966643 -1.02491800
  H -3.53100708  1.38912443  0.28699861
  H -5.57941430 -0.31710883 -0.52595029
  H -5.54814084 -0.45328353  1.23348807
  H -5.82477131  1.13392120  0.47414084
