82
opt_min/./Product_3200_opt.xyz
  C -3.10010300  1.35786900  0.94774100
  C -2.13853857  2.31313610  0.30382743
  O -2.29092043  3.50447873  0.42250039
  C -1.01883652  1.77306720 -0.59504476
  C -1.53879073  1.56018386 -2.04089074
  C -2.87455317  2.15258898 -2.38132957
  O -0.81028982  1.09194543 -2.87957972
  C -0.25318453  0.53832650 -0.13848613
  C  0.97062251  0.48939227  0.44523288
  C  1.62634035  1.53700054  1.34902444
  C  0.53421214  2.14306412  2.28645305
  C  0.94345158  3.18358571  3.28906110
  O -0.58861912  1.70351293  2.29075039
  C  2.57684193  0.84785501  2.36008752
  F  3.14619515  1.73487373  3.20771809
  F  1.92818266 -0.00804727  3.16409698
  F  3.60800649  0.21600982  1.82450526
  C  2.52035278  2.58856960  0.62305300
  C  1.90450446  3.95205091  0.27966335
  C  0.39648035  3.93306044  0.08716602
  C -0.03022394  2.93117314 -0.98631819
  C  1.67689408 -0.77199965 -0.07479603
  C  2.61237444 -0.13693418 -1.16055331
  N  2.01416029  0.04432430 -2.34278446
  C  2.66795222  0.69975565 -3.44788815
  O  3.75181980  0.22020842 -0.92996800
  C  2.39096767 -1.80957747  0.77995340
  C  3.63126036 -2.32184644  0.41809237
  C  4.19675957 -3.35942391  1.13802240
  C  3.52982977 -3.91560124  2.21423833
  C  2.28552829 -3.42537862  2.56588260
  C  1.71790304 -2.38826157  1.84980576
  O  0.65938759 -1.50244477 -0.74988158
  C -0.62312864 -0.90523644 -0.54716872
  C -1.28393167 -1.70868863  0.59302335
  C -1.42466680 -1.25600787  1.89835517
  C -1.96828246 -2.07790321  2.87438946
  C -2.34909231 -3.37085991  2.57031137
  C -2.17310453 -3.84379458  1.28066747
  C -1.64607818 -3.02173152  0.30322283
  C -1.47259335 -1.17793346 -1.77980934
  C -0.91136131 -1.73368310 -2.92360183
  C -1.69630666 -2.02737882 -4.02393971
  C -3.05867406 -1.79071922 -3.99582379
  C -3.63374989 -1.28574042 -2.84360650
  C -2.85007743 -0.99212147 -1.74213852
  H -2.78168232  0.32684462  0.89839549
  H -3.21345429  1.65083670  1.98949534
  H -4.07469107  1.47879719  0.47514934
  H -2.93016097  3.18123848 -2.03089575
  H -3.01599598  2.11793299 -3.45911946
  H -3.67097772  1.59280296 -1.90043003
  H  1.81561506  3.75650361  3.00310859
  H  1.16289893  2.66800273  4.22535815
  H  0.09557371  3.83927210  3.47765305
  H  3.40119755  2.77439698  1.23957578
  H  2.89941415  2.11385949 -0.27911285
  H  2.38341382  4.31128900 -0.63310707
  H  2.13620480  4.67741000  1.06187250
  H  0.06468685  4.93240890 -0.19856203
  H -0.08456099  3.72615369  1.03578684
  H  0.84865944  2.45474328 -1.42040735
  H -0.49980492  3.49985655 -1.79395826
  H  1.03294168 -0.16959552 -2.46027042
  H  3.72224118  0.81561045 -3.19992954
  H  2.22623577  1.68272705 -3.62925128
  H  2.56305584  0.09799515 -4.35014876
  H  4.17647464 -1.90217045 -0.40935145
  H  5.16645186 -3.73693424  0.84836342
  H  3.97400450 -4.72756539  2.77149566
  H  1.74513601 -3.84934760  3.39945285
  H  0.74713888 -2.02172639  2.13718518
  H -1.10410443 -0.26612448  2.17626740
  H -2.07596338 -1.69912557  3.87995253
  H -2.76675870 -4.01051185  3.33358786
  H -2.44477074 -4.85934697  1.03349710
  H -1.49906558 -3.40535694 -0.69451724
  H  0.14158510 -1.96540239 -2.94440660
  H -1.23805317 -2.45167148 -4.90497418
  H -3.67084358 -2.01604224 -4.85621754
  H -4.70166356 -1.12797389 -2.79535582
  H -3.32311895 -0.63886198 -0.84020699
