67
opt_min/./Product_3042_opt.xyz
  C -4.11241800 -1.58867600 -2.80833600
  N -3.43718036 -1.70820997 -1.53034554
  C -2.16448282 -1.29875631 -1.43136261
  O -1.49155041 -0.99823228 -2.38933476
  C -1.56251180 -1.37598202  0.01785021
  C -2.64789046 -0.87937949  0.99513372
  O -3.43644862 -0.00644479  0.67982892
  N -2.73068464 -1.51833349  2.17865727
  C -3.65888919 -1.07831619  3.19647033
  C -0.43180815 -0.38970265 -0.02607104
  C  0.76215389 -0.39242026 -0.65850128
  C  1.80167688 -1.43680247 -0.92814746
 Cl  1.68599716 -1.90140711 -2.66258792
  C  3.16640174 -0.84545643 -0.61214310
  C  4.26212587 -0.96662445 -1.45220164
  C  5.49249558 -0.45774671 -1.07350266
  C  5.64375946  0.16122154  0.15333073
  C  4.56035963  0.25754980  1.00997012
  C  3.33202276 -0.25027283  0.63687893
  C  1.71577680 -2.69103171 -0.03344269
  C  0.92535654 -3.88592822 -0.54991424
  C -0.53356781 -3.59838668 -0.87946612
  C -1.27039471 -2.87245175  0.25627902
  C  1.04352778  1.09954687 -0.95416201
  C  2.36683016  1.57856317 -1.55252820
  C  2.46967418  1.37066491 -3.03410631
  O  3.18185579  2.18844490 -0.90788584
  O  0.00147527  1.51719461 -1.91624653
  C -1.14503439  1.54876805 -1.24352861
  O -2.20869144  1.86578176 -1.67252202
  C -0.75403901  1.08766570  0.19248072
  C -1.56382632  1.52395291  1.39351814
  O -2.29152987  2.58498264  1.10909759
  C -3.09439492  3.13277116  2.14523485
  O -1.43509186  1.03729028  2.48835925
  N  0.60280940  1.65375062  0.29665708
  C  0.67437591  3.09243288  0.47901742
  H -3.60619605 -2.21752895 -3.54147065
  H -5.14502459 -1.90562533 -2.69886723
  H -4.07411220 -0.55632436 -3.16143607
  H -4.01736066 -1.78044507 -0.71105385
  H -1.97055536 -2.09964068  2.49145418
  H -3.94202043 -1.92681863  3.81690277
  H -4.53720722 -0.66656693  2.70212200
  H -3.21280420 -0.30163841  3.82148605
  H  4.15460582 -1.45489225 -2.40862320
  H  6.33322963 -0.54544294 -1.74585521
  H  6.60184206  0.56562930  0.44312512
  H  4.66923288  0.73554531  1.97128009
  H  2.48672019 -0.15070277  1.30071729
  H  2.74016747 -3.04066613  0.12768147
  H  1.33157567 -2.36854178  0.93511522
  H  0.97247590 -4.65508452  0.22708625
  H  1.41643510 -4.28909852 -1.43761497
  H -1.01901889 -4.56066615 -1.05863905
  H -0.59986446 -3.02719896 -1.80110688
  H -0.71399217 -3.02113279  1.18299594
  H -2.24973346 -3.34539150  0.37805555
  H  3.46608387  1.01345720 -3.28271338
  H  1.70883326  0.69425493 -3.40491918
  H  2.34099244  2.34263393 -3.50964890
  H -2.57120790  3.97628433  2.60078131
  H -4.01789204  3.46913779  1.67935787
  H -3.29778048  2.37351467  2.90142979
  H  0.57843183  3.29752632  1.54552598
  H -0.10791416  3.63428756 -0.06433490
  H  1.65156678  3.43587088  0.14993218
