54
opt_min/./Product_5862_opt.xyz
  C  0.72916500 -1.22203300 -0.80110200
  O  0.18897591 -2.21164617 -1.23940064
  C  0.23150001 -0.60899644  0.53183783
  O  0.48818523 -1.44707810  1.61477384
  C  1.83428462 -1.84594651  1.77753953
  C  0.75908309  0.84720583  0.67136892
  O  0.40927834  1.28603867  1.95668777
  C  0.38134226  2.68872000  2.15978844
  C  2.24738340  0.98977165  0.36553658
  O  3.05029818  1.43604505  1.14632927
  C  2.59110672  0.42892245 -0.95908976
  C  3.79039352  1.02086484 -1.61316503
  C  1.87508609 -0.58980392 -1.48534730
  C  2.25063261 -1.20882215 -2.79757687
  N -0.00822436  1.45955664 -0.39279502
  C  0.39149401  2.57779411 -1.02490200
  O -0.55335044  3.08466978 -1.82994026
  C -0.17334665  4.24726670 -2.55240914
  O  1.50825334  3.03672530 -0.88077310
  N -1.22262308  0.75998902 -0.66695749
  C -1.28309572 -0.27954674  0.36247168
  C -1.90766025  0.37011481  1.63907914
  C -1.92507285 -0.40240958  2.91241163
  O -2.44781283  1.44368808  1.50241730
  C -2.16802130 -1.42929607 -0.06029817
  C -3.07454524 -1.26169723 -1.09879713
  C -3.91594246 -2.29860484 -1.46323498
  C -3.85984418 -3.51022660 -0.79884291
  C -2.94846443 -3.68490451  0.22863730
  C -2.10931977 -2.65140872  0.60048320
  H  1.83784357 -2.48370622  2.65934702
  H  2.48862708 -0.98765030  1.94772088
  H  2.19231704 -2.41450092  0.91323720
  H  0.30653943  2.81643848  3.23658186
  H -0.50315683  3.12891336  1.68384966
  H  1.28946491  3.16005692  1.78283894
  H  4.67364489  0.42649402 -1.37387349
  H  3.67981655  1.05459655 -2.69269742
  H  3.94500483  2.02452030 -1.22411668
  H  1.61989835 -2.07423527 -2.98221821
  H  3.29474928 -1.51464966 -2.79671538
  H  2.10675061 -0.49168317 -3.60465406
  H -0.06213644  5.09568397 -1.87307504
  H -0.97247692  4.43314029 -3.26500082
  H  0.77345374  4.08302319 -3.07038121
  H -2.00299322  1.41180795 -0.51415433
  H -2.66580325 -1.19565522  2.81347459
  H -2.21408577  0.25345480  3.72917093
  H -0.95552485 -0.84890988  3.10091103
  H -3.11152913 -0.32754410 -1.63473953
  H -4.61750348 -2.15880257 -2.27239452
  H -4.51509491 -4.32002632 -1.08464190
  H -2.88546089 -4.63270212  0.74308744
  H -1.38431094 -2.79750707  1.38380539
