55
opt_min/./Product_5592_opt.xyz
  C -0.38616500  3.76354000 -2.04856400
  C -0.31714446  3.02811298 -0.73710172
  C -0.70503306  3.81012183  0.48019038
  C  0.03713266  1.74649695 -0.71561729
  C  0.09276721  0.86069472  0.49014807
  C -1.25562604  0.12150324  0.67892412
  C -1.74141696  0.14907882  2.11260305
  C -1.11846178 -0.81207820  3.07709712
  C -2.66905319  1.01900419  2.48182292
  N -0.98639283 -1.22263941  0.19874806
  C -1.94562079 -2.12083252 -0.17935255
  C -1.59356123 -3.29818324 -0.85017567
  C -2.56011280 -4.21449563 -1.21073646
  C -3.89477165 -3.99162958 -0.91446303
  C -4.24789641 -2.83765412 -0.23423615
  C -3.29317642 -1.91279839  0.13608954
  N  0.34761304 -1.40125293 -0.24177661
  C  1.10612822 -0.29871502  0.31972008
  C  1.74722987 -0.68434088  1.66691318
  C  2.16189292 -2.12092292  1.79568649
  O  1.95082522  0.14498628  2.51713640
  C  2.32686516  0.06906204 -0.49984377
  C  2.88294707 -0.82217245 -1.40677433
  C  3.99442010 -0.46391826 -2.15122035
  C  4.57255173  0.78192778 -1.98775249
  C  4.04272264  1.66231393 -1.05884121
  C  2.93222281  1.30926293 -0.31564832
  H -1.25788568  3.43461360 -2.61639847
  H -0.47567585  4.83556592 -1.89493434
  H  0.49661032  3.56454225 -2.65355689
  H -1.78712705  3.77748330  0.61690315
  H -0.40947687  4.85196653  0.37385592
  H -0.25045566  3.40790086  1.38135201
  H  0.28438530  1.26845878 -1.65717957
  H  0.34092247  1.42466289  1.39150265
  H -2.01966084  0.60460309  0.04951847
  H -0.73518476 -1.68378780  2.55228219
  H -1.84746547 -1.13666976  3.81645462
  H -0.29127375 -0.33388112  3.59989870
  H -3.11316056  1.71508421  1.78910038
  H -3.01717877  1.07440578  3.49852294
  H -0.55572899 -3.49604117 -1.07113312
  H -2.26530272 -5.11509653 -1.72842893
  H -4.64754630 -4.71050106 -1.20045395
  H -5.28345189 -2.65448345  0.01643138
  H -3.58942069 -1.02839862  0.67832339
  H  0.38144165 -1.36160567 -1.26815142
  H  2.05164719 -2.43619897  2.83059007
  H  3.21559762 -2.19939363  1.52978431
  H  1.57199796 -2.75143241  1.13736499
  H  2.46186466 -1.80869193 -1.53239298
  H  4.40837752 -1.16716797 -2.86013775
  H  5.44026885  1.05885600 -2.56873656
  H  4.49680564  2.63029873 -0.91141242
  H  2.53849368  1.99109837  0.41971119
