32
opt_min/./Product_3355_opt.xyz
  C  0.69798972 -0.28462279 -1.80027713
  C  0.55296088 -0.48098514 -0.28668075
  C  1.13780962 -1.85920777  0.01612688
  C -0.92309675 -0.31103295  0.20705363
  C -1.97121644 -0.80520470 -0.78789494
  C -1.16107327 -1.06111116  1.52253041
  C -1.02410365  1.20654543  0.51320836
  C -1.56831941  2.12761159 -0.58354945
  O  0.28100623  1.59802887  0.91051406
  C  1.29070438  0.69017523  0.45856640
  C  2.15968980  0.31439489  1.67228050
  C  2.16762353  1.42544501 -0.44228661
  N  2.86481443  2.04925869 -1.10070322
  H  0.09330324 -1.00775103 -2.33843747
  H  1.73371365 -0.42259086 -2.09556589
  H  0.39801531  0.70862905 -2.11518141
  H  2.16709434 -1.90811955 -0.33204111
  H  1.12944942 -2.09418471  1.07409315
  H  0.56809425 -2.61540382 -0.51439224
  H -1.77005441 -1.83974054 -1.05180655
  H -1.98377132 -0.21941949 -1.69914657
  H -2.95693869 -0.75549932 -0.33705738
  H -2.14893240 -0.82492976  1.90571285
  H -1.10624706 -2.13323366  1.36949860
  H -0.43203440 -0.78094137  2.27569032
  H -1.65180904  1.36518703  1.39537380
  H -1.11263743  1.94054321 -1.54768296
  H -2.64103606  2.00106436 -0.67305324
  H -1.35204647  3.15075928 -0.29588128
  H  2.79776421 -0.53289868  1.45805583
  H  2.77784886  1.16229099  1.94831757
  H  1.51125935  0.07977719  2.51069888
