48
opt_min/./Product_1529_opt.xyz
  C -0.71895700  3.19451100  1.08744500
  C -0.17313521  2.33682074 -0.03353289
  O  0.75743363  2.73637021 -0.68934477
  C -0.86152474  0.99199697 -0.37594313
  C -0.82648716  0.93895092 -1.91811557
  C -0.00290067 -0.14900457  0.13275449
  C -0.15864260 -1.47808579  0.09052586
  C -1.27598808 -2.38446852 -0.30300713
 Cl -0.57178337 -3.80411844 -1.15791571
 Cl -1.97048290 -3.01922024  1.26958765
  C -2.49983462 -2.04264811 -1.15078628
  C -3.59586961 -1.15010560 -0.57969512
  C -3.43581482  0.36100314 -0.62616442
  C -2.31224152  1.03973562  0.15298295
  C  1.18973194 -2.16141412  0.41013748
  C  1.23003159 -3.40649860  1.30278612
  N  2.01090871 -1.10876681  0.96674030
  C  1.40025190  0.18073062  0.66269984
  C  1.45027079  1.07085854  1.90560168
  C  2.29471211  0.68854299 -0.48219093
  O  2.22535089  0.27756807 -1.61015541
  O  3.23295656  1.51577603 -0.03502788
  C  4.17041568  1.98778834 -0.99360413
  H  0.07674027  3.84117244  1.45119749
  H -1.13648455  2.61909681  1.90501047
  H -1.49310950  3.84573798  0.68238080
  H  0.18517146  1.13745605 -2.26002031
  H -1.11295188 -0.03969423 -2.28001325
  H -1.48653299  1.69733643 -2.33361720
  H -2.18108420 -1.69796470 -2.13548777
  H -2.98223595 -3.01390709 -1.30402197
  H -3.82339438 -1.46990781  0.43818148
  H -4.48308277 -1.36125150 -1.18207041
  H -4.36257019  0.75609882 -0.19967191
  H -3.41154405  0.69326939 -1.66446071
  H -2.59940753  2.09128136  0.12555783
  H -2.34400621  0.71364257  1.19433365
  H  1.61111714 -2.41695335 -0.57396912
  H  1.43820861 -4.30007267  0.72242943
  H  0.30518533 -3.55848545  1.84809724
  H  2.03137570 -3.29647649  2.02999360
  H  2.13151638 -1.22653718  1.96523742
  H  0.56228763  0.91854928  2.51531756
  H  2.32653297  0.80056766  2.49164619
  H  1.55364342  2.11807230  1.65370610
  H  5.07848077  2.23763533 -0.45012795
  H  3.76533431  2.87348924 -1.48712136
  H  4.36321065  1.21562085 -1.74051275
