32
opt_min/./Product_4033_opt.xyz
  C -2.55286087  0.64000615  0.98018861
  O -3.28592869  0.17049095  1.81277690
  C -2.93708647  1.73516023  0.08040371
  C -2.02761918  2.50768210 -0.52027133
  C -0.56570796  2.34027302 -0.38878591
  O  0.18605475  3.10140058 -0.94704227
  C -0.07030305  1.20426329  0.50010508
  C -1.13102665  0.12920839  0.77724139
  N -1.04448771 -0.71702540 -0.40770507
  C -2.11599140 -1.03585297 -1.09939828
  N -3.05443512 -1.38718806 -1.66218611
  N  0.17830277 -0.41988804 -1.12479660
  C  0.70087872 -1.58046074 -1.81051789
  C  1.00961177  0.32893323 -0.19966190
  C  1.69273081 -0.46828539  0.93546815
  O  1.31890955 -1.74410559  0.98028402
  C  1.88171646 -2.56033357  2.00277908
  O  2.45824060  0.04169647  1.70980295
  C  2.11331150  1.08279430 -0.93839330
  H -3.99795757  1.91816677 -0.01752465
  H -2.31730464  3.33579521 -1.15119245
  H  0.31475773  1.65307239  1.41973385
  H -0.85898232 -0.46487918  1.66461327
  H  0.02763890 -1.80802967 -2.63755675
  H  1.67637879 -1.32480960 -2.21397165
  H  0.78830572 -2.46294089 -1.17038521
  H  1.99826763 -3.55622727  1.58252806
  H  1.20298222 -2.59336070  2.85612681
  H  2.84326389 -2.15092844  2.31656178
  H  1.71609875  1.56261723 -1.82637039
  H  2.53530615  1.83897038 -0.28531487
  H  2.90431620  0.39361963 -1.22438460
