25
opt_min/./Product_72_opt.xyz
  C -3.51874227  1.63834537  0.47141718
  O -2.86940827  0.37543138  0.37353875
  C -1.56811968  0.29057446  0.16211390
  C -0.50796256  1.14354240  0.11776492
 Cl -0.42293913  2.84938004  0.32047288
  C  0.66507809  0.33635873 -0.14437149
  C  2.05909296  0.87414613 -0.26985272
  N  2.97544595 -0.10965852 -0.21600719
  C  4.39161847  0.15891427 -0.26789533
  O  2.31147798  2.05631138 -0.37316582
  N  0.41552663 -0.92227802 -0.25924302
  C -1.00896815 -1.10724020 -0.11591559
  C -1.37510378 -2.16418241  0.92093708
  C -1.54052516 -1.46233020 -1.42450384
  N -1.93464496 -1.72672172 -2.46221589
  H -2.81329442  2.45200371  0.61233279
  H -4.20121543  1.58045671  1.31903671
  H -4.09191152  1.79107451 -0.44581431
  H  2.64592563 -1.06409404 -0.26543120
  H  4.51711044  1.23517285 -0.37685427
  H  4.85658902 -0.35962375 -1.10564740
  H  4.87283276 -0.15472453  0.66242790
  H -2.45629365 -2.25267746  0.97681022
  H -0.98853920 -1.85920330  1.88977664
  H -0.93053755 -3.11253562  0.63342613
