51
opt_min/./Product_2020_opt.xyz
  C  0.64951293  2.83201694  1.33780620
  O  1.49692872  1.71422514  1.19521703
  C  1.49719872  1.04101010  0.02942231
  C  2.41863897  0.14867006 -0.39420108
  C  3.62796943 -0.32894058  0.24171857
  C  3.80863635 -0.15224939  1.61554287
  C  4.95735399 -0.60338204  2.23420573
  C  5.94316666 -1.23949605  1.49799980
  C  5.77364767 -1.42179310  0.13659314
  C  4.62702498 -0.97375089 -0.48942453
  C  1.88803352 -0.28433063 -1.74905882
  C  0.66798205 -1.21113366 -1.42081960
  C -0.42323484 -0.17655698 -1.09529475
  C  0.45480950  1.12064925 -1.07848999
  O  1.24163371  0.88427251 -2.23154156
  C -1.05542186 -0.72869621  0.18505969
  C -2.03319453 -1.86449161 -0.21854406
  O -3.01486367 -1.41086351 -0.99141640
  C -3.99214971 -2.37043362 -1.38850037
  O -1.91641203 -2.99859633  0.15744033
  C -1.88036500  0.19514075  1.04639392
  C -2.24253128 -0.22601371  2.32334973
  C -3.04201868  0.56832940  3.12464701
  C -3.50885053  1.78475381  2.65493171
  C -3.18382373  2.19121715  1.37355090
  C -2.37576772  1.40103485  0.57059798
  N  0.09324684 -1.30950425  0.87273978
  N  0.81316316 -1.96099544 -0.19365613
  C  1.72261145 -2.86955771  0.03129757
  N  2.50283214 -3.69378861  0.21588601
  H  0.87047323  3.23491352  2.32555712
  H  0.85881840  3.59577191  0.58248345
  H -0.40536679  2.54730266  1.29466978
  H  3.03239458  0.33183537  2.18498193
  H  5.08244775 -0.46548474  3.29848924
  H  6.83898705 -1.59720698  1.98438036
  H  6.53871545 -1.92011307 -0.44043043
  H  4.51051898 -1.12011586 -1.55215700
  H  2.58196512 -0.68112151 -2.48032606
  H  0.42286552 -1.89079322 -2.24516172
  H -1.14497698 -0.05149906 -1.90246662
  H -0.07784324  2.06435348 -1.16195570
  H -4.70617821 -1.83689075 -2.00956919
  H -3.52012980 -3.17977074 -1.94849661
  H -4.48249875 -2.79126156 -0.50899854
  H -1.89396834 -1.17689475  2.69647018
  H -3.31017869  0.23432772  4.11546645
  H -4.13530929  2.40209983  3.28054450
  H -3.55929563  3.12770209  0.98861137
  H -2.17718922  1.71309708 -0.44230093
  H -0.21690416 -2.02825084  1.53012135
