32
opt_min/./Product_171_opt.xyz
  F -0.55464800 -0.93389000  1.68707900
  C -0.65959716 -0.03431010  0.65387215
  C -1.70468646  1.09718420  0.92524084
  F -2.25609047  1.08237052  2.18996412
  C -2.75478272  0.88570019 -0.17075599
  C -3.48338157 -0.43072029  0.13974144
  C -2.44110807 -1.51184022 -0.23348079
  C -1.20715237 -0.69035050 -0.62594952
  C -1.84317388  0.50391637 -1.34314949
  N -0.90866116  2.28046891  0.77153478
  N  0.39554216  2.04162756  0.58761056
  C  0.62135863  0.77742570  0.48540911
  C  1.92974226  0.21993430  0.24993774
  C  2.14788294 -1.15988466  0.26573899
  C  3.41247837 -1.66450022  0.02993829
  C  4.47379391 -0.81293305 -0.22605579
  C  4.26807814  0.55928408 -0.24130652
  C  3.00898722  1.07305489 -0.00534619
  H -3.41144204  1.74021830 -0.32586117
  H -4.38524220 -0.51905840 -0.45923242
  H -3.76085312 -0.47905530  1.18753421
  H -2.23644972 -2.18629576  0.59174172
  H -2.77072869 -2.10419912 -1.08325196
  H -0.45332600 -1.23815420 -1.18952531
  H -1.12901005  1.27904682 -1.60501954
  H -2.40322141  0.20505298 -2.22391109
  H -1.20352990  3.19654767  1.04766488
  H  1.34495270 -1.85031191  0.47971193
  H  3.57331034 -2.73192620  0.04866691
  H  5.45984429 -1.21117112 -0.41000317
  H  5.09215508  1.23052114 -0.43673525
  H  2.83840626  2.13850073 -0.01383557
