32
opt_min/./Product_288_opt.xyz
  C -1.46911050  3.34130915  0.46006954
  O -1.22886417  1.93742422  0.53612958
  C -0.13307551  1.45839354 -0.06438436
  O  0.66440592  2.12410866 -0.65921803
  C -0.05350729 -0.03063864  0.21066373
  C  0.99927841 -0.87082987 -0.56913918
  O  1.56686672 -0.19347965 -1.61966524
  C  2.58262036 -0.89485494 -2.32125977
  C  1.95250066 -1.31282381  0.60698564
  C  2.64402671 -0.05013002  1.06591563
  C  1.72476622  0.61995812  1.74633277
  C  0.47601655 -0.24099135  1.67988268
  O  1.00572651 -1.54280434  1.63277479
  O  0.30019519 -2.00902425 -1.06728249
  O -0.91275117 -2.12621445 -0.35362769
  C -1.35755388 -0.79865739 -0.12358145
  C -2.05809631 -0.22868529 -1.36927696
  C -2.28472737 -0.81654332  0.99418542
  N -3.02665903 -0.79821966  1.86082669
  H -2.39748909  3.50304828 -0.08750100
  H -0.63857913  3.83099997 -0.05008261
  H -1.56990086  3.71772070  1.47715493
  H  3.44727238 -1.08321307 -1.67956211
  H  2.20063511 -1.84048167 -2.71207362
  H  2.86615378 -0.23582638 -3.13805889
  H  2.53879423 -2.20267438  0.40459300
  H  3.65060243  0.22550531  0.82635469
  H  1.77587184  1.57974659  2.21841741
  H -0.27542668 -0.13283497  2.45643230
  H -2.71081709 -0.99732242 -1.77852919
  H -1.31254991  0.04126180 -2.11529143
  H -2.65211875  0.64333590 -1.11075568
