46
opt_min/./Product_4821_opt.xyz
  C -1.83225500 -1.94417300  1.13356800
  C -0.75575333 -1.00787651  0.58721375
  C  0.03863253 -0.48095194  1.79367318
  C  0.17230231 -1.68373779 -0.46287981
  C  1.10378759 -2.76390432  0.07971299
  C -0.66203844 -2.36272389 -1.56633457
  C  0.83067019 -0.44264013 -1.11833649
  C  2.03719199  0.26094666 -0.50741039
  C  3.16181026 -0.38027433 -0.00325446
  C  4.23718404  0.35039593  0.47668288
  C  4.22080394  1.73209434  0.45115138
  C  3.11830196  2.38322517 -0.07451793
  C  2.04687944  1.65560188 -0.55614848
  O -0.26161478  0.46932771 -1.22490592
  C -1.26033099  0.20698728 -0.25601164
  C -1.53985799  1.45431043  0.59630445
  O -1.00137909  2.54003578  0.05311901
  C -1.23701995  3.76718490  0.72770321
  O -2.21782387  1.46676562  1.58946780
  C -2.63118902  0.10879034 -0.96872074
  C -2.70286476  0.85422460 -2.27621051
  O -3.59339524 -0.42158551 -0.48257220
  H -2.29394847 -1.49862494  2.01041128
  H -2.62220437 -2.14509489  0.41960671
  H -1.37068186 -2.88549761  1.42359251
  H  0.50598479 -1.30345689  2.32860030
  H -0.63976463  0.01192887  2.48469881
  H  0.81081109  0.22679949  1.49975678
  H  1.89233177 -2.96505455 -0.64090795
  H  1.55182538 -2.49860095  1.03151737
  H  0.53783514 -3.68352147  0.21704846
  H -1.22106537 -1.63757246 -2.15144793
  H -1.36549635 -3.07192594 -1.14105327
  H  0.00341988 -2.90265590 -2.23839978
  H  1.11950297 -0.68180361 -2.15560836
  H  3.22768355 -1.45209872  0.02169134
  H  5.09803294 -0.17257293  0.86923718
  H  5.06137549  2.29459438  0.82870796
  H  3.09318638  3.46297767 -0.11740587
  H  1.18778147  2.16362497 -0.96369549
  H -1.08754991  3.64083921  1.80112181
  H -0.52612432  4.48129875  0.32045911
  H -2.26182309  4.09925170  0.54615871
  H -3.61178114  1.45419056 -2.27750303
  H -1.82875289  1.47755282 -2.42541029
  H -2.78371416  0.13513244 -3.08951402
