56
opt_min/./Product_3063_opt.xyz
  N -0.31695100  2.96366114 -2.65570175
  C -0.64768067  2.08044855 -2.01141058
  C -1.07357002  0.93219433 -1.22288287
  C -1.72219109  1.43637185  0.07274802
  C -2.51515942  2.57423480  0.03929277
  C -3.16655696  2.99824503  1.18319536
  C -3.03987230  2.28391769  2.36100720
  C -2.25543982  1.14520455  2.39578333
  C -1.60005225  0.71734888  1.25482964
  C  0.18823897  0.18267879 -0.89087443
  C  0.57017805 -1.09937314 -0.82684704
  C -0.07910274 -2.35901853 -1.29213828
 Br  1.07944392 -3.92709162 -0.89757503
 Br -0.02962354 -2.30130142 -3.29835379
  C -1.46227518 -2.71744151 -0.75005222
  C -2.67430143 -2.22364334 -1.53365587
  C -3.06333653 -0.76516111 -1.34106458
  C -2.19770175  0.26941414 -2.06292054
  C  1.94502571 -1.18811433 -0.17525030
  C  1.77541823 -1.99468080  1.11669967
  O  0.74198670 -2.02467262  1.73765234
  O  2.89782845 -2.60040790  1.46377006
  C  2.88055086 -3.41284610  2.63272869
  N  2.37881174  0.18229739  0.08770980
  C  2.58070250  0.54028970  1.47915132
  C  1.44725770  1.03395155 -0.65899263
  C  1.33722954  2.44722666 -0.05083480
  N  2.37189870  3.23047349 -0.40188517
  C  2.47411285  4.59869581  0.04674896
  O  0.44741586  2.80239129  0.68592381
  C  2.00403406  1.14300060 -2.00992297
  N  2.46970285  1.14698063 -3.05393524
  H -2.60601212  3.14303816 -0.87489048
  H -3.77282601  3.89104127  1.15113736
  H -3.54823735  2.61746117  3.25374356
  H -2.14793083  0.58431037  3.31228662
  H -0.98166356 -0.16773725  1.30188390
  H -1.49874066 -2.37413840  0.28765289
  H -1.53878672 -3.80726828 -0.73557182
  H -3.52272445 -2.83347882 -1.21505010
  H -2.51372707 -2.43121744 -2.59313207
  H -4.07790031 -0.66702834 -1.73370468
  H -3.10749733 -0.53121512 -0.27758023
  H -2.85836024  1.10398718 -2.31581758
  H -1.80101852 -0.11986001 -3.00008113
  H  2.69570850 -1.67908330 -0.80989934
  H  2.86768575 -4.45916330  2.32534942
  H  1.99566732 -3.19001728  3.23083680
  H  3.78824913 -3.19863633  3.19378519
  H  1.65872997  0.53189389  2.07384028
  H  3.29933792 -0.15689170  1.90609810
  H  3.01435878  1.53752502  1.52595922
  H  3.07367832  2.88842102 -1.04019865
  H  1.49731387  4.90464295  0.41758806
  H  2.76826893  5.23775077 -0.78352313
  H  3.20614657  4.69080941  0.85279387
