34
opt_min/./Product_286_opt.xyz
  C  3.51293275  2.26516994 -0.91926972
  O  2.80072775  2.06497623  0.29003017
  C  3.05857594  0.95154762  0.96187456
  C  3.94552754 -0.05833022  0.82213985
  C  4.99282350 -0.24800755 -0.07327578
  N  5.87713916 -0.41729273 -0.78898044
  C  3.53848995 -1.06453857  1.89549201
  C  2.24145464 -1.75690599  1.39627123
  C  1.24587288 -0.58438531  1.48953765
  C  2.16069759  0.52190232  2.11317463
  O  3.04343477 -0.21918302  2.92140400
  C  0.89825796 -0.34156081  0.03539023
  C  0.06109619  0.76019582 -0.41464874
  C -0.04631854  1.02046119 -1.78252606
  C -0.80963946  2.07607762 -2.23765099
  C -1.48026350  2.88658495 -1.33475603
  C -1.38688790  2.63220805  0.02326320
  C -0.62200269  1.57721178  0.48472222
  N  1.44057852 -1.15343357 -0.78004155
  C  2.22349948 -2.14475597 -0.09564005
  H  4.58206511  2.38400020 -0.73319960
  H  3.10898334  3.17394404 -1.35761642
  H  3.35934364  1.42231991 -1.59528065
  H  4.31849037 -1.72651279  2.25996362
  H  1.99150746 -2.58818331  2.05201994
  H  0.37763695 -0.77778742  2.11626425
  H  1.66829064  1.31659590  2.66208425
  H  0.48575464  0.37751916 -2.46645943
  H -0.88336750  2.26886623 -3.29737247
  H -2.07712838  3.71441370 -1.68845981
  H -1.91309193  3.26082992  0.72622016
  H -0.56461798  1.38635633  1.54508015
  H  3.21982499 -2.18740763 -0.54535594
  H  1.75248272 -3.11810098 -0.25689266
