40
opt_min/./Product_1139_opt.xyz
 Cl  2.42571387  2.36294709  0.45339316
  C  1.84726685  0.68482585  0.39348328
  C  0.66862820  0.41681178 -0.55656497
  C  1.26884493 -0.76445574 -1.37966511
  C  2.28994026 -0.09513047 -2.27804408
  C  3.32032478  0.18745596 -1.49361306
  C  2.91838048 -0.32195317 -0.12391616
  O  2.09411472 -1.42652614 -0.43359982
  C -0.53229318  0.09533103  0.39488305
  C -1.25778953 -1.20072989  0.06553212
  C -2.48282165 -1.22012086 -0.58559324
  C -3.11300042 -2.41999046 -0.87222982
  C -2.52435761 -3.61255512 -0.50129094
  C -1.30877251 -3.60471673  0.15887789
  C -0.67643609 -2.40803528  0.44594391
  C -1.48818282  1.27974409  0.43269075
  C -1.95082217  1.76914123  1.64757102
  C -2.81330315  2.84986504  1.68626542
  C -3.23589071  3.45480411  0.51720522
  C -2.79399043  2.96026108 -0.69720678
  C -1.92843678  1.88243875 -0.74271318
  N  0.04474508 -0.04485607  1.71354676
  C  1.26598693  0.28028354  1.72465177
  C  2.05829787  0.23738733  2.89319436
  N  2.71850305  0.16885458  3.82621424
  H  0.44352282  1.25939402 -1.20816032
  H  0.55948061 -1.45044246 -1.83061290
  H  2.13331315  0.13188500 -3.31387068
  H  4.23661002  0.70068840 -1.70628217
  H  3.69987024 -0.57507538  0.58574692
  H -2.96230762 -0.29536146 -0.86649701
  H -4.06161742 -2.41439434 -1.38175934
  H -3.01584141 -4.54867989 -0.72215281
  H -0.84826045 -4.53249319  0.46172347
  H  0.27136134 -2.41392156  0.95954240
  H -1.62970218  1.29412276  2.56271503
  H -3.15594253  3.22135353  2.64117322
  H -3.90834602  4.29995366  0.54853130
  H -3.12418360  3.41765687 -1.62030810
  H -1.60599082  1.50603661 -1.70361205
