46
opt_min/./Product_5257_opt.xyz
  C -1.32606002 -1.54658508 -0.91275083
  C -2.38011985 -1.96247056  0.06579364
  C -2.50368505 -1.36968882  1.25258222
  N -1.61032125 -0.44334809  1.73463664
  C -1.82297445  0.20277229  3.00340327
  C -0.52720195  0.03335889  0.92812585
  C -0.10549962 -0.88828851 -0.23174925
  C  0.84413962 -2.00202337  0.20317380
  N  0.48273141 -2.64131303  1.33189557
  O  1.82806333 -2.31228357 -0.43229560
  C  0.58685250  0.08767065 -1.21964483
  C  1.99037122  0.52786325 -0.76044269
  O  2.22229094  0.35409939  0.54033792
  C  3.48694109  0.79229984  1.02870373
  O  2.76688918  1.07158434 -1.50324369
  C  0.74869855 -0.46087099 -2.63286914
  N -0.18688887  1.33139945 -1.12204704
  C -0.96383113  1.80693674 -2.24023958
  C -0.75399104  1.42697000  0.21195929
  C -2.16516887  1.74076994  0.20693867
  N -3.27826062  2.00693550  0.19163964
  C -0.05912660  2.55597660  1.02280593
  C  0.53786972  3.65095833  0.19615294
  O -0.04175605  2.53514129  2.22495104
  H -0.98686281 -2.40750365 -1.49261158
  H -1.78274044 -0.84256393 -1.61423353
  H -3.08700017 -2.70691498 -0.25760834
  H -3.28828299 -1.64137844  1.94073302
  H -2.09835616  1.25390315  2.88222718
  H -2.62282680 -0.30438883  3.53621614
  H -0.91057320  0.16173713  3.60450278
  H  0.32065233  0.17160680  1.61090998
  H -0.38929492 -2.46022364  1.79565623
  H  1.03805142 -3.43420281  1.61061257
  H  3.41236575  1.83432013  1.34447853
  H  3.72751627  0.15697820  1.87674984
  H  4.23661302  0.69710996  0.24252174
  H -0.19539725 -0.57742412 -3.15156827
  H  1.38994454  0.20589898 -3.20263862
  H  1.24375418 -1.42555098 -2.56112825
  H -1.82902811  1.18115932 -2.50029546
  H -0.31169726  1.88700973 -3.10630538
  H -1.33930487  2.80205668 -2.00469328
  H -0.24686774  4.17386846 -0.34601264
  H  1.06345363  4.35289902  0.83702886
  H  1.21772873  3.21996557 -0.53687372
