39
opt_min/./Product_1498_opt.xyz
  C -3.52210530  2.34837960 -1.31396386
  O -2.80967966  1.20793398 -0.84495146
  C -1.68381547  0.92368062 -1.46790335
  O -1.23963637  1.53229705 -2.40667414
  C -0.97476627 -0.29237993 -0.85580414
  C -0.18191000  0.02158728  0.43452991
 Cl -0.28984872  1.74147062  0.92044637
  C -0.96171654 -0.83972367  1.48451688
  C -0.64063423 -2.29337946  1.21398728
  C -1.28937911 -2.58907083  0.09342578
  C -2.01791730 -1.31686336 -0.29175222
  O -2.27662605 -0.73703722  0.97260606
  C  1.29744249 -0.23438624 -0.01855170
  C  2.34681454  0.31923909  0.88681889
  C  3.18125313  1.34829238  0.47819739
  C  4.12934027  1.85127997  1.35445034
  C  4.24281360  1.33131293  2.62957621
  C  3.41331637  0.29916458  3.03597521
  C  2.46287498 -0.20667340  2.16705802
  N  1.26882737  0.21191875 -1.40820982
  C  0.19909559 -0.67612148 -1.81933214
  C -0.13403109 -0.68093885 -3.23172858
  N -0.36727038 -0.75756799 -4.34581028
  O  0.72814979 -1.94980511 -1.45014565
  C  1.42999909 -1.74071238 -0.31176885
  O  2.03660728 -2.57820054  0.26987470
  H -2.91728140  3.24887937 -1.19238198
  H -4.42391371  2.39774548 -0.70760397
  H -3.76613874  2.22965612 -2.37220253
  H -0.89360226 -0.47525023  2.50444188
  H  0.00359913 -2.90333504  1.81415118
  H -1.31294504 -3.49891697 -0.47045800
  H -2.92320577 -1.41087325 -0.88350315
  H  3.10316699  1.74434859 -0.52204684
  H  4.77642193  2.65376601  1.03365065
  H  4.98208693  1.72809970  3.31030411
  H  3.50117899 -0.11480796  4.02827988
  H  1.81768440 -1.01338422  2.47758866
  H  1.01928590  1.19648779 -1.49785941
