39
opt_min/./Product_590_opt.xyz
  N -0.18503600 -0.21739026  3.04280729
  C -0.03125672 -0.05858425  1.92153476
  C  0.18186157  0.14239970  0.50525457
  C  0.94710356  1.48743680  0.26742367
  F  1.24896012  2.12634604  1.44495152
  C  2.23372307  1.06542179 -0.45839901
  C  3.14555800  0.35126340  0.54655580
  C  2.39558814 -0.96939102  0.81355839
  C  1.16948531 -0.87936894 -0.10880686
  C  1.72540729 -0.10106836 -1.30520941
  C -0.00761377  2.38302478 -0.56750799
  C -0.41187074  3.58035518  0.17603900
  N -0.76589741  4.51531620  0.72641182
  C  0.60866831  2.87125497 -1.80201505
  N  1.05274337  3.23225515 -2.79138906
  N -1.11185977  1.52800714 -0.94284149
  C -2.28445396  2.15947756 -1.50452062
  C -1.20828923  0.28971767 -0.20246600
  C -2.30342456  0.41658465  0.90727096
  C -2.91045122 -0.85950781  1.42610114
  O -2.63916036  1.50529164  1.28695076
  C -1.56253196 -0.84972182 -1.16259326
  H  2.71697255  1.88932528 -0.97889124
  H  3.29961151  0.93885681  1.44880549
  H  4.11252764  0.16872086  0.08096241
  H  2.10370993 -1.06863022  1.85897594
  H  3.00414206 -1.83292069  0.55283603
  H  0.72677855 -1.84824393 -0.32126176
  H  0.98022493  0.20964326 -2.03700560
  H  2.53096964 -0.63557621 -1.79982955
  H -3.09329541  1.43729659 -1.55932991
  H -2.62957667  3.00771546 -0.90402341
  H -2.06457065  2.50720014 -2.51754807
  H -2.14993161 -1.58624882  1.69360999
  H -3.55636572 -1.29102861  0.66544435
  H -3.51018202 -0.62758004  2.30293899
  H -1.42898537 -1.81797732 -0.69008754
  H -0.94278328 -0.81310656 -2.05513782
  H -2.59803405 -0.76385280 -1.47865129
