48
opt_min/./Product_1546_opt.xyz
  C  5.37663000 -0.45756800  0.09868900
  N  4.06348501 -0.57778540  0.68969019
  C  2.94951349 -0.36096113 -0.02780635
  O  2.94610004 -0.11235501 -1.21473014
  C  1.63842038 -0.54731598  0.75449122
  F  1.91127935 -0.46975269  2.13355015
  C  0.63527256  0.51676411  0.43977124
  C -0.68885489  0.50320600  0.19095759
  C -1.88133895 -0.39108155  0.14153358
  C -2.75076451  0.22820574 -1.00567653
  C -2.19611481  0.02997163 -2.39110841
  O -3.76004052  0.83511746 -0.80767932
  C -2.64838428 -0.25049867  1.50569839
  C -1.79911447 -0.34336825  2.74972573
  O -3.83732459 -0.17681274  1.55585830
  C -1.79188725 -1.93072620  0.00401900
  C -0.84337163 -2.58936656 -1.00382714
  C  0.58577320 -2.06169132 -0.96364673
  C  1.14609490 -1.96426840  0.45888980
  N -1.09012608  1.88881622 -0.05830328
  N  0.11316512  2.41810022 -0.64088401
  C  0.98592155  2.02413956  0.43467740
  C  2.40981193  2.48692560  0.33890855
  O  0.28774633  2.56759405  1.61294105
  C -1.00125262  2.46424773  1.30244192
  O -1.92958749  2.77984216  1.96451304
  H  6.07799596 -1.09685657  0.62808198
  H  5.31562837 -0.76064208 -0.94652203
  H  5.72566123  0.57710816  0.13857079
  H  3.99989187 -0.84007363  1.66073437
  H -2.63694731  0.77493613 -3.04869757
  H -1.11448728  0.12233685 -2.40311745
  H -2.48123529 -0.95313858 -2.75817895
  H -1.91712129 -1.33763850  3.18037285
  H -0.74612342 -0.14995394  2.57781602
  H -2.18689845  0.36815273  3.47613583
  H -2.80939353 -2.25314840 -0.23813786
  H -1.57673252 -2.34041892  0.99035584
  H -0.84244289 -3.65811119 -0.78009689
  H -1.21980880 -2.47116627 -2.01720156
  H  1.22522165 -2.70421774 -1.56962694
  H  0.61718176 -1.07792011 -1.42560335
  H  1.97440298 -2.66090791  0.60095469
  H  0.38945437 -2.20356762  1.20203528
  H  0.01837816  3.43009224 -0.73204509
  H  2.74232541  2.38182321 -0.68927450
  H  3.04712583  1.90926737  1.00120556
  H  2.46288860  3.53162362  0.64143606
