48
opt_min/./Product_1168_opt.xyz
  C  4.21282400  2.50937700 -0.79594700
  O  3.25974173  1.75819781 -0.05579255
  C  2.93755013  0.56524266 -0.52119155
  O  3.37184955  0.07638567 -1.52916238
  C  1.88789114 -0.13276145  0.38184880
  C  2.26146668  0.15284988  1.86165151
  C  1.13602735  0.24667065  2.85255894
  O  3.41276221  0.25694180  2.18604172
  C  0.58771294  0.51612398  0.02994315
  C -0.74371083  0.18891477 -0.12301318
  C -1.36507114  1.47211443 -0.27258106
  C -2.77650053  1.97299556 -0.26820060
  N -3.00505421  2.86364983 -1.25236716
  C -4.24844698  3.58741428 -1.35547059
  O -3.59414508  1.66464033  0.57327929
  N -0.47098429  2.42905975 -0.23948594
  O  0.72511210  1.85956126 -0.05044564
  C -1.40678439 -1.14189781 -0.36520112
  C -2.92478950 -0.94796519 -0.48105790
  C -0.92707097 -1.66676131 -1.72726233
  C -1.19375662 -2.17559056  0.76057028
  C  0.00930696 -3.11856693  0.75470505
  C  1.42488065 -2.64649953  1.08001962
  C  2.10994744 -1.64081106  0.16192252
  H  4.95495862  1.84348322 -1.23986152
  H  4.67747769  3.19401230 -0.09080235
  H  3.70745969  3.06589592 -1.58791200
  H  1.16603928  1.23723129  3.30576270
  H  0.16205232  0.08365698  2.40548060
  H  1.30697887 -0.47181598  3.65265619
  H -2.23691195  3.14555877 -1.83975971
  H -4.16640529  4.58090416 -0.90793881
  H -5.00636589  3.02177259 -0.81518400
  H -4.53654917  3.68630436 -2.40140998
  H -3.34213009 -0.53192138  0.43081995
  H -3.40460993 -1.90385160 -0.67838663
  H -3.16967449 -0.28020181 -1.30516609
  H -1.21438166 -0.97114801 -2.51355797
  H -1.39007873 -2.62815144 -1.93824724
  H  0.15099246 -1.78129131 -1.75953879
  H -2.04513823 -2.85741838  0.67916817
  H -1.29020518 -1.68157359  1.72945877
  H -0.21760714 -3.86723319  1.51981928
  H  0.03110648 -3.64900772 -0.19848376
  H  1.49161908 -2.31656479  2.11610737
  H  2.03093868 -3.55485189  1.00531854
  H  1.94090785 -1.89097007 -0.88521409
  H  3.18534743 -1.76222211  0.33325941
