29
opt_min/./Product_3318_opt.xyz
  C -2.28038900 -0.16639400 -1.24437300
  C -0.80181954 -0.13338697 -1.64633913
  N -0.10732835 -0.10649586 -0.36955144
  C  1.23665183 -0.26114134 -0.19548673
  C  2.10277421 -0.33359379 -1.29333351
  C  3.46285136 -0.47706716 -1.09697436
  C  3.99231148 -0.55132873  0.18005544
  C  3.13883749 -0.49263777  1.27142353
  C  1.78026812 -0.35012062  1.09216389
  N -0.98426019  0.07126478  0.71511630
  C -1.10604142  1.48733274  1.06332047
  C -2.19611496 -0.58768885  0.23759467
  C -3.45564916 -0.31013722  1.04870822
  H -2.74772882  0.81409922 -1.33505503
  H -2.84843112 -0.87906397 -1.83998124
  H -0.54962772  0.73343055 -2.26969507
  H -0.52498088 -1.04120585 -2.19580039
  H  1.70858460 -0.28049909 -2.29528654
  H  4.11921929 -0.52620519 -1.95453085
  H  5.05762006 -0.66043070  0.32277612
  H  3.53660753 -0.56296086  2.27395738
  H  1.11461374 -0.31799644  1.94100076
  H -0.97442799  2.14323819  0.19480054
  H -2.06699402  1.70189203  1.52186495
  H -0.32157440  1.72331575  1.78723514
  H -1.98570651 -1.66351715  0.27994878
  H -3.20856083 -0.22528868  2.10391637
  H -4.15755866 -1.13053493  0.92617404
  H -3.94510830  0.60390910  0.71871175
