44
opt_min/./Product_4887_opt.xyz
  C  5.24762448  1.28084368  0.62543384
  C  4.19052175  0.62306937 -0.20456809
  C  4.67673497  0.03617968 -1.49478414
  C  2.91721608  0.58298240  0.20736879
  C  1.81517317 -0.04417246 -0.47846388
  C  0.57678663 -0.05059538  0.01706794
  C -0.61305047 -0.73094155 -0.61766460
  C -0.53529462 -0.67285324 -2.14530833
  C -0.69441119 -2.18951747 -0.10991723
  C -1.86744644 -2.21405534  0.91181382
  C -1.47482576 -2.93512951  2.10892617
  N -1.11661802 -3.52269870  3.02044746
  C -2.98528306 -2.97435603  0.34700431
  N -3.83223373 -3.60012747 -0.09518086
  N -2.30046707 -0.83916179  1.14777768
  C -2.00230566 -0.29631982  2.45753198
  C -1.95379777 -0.10916971 -0.07310072
  C -1.81317942  1.43042610  0.04685538
  N -2.18152213  2.08214375 -1.07124390
  C -2.11191992  3.52263505 -1.16160437
  O -1.33914007  1.98553934  1.01088420
  C -3.06311735 -0.39486904 -0.96926594
  N -3.97263745 -0.58987831 -1.63646103
  H  6.08872982  0.60692708  0.77817693
  H  4.86413694  1.58137548  1.59609952
  H  5.62321655  2.17272073  0.12023419
  H  3.91941843  0.08268085 -2.27239514
  H  4.95693815 -1.00853619 -1.35189577
  H  5.55875539  0.57433750 -1.83752526
  H  2.66369378  1.04413114  1.15447502
  H  2.03106821 -0.52422160 -1.42152007
  H  0.40367949  0.42443101  0.97026404
  H  0.30315959 -1.27330697 -2.48879570
  H -1.43880644 -1.06953025 -2.60536491
  H -0.38457212  0.35213256 -2.47724788
  H  0.23642792 -2.47478828  0.38545250
  H -0.89058562 -2.88996140 -0.92213070
  H -0.93199249 -0.22022397  2.67391286
  H -2.46537168 -0.94527074  3.20287395
  H -2.44904636  0.69130212  2.53642721
  H -2.64517415  1.59601476 -1.82184950
  H -1.46507838  3.87795413 -0.36195997
  H -3.10183153  3.96856475 -1.04357390
  H -1.69767031  3.80982884 -2.12757009
