51
opt_min/./Product_5529_opt.xyz
  C  6.01278300 -0.39438400 -1.33850300
  C  4.93551646  0.11714370 -0.43168210
  C  5.43834818  0.89355254  0.75049412
  C  3.64232209 -0.09208727 -0.70206907
  C  2.51449389  0.37192671  0.06825271
  C  1.25546620  0.13179795 -0.29863111
  C  0.00987504  0.62978299  0.37123644
  C  0.29809382  1.54975446  1.55377700
  C -0.83397261  1.36510832 -0.70314338
  C -1.98947704  0.43283962 -0.94578887
  C -3.02964319  0.70329563 -1.93423774
  C -2.77286944  1.41785845 -3.10134801
  C -3.79654716  1.67283770 -3.99550834
  C -5.08163362  1.22833819 -3.73181634
  C -5.34237835  0.51037912 -2.57559987
  C -4.32272811  0.24603343 -1.68163518
  N -2.01004118 -0.60526030 -0.21818839
  C -0.95768910 -0.56420978  0.76617541
  C -1.64176536 -0.31786314  2.12267411
  O -0.81813988 -0.63454246  3.12481545
  C -1.33317646 -0.49269507  4.44385917
  O -2.75427790  0.10660646  2.26300475
  C -0.35215356 -1.97387244  0.82968820
  O  0.68499073 -2.33449358  0.34887081
  O -1.20222075 -2.77785119  1.46482865
  C -0.86599575 -4.15817584  1.53986181
  H  6.62849924  0.43181273 -1.69587751
  H  6.66712714 -1.07865667 -0.79723599
  H  5.59482071 -0.91774340 -2.19480557
  H  6.41477914  0.52080787  1.05498783
  H  4.76263107  0.82503244  1.59834508
  H  5.55067371  1.94765179  0.48943076
  H  3.38477978 -0.66632404 -1.58369237
  H  2.72736537  0.92845758  0.96758429
  H  1.07474424 -0.43448643 -1.20269118
  H -0.63028733  1.93034540  1.97834002
  H  0.88693721  2.39992982  1.21269775
  H  0.85008907  1.02640466  2.33095210
  H -0.26390355  1.49719667 -1.62533041
  H -1.17952037  2.34587257 -0.37628023
  H -1.77034346  1.75133010 -3.32543459
  H -3.58965770  2.22210269 -4.90258508
  H -5.88071071  1.43883729 -4.42779212
  H -6.34361049  0.15820950 -2.37371560
  H -4.50068391 -0.30721962 -0.77297183
  H -0.48405712 -0.28278614  5.09118589
  H -1.81911067 -1.42106647  4.74860337
  H -2.05932755  0.32121879  4.47864006
  H -0.15156475 -4.41127564  0.75455315
  H -0.42453119 -4.37155501  2.51499428
  H -1.79071159 -4.71857241  1.41583544
