31
opt_min/./Product_4143_opt.xyz
  O  0.99644998  1.26421109 -3.00257497
  C  1.94053833  1.38478744 -2.36728120
  O  2.88175705  1.50036877 -1.72936775
  C  0.88553685 -0.83409764 -0.36891362
  C  2.01569311 -1.06800312  0.29200868
  C  0.75990598 -3.94517912  0.69798781
  O  1.32446835 -4.39849786 -0.18573803
  O  0.18981629 -3.49417059  1.58261969
  N  1.85493454 -0.78334043  1.63794275
  C  2.75622790 -0.89338554  2.58072502
  N  3.55950432 -1.00265815  3.39567548
  N  0.49907113 -0.43701986  1.91085854
  C -0.14737036 -0.27267818  0.59116073
  C -0.34368643  1.23444396  0.33611309
  C -1.50014436 -0.95347879  0.53286846
  C -1.99180445 -1.47469217 -0.65810398
  C -3.23524322 -2.07940568 -0.70182550
  C -4.01059340 -2.16513764  0.44132692
  C -3.54010669 -1.62612686  1.62518663
  C -2.29683071 -1.02007914  1.66973392
  H  0.72896925 -0.96024405 -1.41878511
  H  2.95350272 -1.45162631 -0.06292340
  H  0.06862089 -1.20945821  2.42288903
  H -1.02072034  1.64483831  1.08002192
  H -0.76318911  1.39263595 -0.65411824
  H  0.61194405  1.74856197  0.40914643
  H -1.40648773 -1.40861026 -1.56202408
  H -3.59936424 -2.48407567 -1.63465901
  H -4.97919160 -2.64072953  0.40555904
  H -4.14248295 -1.67194856  2.52031848
  H -1.95624189 -0.58228745  2.59657488
