68
opt_min/./Product_2773_opt.xyz
  C  1.43657800 -0.16664300  0.73810900
  C  0.07028305 -0.13020347  0.86257976
  C -0.93681597  0.75902649  0.13148377
  C -1.56179405  1.81573573  1.01794207
  C -1.19447657  1.99592826  2.34215981
  C -1.75982721  3.01013586  3.09647171
  C -2.68907222  3.86602791  2.53192058
  C -3.03204574  3.71392462  1.19888584
  C -2.46866951  2.70071747  0.44856659
  C -1.97782113 -0.11334224 -0.53993362
  C -3.25508160 -0.23314611  0.00092904
  C -4.20217016 -1.05592828 -0.58220229
  C -3.89028138 -1.79238636 -1.71138968
  C -2.61960011 -1.69469368 -2.25004402
  C -1.67536971 -0.86800905 -1.66751707
  C  0.10642114  1.43341658 -0.75924069
  C  0.28873032  2.54979544 -1.75458657
  C  1.83760263  2.45645560 -1.89020817
  C  2.63209467  1.97406209 -0.63807592
  C  2.59862599  0.51827912 -0.01302491
  C  3.21511587 -0.43484937 -1.02506840
  C  4.56133402 -0.75665182 -0.89811757
  C  5.19808989 -1.56889385 -1.81806142
  C  4.50150506 -2.06394679 -2.90558917
  C  3.16175083 -1.75169737 -3.04718782
  C  2.52738382 -0.94717576 -2.11736391
  C -0.28796293 -1.11675697  1.86556983
  C -1.66648900 -1.43024046  2.35996735
  N -2.17046790 -2.56130531  1.82240081
  C -3.47270342 -3.06910349  2.17458741
  O -2.25447915 -0.73882356  3.16239122
  N  0.72619474 -1.72481267  2.37154746
  C  1.89583577 -1.24632051  1.69659960
  C  2.51310519 -2.46399478  0.96642629
  C  1.55937354 -3.25571348  0.12202910
  O  3.65864577 -2.77184478  1.13834765
  H -0.47686066  1.33672434  2.80826303
  H -1.47634102  3.12378730  4.13220409
  H -3.13779736  4.65131977  3.12256505
  H -3.74396980  4.38653923  0.73925905
  H -2.72647527  2.60068801 -0.59826673
  H -3.51822050  0.32971862  0.88248147
  H -5.19167328 -1.11844441 -0.15068110
  H -4.62883212 -2.43548066 -2.16648055
  H -2.35801157 -2.26618999 -3.12838978
  H -0.69695702 -0.81511243 -2.11906240
  H  0.59650903  0.60626832 -1.25770025
  H  0.72382776  1.81344033  0.04690237
  H -0.18513063  2.36345256 -2.72005075
  H -0.04067581  3.52122721 -1.38760600
  H  2.07343406  1.78951764 -2.72185047
  H  2.25146611  3.43630027 -2.13837337
  H  2.47116950  2.69516105  0.17019860
  H  3.68316358  2.07517725 -0.92840484
  H  3.35891757  0.62060609  0.77599634
  H  5.12618197 -0.37091741 -0.06110346
  H  6.23973989 -1.81715566 -1.67976048
  H  4.99464311 -2.68908354 -3.63473338
  H  2.60019565 -2.13510826 -3.88794467
  H  1.47497319 -0.74739903 -2.25343350
  H -1.64037583 -3.06926649  1.13324853
  H -3.40118787 -4.11116049  2.49224755
  H -3.84777324 -2.46001381  2.99587312
  H -4.15900370 -2.99529525  1.32915798
  H  2.65223335 -0.91619435  2.40906871
  H  0.83698365 -3.73358078  0.78296961
  H  1.02076498 -2.61602845 -0.57111642
  H  2.11153173 -4.01757375 -0.42378541
