42
opt_min/./Product_489_opt.xyz
  C -0.06768600  2.80645700  0.71323300
  O -0.93040819  1.69102876  0.75871589
  C -0.36980500  0.40811637  0.71967102
  C  0.39875682  0.05792101  2.00562157
  C -1.51428658 -0.65699940  0.43726125
  C -2.77349841 -0.03225581 -0.20067957
  O -1.83372286 -1.41305301  1.58320232
  C -2.66432773 -0.82383890  2.55835079
  C -0.78081483 -1.60067813 -0.58793481
  C -1.23493340 -3.04281032 -0.58473415
  C -0.92025560 -0.83697032 -1.91442917
  O -1.47605619 -1.15934312 -2.92082839
  O -0.20668765  0.28197776 -1.74435538
  C  0.54284229  0.10038983 -0.52532150
  C  1.86153922  0.86805895 -0.72142929
  N  2.81917948  0.63285850  0.19384391
  C  4.10917254  1.27978594  0.10990674
  O  2.01773009  1.61750525 -1.65775069
  N  0.65951806 -1.33986732 -0.36103350
  C  1.55727979 -1.96759149 -1.32759193
  H  0.47288802  2.85581660 -0.23397784
  H  0.64681876  2.82229593  1.54198178
  H -0.72384544  3.67197677  0.79374276
  H  1.17763807 -0.66723907  1.79814458
  H -0.26286062 -0.41274304  2.72461564
  H  0.82149971  0.95283952  2.45319350
  H -2.88291395 -0.29783281 -1.24549951
  H -2.74650215  1.04927966 -0.11536531
  H -3.66269431 -0.40249245  0.30115572
  H -3.69698822 -0.69607696  2.22242189
  H -2.29131747  0.14926735  2.89188627
  H -2.65615846 -1.52799293  3.39001985
  H -1.75642209 -3.25974585 -1.51595860
  H -1.90153565 -3.21208150  0.25528490
  H -0.38918467 -3.71643078 -0.48514855
  H  2.69200489 -0.05063668  0.92021130
  H  4.84495275  0.63092895 -0.37117079
  H  4.45383507  1.53930850  1.10928222
  H  3.99719980  2.18023095 -0.49207368
  H  1.17574628 -2.94086972 -1.62362714
  H  1.69405397 -1.36463527 -2.22953697
  H  2.52708313 -2.10775792 -0.84587772
