42
opt_min/./Product_626_opt.xyz
  C -3.21294549 -1.39696282  1.28818516
  O -1.88006093 -1.65678733  0.91580462
  C -1.21514091 -0.59277179  0.28034665
  C  0.05649397 -0.15003663  1.04137284
  O -0.21033110  0.74678887  2.08314878
  C -0.32180743  0.15207617  3.35717596
  C  0.90054379  0.53137308 -0.06709501
  C  2.42617856  0.37063238  0.10158265
  N  2.79617041 -0.91901444  0.27207983
  C  4.19161693 -1.29552892  0.29035608
  O  3.21239030  1.28470785  0.05216640
  C  0.49808625  2.01556447 -0.06918131
  O  1.03632381  2.90013763  0.52106653
  O -0.60914327  2.18759238 -0.81807755
  C -1.11847079  3.51452526 -0.84541158
  N  0.53635056 -0.18245745 -1.27644555
  C  0.91426322  0.36657688 -2.55146811
  C -0.67152608 -0.98305101 -1.11702947
  C -1.72697687 -0.82161131 -2.20846027
  C -0.17035042 -2.35255578 -1.06226496
  N  0.36483598 -3.36393398 -1.03270760
  H -3.28871662 -0.52855504  1.95284830
  H -3.55372089 -2.28768003  1.81050473
  H -3.85222678 -1.22481832  0.41498935
  H -1.86796314  0.28130733  0.17713328
  H  0.55934749 -1.04647236  1.42525761
  H -1.20588819 -0.48866787  3.43602139
  H -0.39922898  0.97701375  4.06218299
  H  0.56375114 -0.44759195  3.59119174
  H  2.13649803 -1.65359530  0.06248640
  H  4.75520964 -0.46597448  0.71302568
  H  4.31573558 -2.18183723  0.90918437
  H  4.56871420 -1.50043968 -0.71508341
  H -1.19770967  3.90701226  0.16947902
  H -0.45606702  4.16386341 -1.42076096
  H -2.09793731  3.45817530 -1.31541302
  H  1.91323235  0.78936085 -2.45704304
  H  0.24007720  1.15304366 -2.91169238
  H  0.94434862 -0.43549081 -3.28947698
  H -2.64231191 -1.31982610 -1.89778260
  H -1.92587129  0.23711802 -2.35618775
  H -1.39447833 -1.26539884 -3.14338849
