32
opt_min/./Product_3797_opt.xyz
  C  0.23243800  1.34373500  1.55037400
  C -0.16037316  0.78810439  0.18943649
  C  0.11836153  1.82414813 -0.89992849
  C -1.63764474  0.27928346  0.18574804
  C -2.57644589  1.07151039 -0.67511714
  O -3.49650104  1.71345260 -0.25543237
  C -1.46733822 -1.18453051 -0.30952614
  C -2.68696664 -1.89134548 -0.85545932
  N -0.35061513 -1.05305641 -1.19800910
  C  0.57569501 -0.53679322 -0.19942937
  C  2.01944368 -0.47032164 -0.64412270
  O  2.77248831  0.10433753  0.28428216
  C  4.17555357  0.14045168  0.03772877
  O  2.41678007 -0.93127696 -1.67903188
  C  0.32905924 -1.50468095  0.98542799
  O  1.07966049 -1.84903597  1.84268903
  O -0.94031467 -1.89908831  0.85288207
  H -0.36746608  2.22479819  1.76886535
  H  1.28253956  1.62410320  1.55201603
  H  0.08075689  0.61377894  2.34262223
  H -0.50436262  2.70378510 -0.75213822
  H  1.16120509  2.13000353 -0.84736373
  H -0.06410792  1.40801629 -1.88645862
  H -2.03558774  0.26390522  1.20599446
  H -2.35395326  1.02327925 -1.75692786
  H -2.60013004 -2.95844771 -0.66439150
  H -2.74415803 -1.71950399 -1.92700088
  H -3.59199363 -1.52564043 -0.37931219
  H -0.04338804 -1.93046134 -1.61169155
  H  4.49121329 -0.77822834 -0.45907124
  H  4.42194322  0.99185571 -0.60006448
  H  4.65559898  0.24246955  1.00780273
