31
opt_min/./Product_3888_opt.xyz
  C  3.23158298  1.04629409 -0.39830294
  O  4.16469920  1.47964057 -1.03058444
  C  3.27656583  0.86418975  1.06047503
  C  2.18723791  0.62073683  1.78981768
  C  0.82205184  0.47933705  1.23257381
  O -0.08002037  0.05189978  1.91162794
  C  0.67910220  0.88686428 -0.22193877
  C  1.93791978  0.61757948 -1.05718690
  C  1.82006397 -0.90255033 -1.26050958
  N  0.40381512 -1.12391033 -1.48922098
  C -0.36452802  0.02058608 -1.00114224
  C -0.74036519  0.78092663 -2.19185980
  N -1.01411301  1.36970729 -3.13261405
  C -1.64286977 -0.27495337 -0.23771005
  C -2.54306657  0.76748230 -0.05740331
  C -3.72726123  0.56440887  0.62787311
  C -4.02332520 -0.68689363  1.13970444
  C -3.12792791 -1.72653718  0.96622824
  C -1.94336555 -1.52709991  0.28116534
  H  4.25071997  0.97503380  1.51864305
  H  2.24485067  0.48677521  2.86199920
  H  0.39844109  1.94859678 -0.22894338
  H  1.85558222  1.10299277 -2.03215028
  H  2.19055359 -1.42872175 -0.36542640
  H  2.39526922 -1.24671112 -2.12228019
  H  0.07942144 -2.00700017 -1.12400619
  H -2.31721017  1.74514274 -0.45772880
  H -4.41640493  1.38317286  0.76146778
  H -4.94619200 -0.84623512  1.67501594
  H -3.34548892 -2.70449657  1.36998188
  H -1.25774743 -2.35538161  0.18332575
