29
opt_min/./Product_4277_opt.xyz
  C  0.31106748  0.14138436  2.25850528
  O  0.38054409 -0.57932409  3.22102945
  C  0.12646590  1.60095850  2.36816228
  C  0.07189987  2.41989360  1.31330546
  C  0.23106295  1.96898249 -0.07760092
  O  0.00671865  2.68843730 -1.01892742
  C  0.75001905  0.54862117 -0.27062461
  C  0.35659829 -0.41474412  0.84680677
  C -1.06059850 -0.87514902  0.36661731
  C -1.34565240 -2.24150849  0.79815057
  N -1.57717942 -3.30054321  1.14882579
  C -2.10157278 -0.00843938  0.91664178
  N -2.91262054  0.68832406  1.31710595
  O -1.06263733 -0.77595638 -1.04731009
  C  0.12064388 -0.13944600 -1.51461068
  C  1.13244758 -1.24833243 -1.98401596
  N  1.69421945 -1.05181313 -3.18053338
  C  2.62460210 -1.99889118 -3.75395741
  O  1.39699373 -2.15917803 -1.23227070
  C -0.24666533  0.73396523 -2.61157530
  N -0.52412803  1.25901761 -3.59001228
  H  0.00993985  1.96500038  3.37898896
  H -0.11598653  3.47768443  1.41906845
  H  1.83686771  0.62174767 -0.38961748
  H  1.00088674 -1.30237965  0.83105708
  H  1.35158972 -0.31535673 -3.77979041
  H  2.15692002 -2.56383145 -4.56085122
  H  2.92979028 -2.68708806 -2.96882414
  H  3.49347671 -1.46877870 -4.14128759
