63
opt_min/./Product_2526_opt.xyz
  C  0.94336400 -3.25479776  0.51698099
  C  0.47991362 -2.24097411 -0.50607545
  O  0.78144805 -2.39936871 -1.66174581
  C -0.28654506 -1.01586488  0.00074570
  C -1.22410683 -0.30543673 -1.05738636
  C -1.32425978 -0.93918321 -2.44178529
  C -2.59859448 -0.28623683 -0.34463767
  C -3.21786252 -1.68654426 -0.32013730
  C -2.25094529 -2.45690322  0.59515409
  C -1.30359076 -1.35846224  1.11479657
  C -2.20776141 -0.12904159  1.12108690
  C -0.65673623  1.15163360 -1.17569037
  C -0.09577257  1.45933234 -2.49575291
  N  0.31439163  1.83849562 -3.49520200
  C -1.69922875  2.26348048 -1.03785772
  C -1.72661027  3.10765579  0.06104054
  C -2.67186565  4.11534796  0.14964970
  C -3.59661128  4.29697999 -0.86226295
  C -3.56659828  3.46621155 -1.97043708
  C -2.62379028  2.46014389 -2.06104112
  O  0.34966012  1.30007334 -0.19721798
  C  0.78946720  0.08560962  0.40491536
  C  2.19278410 -0.25266607 -0.13058005
  C  2.45340793 -0.11988653 -1.48929041
  C  3.69792234 -0.40771107 -2.01689083
  C  4.72155502 -0.83948396 -1.19396759
  C  4.48373852 -0.96139668  0.16317745
  C  3.23786596 -0.66670091  0.68946971
  C  0.90008056  0.38090731  1.90059054
  C  1.06833381 -0.61255697  2.86336037
  C  1.19964075 -0.29169025  4.20362826
  C  1.18880745  1.02909756  4.61477987
  C  1.07905548  2.02653349  3.66371527
  C  0.95006475  1.70323485  2.32443652
  H  0.28452421 -3.36723190  1.37039943
  H  1.93425980 -2.94928255  0.85500036
  H  1.05893193 -4.21349227  0.01419157
  H -0.40252029 -0.82877953 -3.00628545
  H -1.53479970 -2.00256000 -2.38631044
  H -2.13035554 -0.45792338 -2.99568637
  H -3.28370166  0.46068851 -0.74129478
  H -3.32324562 -2.13283326 -1.30521557
  H -4.21461393 -1.62864997  0.11959257
  H -2.77737837 -2.91697080  1.43178168
  H -1.72343853 -3.24063502  0.05424804
  H -0.87019540 -1.60028816  2.07823800
  H -3.05283293 -0.22252939  1.79958545
  H -1.66978529  0.78908514  1.34180779
  H -1.00494049  2.98257309  0.85109153
  H -2.68111467  4.76105616  1.01522137
  H -4.33275431  5.08367704 -0.79327328
  H -4.27731774  3.60530168 -2.77139057
  H -2.60575876  1.82767424 -2.93650686
  H  1.67971494  0.21165272 -2.15856241
  H  3.86001990 -0.29425118 -3.07783273
  H  5.69348315 -1.07274418 -1.60215151
  H  5.27230534 -1.28790400  0.82576980
  H  3.10437826 -0.75518722  1.75623068
  H  1.12460675 -1.65110822  2.58285179
  H  1.32230375 -1.08486542  4.92709726
  H  1.28720538  1.27599369  5.66115744
  H  1.10324689  3.06483730  3.95977807
  H  0.90970278  2.49256613  1.59134369
