35
opt_min/./Product_3775_opt.xyz
  C -3.86691999 -0.91951605 -0.04803610
  C -2.61318641 -0.19303648  0.32212916
  C -2.76278576  0.85759849  1.38129566
  C -1.45979169 -0.45953124 -0.28334961
  C -0.16930758  0.23058930  0.00693699
  C  1.09727639 -0.53258781 -0.42312992
  C  1.53521827 -1.73434132  0.37540125
  C  0.59147851 -2.28217397  1.40219107
  C  2.65681428 -2.36608748  0.06061431
  N  2.03819031  0.59071472 -0.54106047
  C  3.01078458  0.93980584  0.36505908
  C  3.62206327  2.29548455  0.10943269
  O  3.38433600  0.19035019  1.23540215
  N  1.35972655  1.57902443 -1.26046163
  N  0.00763873  1.47341520 -0.77037896
  C -0.95612423  2.20677413 -1.24953721
  N -1.81177146  2.87052792 -1.63764794
  H -4.35353256 -1.31160466  0.84349180
  H -4.55868529 -0.22669482 -0.52584234
  H -3.66767099 -1.73984661 -0.73151673
  H -1.99315763  0.76827449  2.14631922
  H -3.73483780  0.78148790  1.86009242
  H -2.67843896  1.84824408  0.93638772
  H -1.42107622 -1.21066206 -1.06078769
  H -0.08965829  0.50934011  1.06757517
  H  0.93021906 -0.88176820 -1.45955613
  H -0.13451078 -2.94485475  0.92812625
  H  1.13937931 -2.86598172  2.13565397
  H  0.05844987 -1.49152139  1.92327417
  H  3.43561787 -1.96950153 -0.56555193
  H  2.93847436 -3.25673198  0.59815752
  H  3.99167639  2.69255003  1.05086080
  H  4.46615931  2.17317782 -0.56507040
  H  2.90696294  2.97603616 -0.34117042
  H  1.37043050  1.33707013 -2.26189902
