46
opt_min/./Product_2426_opt.xyz
  C -3.47851299 -3.01575100  1.67643502
  O -2.99355525 -2.10194076  0.69433924
  C -2.01905821 -1.29036010  1.06791308
  O -1.49440508 -1.27782408  2.14644514
  C -1.65918988 -0.27439686 -0.04348919
  C -2.55069846 -0.62064630 -1.28097034
  C -2.18432879 -1.77095380 -2.15929014
  O -3.53896295  0.03122124 -1.47703539
  C -0.17145682 -0.31611120 -0.21499336
  C  0.84764737  0.56826026 -0.24761691
  C  1.04440957  2.04981537 -0.15932426
 Cl  2.67597138  2.35177238  0.56633510
 Cl  1.12685467  2.64375235 -1.85441762
  C  0.11450365  2.89624877  0.70971727
  C -1.18935414  3.35274108  0.06131733
  C -2.01667346  2.20810350 -0.50349775
  C -2.19593773  1.06618212  0.49832007
  C  2.09326825 -0.32900591 -0.50274963
  C  3.57470643  0.08433169 -0.32984133
  O  3.99951355 -0.29222228  0.86302070
  C  5.37740149 -0.04410535  1.13258269
  O  4.23699838  0.52826523 -1.22109737
  O  1.95954195 -0.77057987 -1.89007317
  C  1.01833808 -1.69516855 -1.88042465
  O  0.66011389 -2.37673768 -2.78182180
  C  0.52830281 -1.69431773 -0.36572078
  C -0.09880543 -2.89829715  0.09666115
  N -0.55638266 -3.89067776  0.42848083
  O  1.80052220 -1.46797314  0.22351770
  H -4.32292513 -3.52375877  1.21839977
  H -2.69257326 -3.72830670  1.93495800
  H -3.78699351 -2.47468840  2.57213764
  H -1.69332440 -2.57929417 -1.63090630
  H -3.09490597 -2.14248554 -2.62678380
  H -1.53308632 -1.41583087 -2.95605656
  H  0.66273789  3.79263063  1.00116427
  H -0.07853925  2.32272405  1.61687834
  H -1.76348030  3.88151529  0.82283482
  H -0.95908939  4.04662936 -0.74704923
  H -2.99163293  2.57950379 -0.81375523
  H -1.52067495  1.83930209 -1.40253285
  H -1.70767663  1.26015189  1.45190700
  H -3.25882895  0.92390085  0.70471282
  H  5.52546999 -0.30594444  2.17646825
  H  5.60832217  1.00786418  0.95582186
  H  6.00624807 -0.65955702  0.48594977
