42
opt_min/./Product_563_opt.xyz
  C  1.16661100  0.74470400  2.95157700
  C  1.34275298  1.00615704  1.49905410
  C  2.10863191  0.40601958  0.58345595
  C  2.90874997 -0.84327939  0.63983032
  C  2.13671611  1.34450710 -0.61030715
  C  0.83576528  1.38005739 -1.44788021
  C -0.16565894  1.77495074 -0.34441156
  C  0.81304362  2.24168745  0.78381074
  O  1.96056019  2.61581912  0.02715160
  C -1.05065014  0.51152858 -0.17107421
  C -2.52507733  0.95912527 -0.14892358
  O -3.31931702  0.60427617 -0.98374694
  O -2.79016642  1.77401632  0.85404108
  C -4.13920720  2.21365218  0.97505210
  C -0.92065579 -0.35606404  1.09493737
  O -1.39194120 -0.05968289  2.16403231
  O -0.37815231 -1.53466099  0.81672538
  C -0.36559600 -2.50958967  1.85110236
  N -0.81826890 -0.33394303 -1.32558188
  C  0.19613339  0.22334917 -2.21384976
  C  1.17120620 -0.85664687 -2.67258842
  H  0.16789561  1.02056344  3.27863320
  H  1.34203233 -0.30247342  3.18788372
  H  1.89003421  1.34774466  3.50372591
  H  2.57038346 -1.47938550  1.45320409
  H  2.83269191 -1.38664571 -0.29832328
  H  3.96083786 -0.60613775  0.80841472
  H  3.06282074  1.33354882 -1.18133689
  H  0.99910337  2.22967724 -2.11819640
  H -0.81158958  2.58107612 -0.69569864
  H  0.46413726  3.06726440  1.39557011
  H -4.19560255  2.75583353  1.91502940
  H -4.40156664  2.86273016  0.13675592
  H -4.81505263  1.35643811  0.98328312
  H -0.73896813 -3.44121989  1.42753283
  H -0.99652397 -2.18532495  2.68121124
  H  0.65864804 -2.65086511  2.19981306
  H -1.69972776 -0.48067628 -1.80988830
  H -0.28610208  0.66696672 -3.09952279
  H  1.36881251 -1.53210391 -1.84622444
  H  0.74285386 -1.43069865 -3.48990736
  H  2.10369122 -0.40928742 -3.00702830
