52
opt_min/./Product_2040_opt.xyz
  C  0.32208300  3.94698000  0.98233200
  N  0.43572500  2.69470002  0.27464967
  C -0.64309853  2.03940820 -0.18059486
  O -1.77104702  2.49958877 -0.16950188
  C -0.42443876  0.72788215 -0.92353604
  C  0.87560098 -0.15348257 -0.95904476
  C  2.04571161  0.07995986 -0.02562036
  C  3.35268894  0.06174133 -0.50155250
  C  4.42669277  0.21467783  0.35908720
  C  4.22085192  0.37836930  1.71735682
  C  2.92698841  0.37540681  2.20780640
  C  1.85314719  0.21981212  1.34882925
  C  1.26751756  0.01657623 -2.47880570
  C  1.69063142  1.45868929 -2.65237690
  C  0.55994034  2.14917927 -2.63797283
  C -0.52695924  1.10833049 -2.45352580
  O  0.00900065 -0.01260563 -3.10810561
  N  0.36310392 -1.50342890 -0.68824897
  N -1.03988175 -1.48984978 -1.10190044
  C -1.70012035 -2.75225511 -0.86356198
  C -1.52373622 -0.27580197 -0.48486115
  C -2.92853626  0.12950707 -0.94659721
  O -3.73871724  0.24878372  0.10323638
  C -5.05768992  0.72661375 -0.13340330
  O -3.27328266  0.28929183 -2.08413417
  C -1.57226103 -0.32423813  1.06024492
  O -1.13519239  0.53262677  1.78510166
  O -2.14865726 -1.43332204  1.50497121
  C -2.26360870 -1.54685988  2.91790758
  H -0.72558929  4.23964629  0.96455711
  H  0.92546739  4.71273777  0.49226179
  H  0.64788256  3.83762798  2.01727724
  H  1.33506639  2.24061472  0.27257726
  H  3.55572711 -0.08372633 -1.54984791
  H  5.43054774  0.19625163 -0.03794793
  H  5.06033835  0.50178854  2.38466333
  H  2.74607983  0.49357711  3.26570222
  H  0.85617664  0.23745236  1.75082532
  H  1.91547416 -0.76273014 -2.87216729
  H  2.70124972  1.80754410 -2.72784199
  H  0.38574707  3.20404545 -2.69893666
  H -1.52383079  1.34998207 -2.79976514
  H  0.83519299 -2.19058738 -1.27475678
  H -2.74968680 -2.58200884 -0.64410202
  H -1.25393049 -3.30444054 -0.03014745
  H -1.62325241 -3.34998309 -1.77435803
  H -5.27336590  1.46131931  0.63906080
  H -5.75757275 -0.10809154 -0.06818189
  H -5.11456843  1.18420080 -1.12143664
  H -2.85335704 -2.44042966  3.10274236
  H -2.75878645 -0.66358454  3.32462948
  H -1.27448977 -1.63954490  3.37117811
