45
opt_min/./Product_5177_opt.xyz
  C  2.65001500  0.65998700 -1.04599800
  C  1.15036699  0.94079753 -1.10124712
  C  0.17031728 -0.25066484 -0.95986577
  N  0.71867083 -1.37481496 -0.24061811
  C -0.00428210 -2.62925820 -0.28346752
  C  2.00778450 -1.38915810  0.18184927
  C  2.95020570 -0.47204825 -0.10502434
  C  4.28428857 -0.66832736  0.46896117
  N  5.26544132  0.18288181  0.04925790
  O  4.53228472 -1.53941399  1.28873660
  C -0.98708027  0.46413258 -0.17947455
  C -2.00933432  1.16949620 -1.04825775
  C -2.15506026  1.00269217 -2.41563655
  C -3.12478081  1.71430948 -3.10660294
  C -3.95230066  2.60188816 -2.44749466
  C -3.81097870  2.77594597 -1.07928945
  C -2.85150590  2.06605928 -0.38785835
  C -1.65388577 -0.39287555  0.86318497
  C -1.04436921 -0.55778020  2.09947133
  C -1.62946985 -1.35967007  3.06147036
  C -2.82784065 -2.00127346  2.79750887
  C -3.44604624 -1.82724054  1.57071369
  C -2.86441396 -1.02489938  0.60598833
  N -0.29123263  1.58684546  0.47946957
  N  0.78526436  1.83669600 -0.01275295
  H  3.02746334  0.43139750 -2.04703237
  H  3.11740574  1.58580989 -0.69919633
  H  0.90571919  1.48798522 -2.01951850
  H -0.17183578 -0.59972659 -1.93875568
  H -0.66301426 -2.64988316 -1.15189141
  H -0.60531458 -2.78445206  0.61368025
  H  0.69971382 -3.45682289 -0.37258055
  H  2.28307506 -2.22317044  0.81136379
  H  6.19785869  0.01826106  0.39154650
  H  5.13623561  0.84486721 -0.69297048
  H -1.53851366  0.31598675 -2.97582627
  H -3.22729137  1.56522736 -4.17164618
  H -4.70294821  3.15191837 -2.99418695
  H -4.45156021  3.46727094 -0.55310634
  H -2.73638027  2.19315249  0.67734718
  H -0.11273446 -0.04954633  2.30071706
  H -1.14632957 -1.48531270  4.01863032
  H -3.28031961 -2.62949530  3.55008495
  H -4.38565779 -2.31794436  1.36362995
  H -3.35344394 -0.88372468 -0.34719745
