38
opt_min/./Product_3846_opt.xyz
  C  5.18220600  0.67150700  1.28000500
  C  3.94975634  0.59193419  0.43658765
  C  3.93303366  1.49380436 -0.76375124
  C  2.92826010 -0.20334910  0.77546305
  C  1.67964895 -0.33180394  0.06666619
  C  0.68917973 -1.12705524  0.47143257
  C -0.62080434 -1.28853251 -0.24998693
  C -0.38984350 -2.06148683 -1.55972946
  C -1.31640707  0.08041050 -0.49518845
  N -2.57956299 -0.06251443  0.20032055
  C -3.50789783  0.89404317  0.37505627
  O -3.03658198  2.08802658 -0.08425502
  C -3.90429563  3.20170611  0.06352737
  O -4.60071231  0.73097222  0.85761798
  N -2.84574002 -1.42264854  0.51459761
  C -3.71271144 -2.04878883 -0.47677890
  N -1.58358505 -2.03390055  0.58048973
  H  5.25323890  1.65665692  1.74408663
  H  6.07552205  0.52459610  0.67325613
  H  5.17120114 -0.07694525  2.07013659
  H  3.51131862  0.99342205 -1.63297903
  H  4.93905077  1.82638368 -1.00566732
  H  3.32539007  2.37809345 -0.56145384
  H  3.01922254 -0.81936994  1.66157329
  H  1.54980137  0.26437736 -0.82669399
  H  0.81226540 -1.72786885  1.36316523
  H  0.52391035 -1.72611461 -2.04239963
  H -1.22088185 -1.93651982 -2.24933223
  H -0.30007268 -3.12009793 -1.32681302
  H -0.74925252  0.90753388 -0.06181303
  H -1.47179538  0.28395669 -1.56034377
  H -3.37803040  3.97104926  0.62869739
  H -4.80781117  2.89138322  0.59264997
  H -4.16219777  3.57691785 -0.92815349
  H -4.69320225 -1.58870742 -0.37751590
  H -3.35115475 -1.94276865 -1.50441126
  H -3.77297445 -3.10380449 -0.22289584
  H -1.29229156 -2.02997899  1.55655702
