55
opt_min/./Product_2078_opt.xyz
  C  2.21868100  3.40982800 -0.07961800
  C  0.86874514  2.75592412  0.07522564
  O -0.02990963  3.27071743  0.68256958
  C  0.69724688  1.45548351 -0.70149348
  C -0.79488487  1.05949579 -0.87676585
  C -1.78403282  2.21523032 -0.63545306
  C -1.70067747  3.40367992 -1.54735290
  O -2.66781101  2.09667908  0.17508449
  C -0.88155575  0.57311888 -2.34220984
  C -0.52839157 -0.85705817 -2.65108042
  O -1.13061061  1.33875982 -3.23812860
  C -0.97614023 -0.07212527  0.16241342
  C -1.38775279  0.47015272  1.57448763
  N -2.62125194  0.12185082  1.99146555
  C -3.12424103  0.63044273  3.25230103
  O -0.56653327  1.01448831  2.27810893
  C -2.00437414 -1.12567563 -0.24337898
  O -3.04876480 -0.85126018 -0.80750878
  N -1.67572705 -2.36808799  0.14957339
  C -2.55609754 -3.49409251 -0.05813930
  O  0.29903591 -0.68556760  0.28052523
  C  1.36833327  0.22237009 -0.01752586
  C  2.12626124  0.52907325  1.28662577
  C  2.35399621 -0.51092779 -0.92152803
  C  2.50522210 -1.88391622 -0.74853158
  C  3.40482403 -2.60341771 -1.51136546
  C  4.18278582 -1.95946324 -2.45905990
  C  4.05857523 -0.59244129 -2.62144568
  C  3.15479409  0.12762294 -1.85724838
  H  3.02788954  2.68888579 -0.05812750
  H  2.23191662  3.91200726 -1.04682731
  H  2.35819900  4.15783587  0.69488857
  H  1.14321052  1.61106422 -1.68764445
  H -2.13657302  4.26027405 -1.04185189
  H -2.29338472  3.17787719 -2.43219120
  H -0.68852322  3.62546431 -1.86871694
  H  0.11454732 -1.31655418 -1.90975561
  H -1.45607973 -1.42061949 -2.72361786
  H -0.05343771 -0.88524356 -3.63006613
  H -3.31366172 -0.06819713  1.28343284
  H -4.09025377  1.10727751  3.10881035
  H -2.41485371  1.35882550  3.64289197
  H -3.22378989 -0.18801598  3.96812787
  H -0.79178948 -2.50126834  0.61315650
  H -2.89214787 -3.51119317 -1.09597810
  H -2.02961068 -4.41576711  0.17006129
  H -3.43888587 -3.41105017  0.57997077
  H  1.62044437  1.28718630  1.87625719
  H  2.14310115 -0.38517970  1.87512494
  H  3.15328853  0.82163122  1.08373530
  H  1.90102521 -2.38680318 -0.01017911
  H  3.50107963 -3.66864247 -1.36300873
  H  4.88529334 -2.51752462 -3.05868786
  H  4.67063747 -0.07573986 -3.34621402
  H  3.10261249  1.19704021 -2.00005158
