39
opt_min/./Product_353_opt.xyz
  C -0.28486095  0.59405203  2.34252200
  C -0.64807969  0.34097497  0.87583794
  C  0.33522937  0.97608331 -0.14840910
  C -0.55115349  1.93019257 -0.96807030
  C -1.53001848  1.16059563 -1.85979412
  C -2.51245772  0.54346722 -0.84775837
  C -1.98228308  1.03167589  0.50661474
  C -1.48936638  2.43406463  0.13192088
  C  0.94990558 -0.22884037 -0.89152774
  C  2.28669614 -0.67505859 -0.22713635
  O  3.01495822  0.37128976  0.15156739
  C  4.30819174  0.12201991  0.69723952
  O  2.62147974 -1.81959256 -0.09720386
  C  1.33720082  0.06508632 -2.25567333
  N  1.68832992  0.27830770 -3.32217799
  N -0.10181577 -1.22887601 -0.81778917
  C  0.13765660 -2.55058700 -1.35538714
  C -0.55094252 -1.17382312  0.56451285
  C -1.77620855 -1.89817564  0.80383838
  N -2.72503209 -2.48931907  1.04277714
  H  0.79526505  0.65057663  2.47335902
  H -0.71999762  1.52621585  2.69471191
  H -0.66535975 -0.20839171  2.97255669
  H  1.12262709  1.55712717  0.33397112
  H  0.02646020  2.68209494 -1.50422223
  H -2.03573690  1.85514493 -2.53104219
  H -1.03969446  0.40526491 -2.46858791
  H -2.54939456 -0.53942142 -0.91946595
  H -3.52506582  0.91964011 -1.00006578
  H -2.72032114  0.96847892  1.30537394
  H -2.28478512  3.07198139 -0.24805789
  H -0.97000565  2.95060253  0.93770062
  H  4.56661388 -0.93048063  0.56800105
  H  4.29312380  0.37494139  1.75811288
  H  5.01267842  0.75982480  0.16683177
  H  0.72010327 -2.46409897 -2.27112116
  H  0.67310508 -3.20847451 -0.66138145
  H -0.82912279 -2.99958382 -1.59335741
  H  0.20751370 -1.63099188  1.23839129
