63
opt_min/./Product_2541_opt.xyz
  C  1.82419100  2.63873600  3.14406700
  C  2.71629463  2.12079979  2.22182886
  C  2.26383424  1.39503430  1.13675302
  C  0.90492672  1.13651425  0.94372141
  C  0.49507013  0.40044637 -0.32917592
  C -1.02918448  0.05064458 -0.57473652
  C -1.97417781 -0.00991646  0.60375168
  C -1.62133699 -0.75666780  1.72944037
  C -2.49362506 -0.91243510  2.78712487
  C -3.75441898 -0.33934490  2.73644554
  C -4.12717548  0.37905609  1.61568573
  C -3.24875489  0.53906667  0.55603728
  C -1.40436383  1.05592709 -1.68364608
  C -1.28425925  2.49870071 -1.16636297
  C  0.23185268  2.76280589 -1.19478703
  C  0.79654305  1.37196681 -1.51482805
  C -0.19041570  0.94738233 -2.60193191
  C -1.02113597 -1.40996538 -1.14049140
  C -1.94414764 -1.66756979 -2.32482428
  C -1.41098705 -2.52802671 -3.44328059
  O -3.08159936 -1.26500989 -2.32661279
  N  0.36619068 -1.77182710 -1.38781288
  C  1.23788449 -0.96874353 -0.53629312
  C  2.62101245 -0.86439971 -1.25395654
  N  2.54328326 -1.09619722 -2.57134943
  C  3.70108147 -1.12336065 -3.42746138
  O  3.65919379 -0.62534393 -0.67509773
  C  1.52820466 -1.80269284  0.72623639
  O  1.22873604 -2.97671223  0.75917447
  O  2.17487148 -1.17876249  1.68505310
  C  2.55204570 -1.94484532  2.82044563
  C  0.02176820  1.70756704  1.85272457
  C  0.47392792  2.43487719  2.94294848
  H  2.17538967  3.20370282  3.99501149
  H  3.77663461  2.28943570  2.34026495
  H  2.99568915  1.01104584  0.44944086
  H -0.64074580 -1.20915382  1.78035364
  H -2.19292803 -1.48667348  3.65100009
  H -4.43977839 -0.46083891  3.56172680
  H -5.11305882  0.81598849  1.55698983
  H -3.57234964  1.09253917 -0.30951886
  H -2.36082915  0.84802499 -2.15487510
  H -1.82243911  3.18432092 -1.82142008
  H -1.69067465  2.60904609 -0.16470834
  H  0.60967689  3.19115957 -0.26970348
  H  0.49408937  3.44094281 -2.00843839
  H  1.84977408  1.39845855 -1.78527435
  H -0.03050188 -0.05611348 -2.98452118
  H -0.22371314  1.64962681 -3.43258127
  H -1.45731533 -2.06931996 -0.36429865
  H -0.34599031 -2.70719254 -3.35772025
  H -1.64513023 -2.05296905 -4.39368924
  H -1.94070467 -3.47908439 -3.41751371
  H  0.50484004 -2.74677138 -1.11739160
  H  1.63356058 -1.35327438 -2.92951334
  H  4.05301209 -2.14591085 -3.58655457
  H  3.45650532 -0.67390135 -4.38888179
  H  4.49460189 -0.55389219 -2.94558132
  H  2.88061459 -2.94073467  2.51760237
  H  1.70507668 -2.03785535  3.50403923
  H  3.36155599 -1.39794339  3.29722798
  H -1.04260953  1.61358356  1.73920720
  H -0.24964265  2.84930534  3.62999131
