25
opt_min/./Product_158_opt.xyz
  C -2.93255800 -2.04855800  0.73553900
  C -1.44758292 -2.17293398  0.84694136
  O -0.88016083 -3.12743820  1.32751413
  C -0.66300129 -1.06495813  0.26274621
  C  0.62102337 -1.15751039 -0.17146486
 Cl  1.68784936 -2.44847544 -0.05637516
  N  0.97062220  0.00977566 -0.85521595
  C  2.16361091  0.67701075 -1.07910990
  O  3.19486507 -0.13545299 -0.85249193
  C  4.48955622  0.40182425 -1.10923028
  O  2.20449479  1.80848269 -1.46874250
  O -0.21321104  0.76337556 -1.00494621
  N -1.13656573  0.22798354 -0.06704947
  C -1.89873953  1.09121796  0.69329011
  C -1.94446898  2.48956049  0.16014158
  O -2.52507859  0.68803906  1.64451994
  H -3.21679838 -1.68891186 -0.25110673
  H -3.27356085 -1.31165241  1.46382124
  H -3.39235507 -3.00986036  0.94428643
  H  4.42223584  1.22035873 -1.82738684
  H  4.91957380  0.76752475 -0.17505531
  H  5.09185916 -0.41218649 -1.50709948
  H -1.00335736  2.77212074 -0.30329138
  H -2.19587277  3.16618598  0.97262914
  H -2.73009816  2.54784369 -0.59280607
