64
opt_min/./Product_3140_opt.xyz
  C  0.26842156 -3.73122807  0.18573382
  C  1.46761959 -2.90247193 -0.14269221
  O  2.28459472 -3.22227051 -0.96552433
  C  1.70457871 -1.59959313  0.67430537
  C  1.78434244 -2.07907348  2.13102482
  C  3.17657988 -2.43522473  2.56543264
  O  0.82899808 -2.23625630  2.84316824
  C  0.73716067 -0.43836195  0.37915143
  C  1.10939888  0.79232850 -0.09462574
  C  2.25052467  1.45256186 -0.88255569
 Cl  2.66930505  2.96832414 -0.03261020
 Br  1.27514607  1.86866999 -2.68055444
  C  3.60582986  0.92653663 -1.49384667
  C  4.74210897  0.32112142 -0.63206951
  C  4.43611728 -1.10735683 -0.10738650
  C  2.96510800 -0.89380194  0.18811330
  C -0.03944647  1.75101258  0.26362760
  C -0.50756268  2.87355369 -0.69876201
  O -1.63268115  2.52276908 -1.29438638
  C -2.19126735  3.48374745 -2.17926836
  O  0.03231720  3.94247650 -0.80204348
  C  0.32844660  2.46875830  1.49588930
  N  0.52107127  2.97907430  2.50045890
  O -1.13847546  0.94601589  0.58745129
  C -0.77854188 -0.44691538  0.55514158
  C -1.44544386 -0.95452679 -0.72763906
  C -2.82737903 -0.80789055 -0.81457480
  C -3.49583342 -1.12454394 -1.98126372
  C -2.79348871 -1.57649280 -3.08661705
  C -1.41820160 -1.69738749 -3.01795583
  C -0.74606324 -1.38069079 -1.84771170
  C -1.36080024 -1.03902649  1.82796592
  C -2.16809229 -2.16716540  1.82842162
  C -2.72422860 -2.62989921  3.00900602
  C -2.49411967 -1.96296295  4.19767278
  C -1.70387259 -0.82579067  4.20044452
  C -1.14143759 -0.36637979  3.02576925
  H -0.52839347 -3.49467737 -0.51786498
  H -0.09228206 -3.54822683  1.19314264
  H  0.51913147 -4.78242795  0.05454267
  H  3.70008252 -2.96787031  1.77711417
  H  3.12030109 -3.04713864  3.46299382
  H  3.72525098 -1.52585415  2.80223133
  H  4.02149786  1.82334675 -1.96320663
  H  3.39400021  0.22796417 -2.30706134
  H  5.63581577  0.31263382 -1.25686859
  H  4.93538350  0.97993407  0.21558916
  H  5.06531693 -1.32284084  0.75414540
  H  4.60142848 -1.86452408 -0.87077628
  H  2.98116443  0.00861342  0.80481332
  H  2.61847751 -0.69518154 -0.81634109
  H -2.58339953  4.33196511 -1.61483827
  H -2.99043237  2.97303720 -2.70970403
  H -1.42924077  3.83984001 -2.87563551
  H -3.36636412 -0.42503356  0.03847106
  H -4.56845734 -1.00904311 -2.03088573
  H -3.31439894 -1.81984281 -4.00060525
  H -0.85507295 -2.02826503 -3.87707524
  H  0.32975682 -1.47487186 -1.83580990
  H -2.37103999 -2.69424222  0.90813152
  H -3.34336106 -3.51507736  2.99377898
  H -2.92900724 -2.32576431  5.11695766
  H -1.52070852 -0.29341215  5.12179077
  H -0.52489149  0.51978298  3.03859734
