81
opt_min/./Product_3166_opt.xyz
  C  4.10119000 -3.89024900  1.57467800
  N  2.78605674 -3.34375479  1.36247784
  C  2.36588594 -2.92361815  0.16949828
  O  3.03428691 -3.05097827 -0.84654699
  C  0.91182999 -2.38622734  0.13450012
  F  0.40342038 -2.70303427  1.40054552
  C  0.89714099 -0.83353291  0.03054362
  C -0.05881035  0.10768203  0.27172792
  C -1.58959955 -0.06677866  0.15376586
  C -2.36396616 -0.02124889  1.45214182
  C -3.74864545  0.11696781  1.44368299
  C -4.47067708  0.06334982  2.62184048
  C -3.82543801 -0.15502309  3.82701697
  C -2.45753815 -0.35921713  3.83773457
  C -1.73593845 -0.30811679  2.65828901
  C -2.09146739  0.89368146 -0.90947313
  C -1.81180263  0.65859431 -2.25025595
  C -2.28504381  1.50895425 -3.23347880
  C -3.04842367  2.60980599 -2.89658896
  C -3.31383727  2.86880094 -1.56326831
  C -2.83264165  2.02598927 -0.58016073
  C -1.56189232 -1.53269707 -0.29524667
  C -2.36684986 -2.58847035 -1.01624693
  C -1.31237296 -3.72501698 -0.89434199
  C  0.20899127 -3.34784893 -0.91383808
  C  0.63883576  1.43668784  0.55265483
  C  0.89817994  1.54388088  2.06812735
  C  0.02236696  2.70343585 -0.01444743
  C  0.19612468  2.98105273 -1.36644710
  C -0.28315846  4.15338534 -1.91723883
  C -0.93999227  5.07921052 -1.12536885
  C -1.11411953  4.81544212  0.21972846
  C -0.63416336  3.64097619  0.77375727
  O  1.92058468  1.27621839 -0.06676362
  C  2.17618353 -0.09538156 -0.34395988
  C  2.29420608 -0.17853122 -1.89840515
  N  3.24251662 -0.96680799 -2.42759357
  C  3.40718923 -1.04734707 -3.86283286
  O  1.55157017  0.48990526 -2.59008918
  C  3.42518019 -0.36998144  0.50245916
  O  3.34266754 -0.75300073  1.65419935
  N  4.58766391 -0.02389649 -0.07773569
  C  5.83782324 -0.01538973  0.64237806
  H  4.02815136 -4.82861316  2.12429774
  H  4.55454059 -4.06727474  0.60048421
  H  4.71627356 -3.18473101  2.13598655
  H  2.23600613 -3.13627132  2.18117546
  H -4.26423769  0.25772087  0.50569347
  H -5.54408431  0.18382989  2.59728401
  H -4.38972296 -0.18788726  4.74753965
  H -1.94923301 -0.56980419  4.76775426
  H -0.67799283 -0.51387536  2.67017388
  H -1.19991210 -0.18050694 -2.53808840
  H -2.05007238  1.30757058 -4.26809279
  H -3.42471687  3.26670201 -3.66722797
  H -3.89537189  3.73509112 -1.28387737
  H -3.03551541  2.25677659  0.45376647
  H -0.74694916 -1.48635919 -1.00308174
  H -1.28543813 -2.02176837  0.62985237
  H -2.55032563 -2.30848349 -2.05425851
  H -3.30663299 -2.88982322 -0.55692888
  H -1.44624039 -4.46832188 -1.68305152
  H -1.48932983 -4.23279979  0.05722571
  H  0.52949227 -3.01287003 -1.90137785
  H  0.69993400 -4.31102055 -0.73369164
  H  1.32976794  0.61150535  2.42709104
  H  1.63373337  2.33102991  2.22534123
  H -0.00144357  1.76485544  2.62959877
  H  0.71215150  2.26650049 -1.98505290
  H -0.13839261  4.34481482 -2.97013026
  H -1.31009779  5.99931810 -1.55450720
  H -1.62424598  5.53059451  0.84963336
  H -0.79375672  3.47356041  1.82673524
  H  3.73091797 -1.65012299 -1.86455056
  H  3.25001297 -0.05730385 -4.29132955
  H  4.41193182 -1.39551972 -4.08854819
  H  2.67938601 -1.73031496 -4.30777471
  H  4.57791902  0.34942217 -1.01365493
  H  6.19874129  1.00532215  0.78438961
  H  5.65816295 -0.46184753  1.61890212
  H  6.58874670 -0.59264860  0.10194260
