60
opt_min/./Product_3057_opt.xyz
  N -1.74851200 -2.13431099  2.81910190
  C -1.52006630 -1.85937741  1.73457962
  C -1.10993195 -1.66000711  0.34923745
  C -0.11595998 -2.73307557  0.28288186
  N  0.53236439 -3.67277085  0.25176307
  C -0.51209794 -0.29741123  0.07382016
  C -1.02734803  0.93612140  0.17975193
  C -2.38694438  1.33793108  0.69799167
 Br -2.43316443  1.16295826  2.68979975
  C -2.71757993  2.83063234  0.53105388
  F -2.89259919  3.15050965 -0.76733696
  F -1.82770813  3.67511590  1.03795975
  F -3.88481525  3.13573283  1.11857293
  C -3.57879509  0.59698577  0.03436431
  C -4.02083806 -0.73879890  0.63964240
  C -3.64315710 -1.98192136 -0.16524491
  C -2.21212923 -2.00379742 -0.69476080
  C  0.05604043  1.95722400 -0.16821015
  C  0.51982811  2.63698922  1.14074903
  O  1.24907432  3.71216514  0.92511418
  C  1.71511426  4.41247218  2.07180916
  O  0.28136722  2.17514244  2.22709378
  C -0.29813693  2.98336956 -1.28640611
  C -0.62078521  2.35210596 -2.61352225
  O -0.26296932  4.16851891 -1.11826688
  N  1.12037146  1.14338614 -0.74045560
  C  2.47014531  1.64450239 -0.65627716
  C  0.90338014 -0.27922340 -0.46438146
  C  0.99319743 -1.01223827 -1.81982662
  C  1.86331155 -0.84712329  0.57558289
  C  3.04576328 -1.47824716  0.20427795
  C  3.91320397 -1.96634098  1.16374143
  C  3.61761618 -1.82865592  2.50884175
  C  2.45204116 -1.18828301  2.88800381
  C  1.58306896 -0.69729840  1.92986075
  H -3.33103235  0.47822146 -1.02310381
  H -4.43670832  1.26998727  0.08224434
  H -5.11024140 -0.73168944  0.73534526
  H -3.63383180 -0.82866083  1.65234630
  H -4.30540381 -2.07335738 -1.02934092
  H -3.80859553 -2.85426813  0.47060597
  H -2.10870974 -1.30203825 -1.52511197
  H -2.01290191 -3.00203682 -1.09432894
  H  1.86356136  5.44323194  1.75980933
  H  0.97761503  4.35102324  2.87359574
  H  2.65707404  3.97706056  2.41165509
  H -0.09565348  1.41172794 -2.73455253
  H -1.69500104  2.18536529 -2.67113813
  H -0.35165417  3.04448384 -3.40669902
  H  3.09600532  1.05703331 -1.32750918
  H  2.90193423  1.58953729  0.35188303
  H  2.47761268  2.68061087 -0.99050309
  H  1.85940661 -0.64611508 -2.36445400
  H  0.11064051 -0.79765630 -2.41960547
  H  1.08347533 -2.08710302 -1.70184569
  H  3.29918017 -1.59751290 -0.83671038
  H  4.82376704 -2.45846835  0.85576720
  H  4.29361453 -2.21629132  3.25600900
  H  2.20866507 -1.06571986  3.93194488
  H  0.68792312 -0.18891214  2.25574153
