48
opt_min/./Product_4647_opt.xyz
  C  0.98419000 -2.53891700 -0.04596600
  C  0.25602037 -1.30746886 -0.57898477
  C -0.42046889 -1.75427748 -1.88449513
  C -0.79296582 -0.72895726  0.42530746
  C -0.26154812 -0.78045088  1.86514998
  C -2.11737615 -1.49684353  0.43048698
  C -0.94537340  0.74356967 -0.07985206
  C -2.15064402  0.91922752 -1.04386092
  N -3.34773323  1.14556464 -0.45592341
  C -4.55009836  1.35682338 -1.22401712
  O -2.02702579  0.89840947 -2.25002024
  C -1.05919958  1.80634276  1.02518391
  O  0.20821830  1.02576031 -0.85302158
  C  1.14434538 -0.05021146 -0.86579548
  C  1.80504756 -0.03708580 -2.25311356
  C  2.27915230  0.23469035  0.12125600
  C  3.32884769 -0.65279914  0.34052036
  C  4.36209275 -0.33158260  1.20349021
  C  4.38992970  0.89384256  1.84422106
  C  3.39221182  1.81432816  1.57814863
  C  2.36030514  1.49066566  0.71716445
  H  0.26594413 -3.34449375  0.09469849
  H  1.49274899 -2.36018988  0.89460450
  H  1.71185927 -2.87872072 -0.77917231
  H -0.93671291 -0.93561880 -2.37394248
  H  0.32518065 -2.15204803 -2.56804776
  H -1.13223166 -2.55154247 -1.68732371
  H -0.93041974 -0.25544481  2.54230381
  H  0.72937797 -0.34337506  1.94831198
  H -0.21749997 -1.81363064  2.19974014
  H -1.92605317 -2.54856035  0.63588444
  H -2.64751673 -1.42536594 -0.51356417
  H -2.76603777 -1.11983750  1.21886278
  H -3.44223510  1.11482353  0.54345814
  H -5.01795205  2.30237048 -0.94573795
  H -4.26958465  1.38244268 -2.27533305
  H -5.26559273  0.54513642 -1.06781759
  H -1.18253023  2.78278493  0.56118460
  H -1.89616438  1.62454660  1.69393885
  H -0.15060474  1.83277914  1.62022828
  H  2.37482041 -0.94616059 -2.41960148
  H  1.04620324  0.07689432 -3.01976952
  H  2.47633325  0.81578259 -2.31204295
  H  3.36749815 -1.59425429 -0.17979379
  H  5.15821024 -1.04400627  1.36563845
  H  5.19473735  1.13685206  2.52180482
  H  3.42250515  2.79390215  2.03338143
  H  1.60760194  2.22341577  0.47455944
