37
opt_min/./Product_497_opt.xyz
  C  0.11128500  2.60517800 -1.34321000
  O -0.78271525  1.52517151 -1.52618383
  C -1.01050794  0.61247784 -0.49986437
  C -2.14196207 -0.35551902 -0.95798178
 Cl -3.03968613  0.22303781 -2.36310118
  C -3.10155670 -0.27091936  0.26437834
  C -2.37139318 -0.85043081  1.46096747
  C -1.49453968  0.07596716  1.82143196
  C -1.67288748  1.19397352  0.81703489
  O -3.05244892  1.11900105  0.52378845
  C -1.44379838 -1.67464410 -1.27916707
  C -2.29475958 -2.93537160 -1.18840050
  N -0.39080652 -1.64719772 -0.28376185
  N  0.09716355 -0.29407684 -0.26140643
  C  1.39823233 -0.01666158  0.10136212
  C  2.44450997 -0.85099392 -0.30862404
  C  3.74565548 -0.57967641  0.06182673
  C  4.04671885  0.51892878  0.84871348
  C  3.01580032  1.34089090  1.27518053
  C  1.70803194  1.07352024  0.92761024
  H  1.14054946  2.25649094 -1.23403850
  H -0.16314265  3.21523262 -0.47936743
  H  0.01193646  3.19289816 -2.25349156
  H -4.11778674 -0.60659042  0.08191175
  H -2.54301079 -1.83071987  1.85517462
  H -0.75699345  0.05809358  2.59746160
  H -1.39473275  2.20485464  1.09459273
  H -1.03389305 -1.55117673 -2.30254342
  H -2.38185436 -3.40942839 -2.16008758
  H -1.84220563 -3.63134417 -0.48625718
  H -3.29003397 -2.69343132 -0.82720699
  H  0.36697391 -2.30561442 -0.42472195
  H  2.24390068 -1.69822011 -0.94858160
  H  4.53764084 -1.23180835 -0.27821823
  H  5.06597327  0.72725524  1.13271384
  H  3.23024614  2.19150467  1.90666525
  H  0.91511359  1.70131996  1.29897602
