28
opt_min/./Product_4265_opt.xyz
  C -0.65326472 -1.68325875  0.75745777
  O -0.01583675 -2.52942532  1.33152629
  C -1.73442431 -1.98190459 -0.19214901
  C -2.57952643 -1.05592280 -0.65108792
  C -2.49715864  0.37863595 -0.30062460
  O -3.07387691  1.23185559 -0.91982796
  C -1.63396523  0.68834415  0.92222594
  C -0.39994896 -0.20361137  1.00545336
  C  0.50247187  0.48361234 -0.05370891
  C  1.99847560  0.20119241  0.25833082
  O  2.24895624 -1.06469409 -0.04534822
  C  3.56633593 -1.55511365  0.20749089
  O  2.75962100  1.00697252  0.69679783
  C  0.23094881  0.00903845 -1.40307866
  N  0.04214297 -0.32849041 -2.47829874
  O  0.22162044  1.86325152  0.03660625
  C -0.95349635  2.07765799  0.81315200
  C -0.57875295  2.52205550  2.16202114
  N -0.27380730  2.82963321  3.21771290
  C -1.75430015  3.15874911  0.24678527
  N -2.33511878  4.06950006 -0.12060377
  H -1.82189814 -3.01924790 -0.48517301
  H -3.35313811 -1.30015988 -1.36656562
  H -2.26381535  0.61224347  1.81336905
  H  0.09565276 -0.09011155  1.97971627
  H  3.76336063 -2.31006859 -0.55059023
  H  4.28729412 -0.73875409  0.14738006
  H  3.59391797 -2.00253389  1.20151499
