36
opt_min/./Product_3464_opt.xyz
  C -1.73474500  0.38189900 -1.91929400
  C -1.21660550 -0.40323916 -0.71318268
  C -2.29960873 -1.43142770 -0.35294740
  C -0.74941944  0.47225353  0.51453669
  C -1.74393183  0.39642484  1.68324072
  C -0.66789202  1.95725439  0.15315392
  C  0.64699319 -0.14428406  0.90659202
  C  0.89063553 -0.38374892  2.40599079
  C  1.85387801  0.75695164  0.51048923
  O  1.96503000  1.91452568  0.85423761
  N  2.84889332  0.13810043 -0.16837007
  C  4.10071029  0.79211622 -0.45715137
  N  0.60549805 -1.42575704  0.23258751
  C  0.05719253 -1.17883040 -1.07665912
  H -1.99912371 -0.32107288 -2.70918242
  H -0.98008910  1.05653367 -2.31703538
  H -2.62051991  0.95643089 -1.66261004
  H -2.05982004 -1.95907513  0.56370220
  H -3.27552060 -0.96091587 -0.25628149
  H -2.36421818 -2.17447089 -1.14614317
  H -1.73639622 -0.57065691  2.17472730
  H -2.74742219  0.58898864  1.31487392
  H -1.50647357  1.16090446  2.41964048
  H -0.02828773  2.14370471 -0.70672370
  H -1.66443971  2.33600055 -0.05701299
  H -0.25113808  2.51866235  0.98460515
  H  1.95621261 -0.50161973  2.59742732
  H  0.38154997 -1.29185267  2.72270036
  H  0.54321619  0.45611722  2.99643552
  H  2.79025317 -0.84061119 -0.39822662
  H  4.89086482  0.44354902  0.21557775
  H  4.39517389  0.60363750 -1.48976672
  H  3.95816898  1.86085707 -0.29309168
  H  1.46986193 -1.95518435  0.25222532
  H  0.71307419 -0.56525676 -1.72538326
  H -0.14416875 -2.11722915 -1.59784484
