65
opt_min/./Product_5935_opt.xyz
  C -0.98346500  1.71639300 -1.93599200
  C -0.43910529  1.41927814 -0.53149136
  C -0.15254866  2.80410132  0.07213627
  C  0.88898982  0.62084821 -0.69815376
  C  2.02154238  1.04298401  0.18333472
  C  3.29498460  0.94197990 -0.19157667
  C  4.44724157  1.18274678  0.66175804
  C  4.22754723  1.84395204  1.98866182
  C  5.66150351  0.80701564  0.25990106
  C  0.53136743 -0.85791378 -0.39844894
  C  0.15055731 -1.59848998 -1.70476379
  O -0.21468880 -2.85339336 -1.45686466
  C -0.65300510 -3.63503745 -2.55929828
  O  0.13166404 -1.10655350 -2.80746703
  C  1.69132965 -1.59272335  0.24850805
  C  2.65420664 -2.21505574 -0.53478096
  C  3.72737799 -2.85771014  0.05491056
  C  3.85126793 -2.88386440  1.43295025
  C  2.90239921 -2.25097957  2.21738753
  C  1.82806589 -1.60882888  1.63098737
  N -0.60446509 -0.75753219  0.47736687
  C -1.21733035 -1.93678726  1.02856383
  C -1.32939918  0.50109109  0.39085575
  C -1.32522806  1.13454908  1.81285918
  C -2.26810102  2.28710911  2.08452768
  O -0.61965825  0.68606587  2.67969470
  C -2.77537106  0.16724475  0.00937357
  C -3.17939940 -0.15923910 -1.28269033
  C -4.48058517 -0.54620788 -1.55817783
  C -5.41307503 -0.65817189 -0.54398844
  C -5.00358072 -0.43924655  0.75942827
  C -3.70492720 -0.04768366  1.02824089
  H -1.99495509  2.11502021 -1.89596418
  H -0.34765949  2.47570919 -2.38892120
  H -0.94836732  0.85028011 -2.58546382
  H  0.13783111  2.76445696  1.11628341
  H -1.02144382  3.45123345 -0.02524133
  H  0.66553388  3.25790894 -0.48467954
  H  1.20115459  0.70695490 -1.74210231
  H  1.78011831  1.34424776  1.18877265
  H  3.52354713  0.63058108 -1.20376101
  H  5.17812698  2.09339340  2.45248389
  H  3.67526734  1.18541126  2.65754759
  H  3.65397552  2.75964844  1.85979088
  H  6.53037082  0.93601700  0.88373940
  H  5.83014314  0.32948421 -0.69005992
  H -1.11684163 -2.99734278 -3.31412063
  H  0.19946456 -4.15503278 -3.00021635
  H -1.36916712 -4.35451636 -2.16869561
  H  2.57103076 -2.18807445 -1.61233921
  H  4.47215558 -3.34016500 -0.56145254
  H  4.68934369 -3.38822447  1.89063125
  H  3.00112008 -2.24827629  3.29257916
  H  1.10726993 -1.08805999  2.24194781
  H -0.52775119 -2.76909290  0.92372182
  H -2.16053352 -2.20771578  0.53796476
  H -1.41135688 -1.79017456  2.09540590
  H -2.91254341  2.02394958  2.92134171
  H -1.69282217  3.15426475  2.40361347
  H -2.87786498  2.54245418  1.22496221
  H -2.47943451 -0.17498199 -2.09594079
  H -4.75677408 -0.76701676 -2.57883957
  H -6.43145437 -0.95280339 -0.75335961
  H -5.69488565 -0.58651679  1.57648197
  H -3.40714905  0.05032293  2.05958966
