46
opt_min/./Product_2127_opt.xyz
  C  0.29033100 -3.49129800  0.70797400
  C -0.00258742 -2.09817061  1.17309013
  O -0.23645228 -1.86915715  2.33050613
  C -0.04109862 -0.93563158  0.16233317
  C  1.33060997 -0.23428835 -0.13316144
  C  2.58468763 -1.02067883  0.29257650
  F  2.69376812 -1.11400447  1.61262682
  F  3.70153691 -0.41271673 -0.15190545
  F  2.66968785 -2.27533864 -0.18185587
  C  1.19024937 -0.06107680 -1.69719331
  C  1.42332080 -1.42801923 -2.31138376
  C  0.31547698 -2.11255535 -2.05331632
  C -0.57959433 -1.15990920 -1.28544495
  O -0.20518473  0.08495957 -1.86256789
  N  1.29714074  0.97420389  0.65801427
  C  1.93995879  2.21771280  0.60442115
  N  2.90164755  2.34308128 -0.34606722
  C  3.68588704  3.55785204 -0.39670200
  O  1.64727640  3.08616877  1.37899030
  O  0.20262032  0.91915358  1.55098053
  C -0.80314576  0.25292240  0.83938276
  C -1.92003980 -0.24302162  1.77062561
  O -2.69955655 -1.09620101  1.43271070
  O -1.94020202  0.43161878  2.89297406
  C -2.91876174  0.04062587  3.84961552
  C -1.45200007  1.25238962 -0.16170153
  O -0.99523757  2.33466947 -0.38441439
  O -2.60118958  0.78294494 -0.63227247
  C -3.32106466  1.62204749 -1.53282311
  H  1.20280942 -3.83492847  1.19287472
  H  0.39265520 -3.58773215 -0.36322216
  H -0.51725572 -4.12787043  1.06760343
  H  1.71318884  0.78301859 -2.13507756
  H  2.31229924 -1.72665402 -2.82841309
  H  0.05011899 -3.09951212 -2.37487287
  H -1.65236092 -1.32323893 -1.32667224
  H  3.22264017  1.57007628 -0.89756495
  H  4.05079829  3.70715613 -1.41019155
  H  4.53195963  3.51512476  0.29450956
  H  3.04388627  4.38752920 -0.10679259
  H -2.61436586  0.49255251  4.78958201
  H -3.90393529  0.40501548  3.55041773
  H -2.94967094 -1.04693278  3.92942309
  H -2.65721388  2.38671230 -1.93755209
  H -3.70507974  0.98475805 -2.32687735
  H -4.14633432  2.09231484 -0.99686047
