51
opt_min/./Product_2282_opt.xyz
  N  3.07913112 -1.15934078  1.60486095
  C  2.16562597 -0.51110903  1.37989776
  C  0.97342607  0.26411070  1.11302144
  C -0.30963281 -0.60310022  1.19840973
  F -0.08209924 -1.95527823  1.13523509
  C -0.88385953 -0.17391585  2.57648016
  C  0.13002461 -0.54132009  3.64046655
  C  1.10310149  0.35040438  3.52169297
  C  0.70056472  1.21611313  2.34403730
  O -0.71871843  1.22714432  2.44889681
  C -1.15228145 -0.11325948 -0.00849101
  C -1.81414920 -1.29485157 -0.78109945
  O -1.64247669 -1.43570150 -1.96594604
  N -2.57633014 -2.09462059 -0.02005270
  C -3.23483100 -3.25409887 -0.57728379
  C -2.23787637  0.92093281  0.37071994
  O -2.20646943  2.05771072 -0.00491452
  O -3.23491353  0.36829647  1.06422239
  C -4.27592701  1.24044020  1.51076825
  O -0.28954969  0.55603947 -0.89003555
  C  0.97431723  0.86308134 -0.31830679
  C  1.18487616  2.39967558 -0.29767801
  N  0.36728609  3.05831485 -1.11384479
  C  0.40638382  4.49009738 -1.26727581
  O  2.06068908  2.91374863  0.37662950
  C  2.08166973  0.24725880 -1.16456914
  C  3.40595875  0.61846352 -0.95928877
  C  4.40854758  0.04201770 -1.71714312
  C  4.10054662 -0.90302751 -2.68046865
  C  2.78223818 -1.26651266 -2.88893236
  C  1.77163082 -0.69360512 -2.13609866
  H -1.91317830 -0.45586336  2.77531514
  H  0.03543972 -1.38336703  4.29525473
  H  2.02176795  0.45075939  4.06100111
  H  1.09757888  2.22071654  2.25966812
  H -2.70053701 -1.91158006  0.96199506
  H -4.20408237 -3.39049220 -0.10215174
  H -3.36334263 -3.09382185 -1.64677256
  H -2.62793354 -4.15062317 -0.42970270
  H -5.20134854  0.66999043  1.47449059
  H -4.33031545  2.11363745  0.86023036
  H -4.05961994  1.55905389  2.53142954
  H -0.37795192  2.54736170 -1.56540584
  H  0.30144158  4.74912754 -2.31975631
  H  1.36493933  4.84506257 -0.89059695
  H -0.39716039  4.96185219 -0.69684313
  H  3.65004246  1.35741542 -0.21213174
  H  5.43436120  0.33407450 -1.54945716
  H  4.88704816 -1.35494563 -3.26708270
  H  2.53088101 -2.00063146 -3.63950526
  H  0.74506520 -0.97733994 -2.30784561
