35
opt_min/./Product_4776_opt.xyz
  O  1.09867586 -2.28222828 -2.45555555
  C  1.79199123 -1.49633015 -1.59117895
  O  2.97124753 -1.41871804 -1.73184903
  C  0.91914825 -0.83292673 -0.55955171
  C -0.11219739 -1.84825792 -0.05824274
  C -0.98829553 -2.25997702 -1.21007228
  O -2.14845883 -2.48812469 -1.25091364
  O -0.30535418 -2.32113645 -2.40853213
  C -0.71581636 -1.13455598  1.17165699
  C -1.97338028 -0.28017665  0.80390344
  N -1.69538271  0.96873823  0.39653961
  C -2.75008568  1.88327939  0.02153768
  O -3.08266024 -0.74864638  0.87984570
  C -1.11815523 -2.10161465  2.18377522
  N -1.37805465 -2.84353057  3.01019322
  N  0.42604678 -0.38940473  1.69620932
  C  1.53538640 -0.29265449  0.75093389
  C  2.71558345 -1.11602695  1.26182594
  C  1.90690113  1.17773242  0.52684757
  O  1.04898478  2.02194342  0.37404479
  O  3.19891758  1.39930081  0.51945336
  C  3.66269775  2.72893093  0.29473031
  H  0.39253194 -0.01466751 -1.07463882
  H  0.40636108 -2.75382456  0.29174480
  H -0.75466779  1.35155860  0.39806921
  H -2.80027109  2.71694751  0.72384584
  H -3.69153971  1.33709510  0.03872198
  H -2.56813354  2.27122596 -0.98108155
  H  0.17482360  0.46813691  2.16648259
  H  2.41242307 -2.14866835  1.41257884
  H  3.54330265 -1.08250410  0.56061113
  H  3.03824020 -0.71687985  2.21894413
  H  4.04937395  2.79523187 -0.72262097
  H  2.85017304  3.44383693  0.43167929
  H  4.46322269  2.91438850  1.00832691
