42
opt_min/./Product_4907_opt.xyz
  C  0.87954300  1.21832600 -0.44828600
  C  0.05770962 -0.00696329 -0.05479643
  C  0.73324883 -0.70284321  1.13243345
  N  2.11485008 -0.96993670  0.92872161
  C  2.74320869 -2.09871436  1.56860746
  C  2.84586273 -0.16449606  0.10613065
  C  2.33426810  0.86375186 -0.59215550
  C  3.09273591  1.67917099 -1.55045786
  N  4.45734677  1.60140802 -1.48263409
  O  2.55038082  2.36362027 -2.40205171
  N  0.45260874  0.27365930  2.19264509
  C  0.59162693 -0.21628074  3.53936913
  O -0.95236955  0.57487255  1.98473927
  C -1.27059723  0.38634451  0.62399675
  C -2.27458551 -0.80198212  0.52020147
  O -2.51773121 -1.49699835  1.48022632
  N -2.74482154 -1.02319347 -0.72047642
  C -3.67312959 -2.09147859 -1.01248742
  C -1.84805726  1.69882721  0.08199573
  O -2.03575338  2.68367230  0.73144069
  O -2.10403935  1.60085709 -1.23666701
  C -2.59202476  2.77428008 -1.88759898
  H  0.53528131  1.64340477 -1.39182671
  H  0.77118941  1.98264704  0.32802521
  H -0.07293669 -0.67839958 -0.90486015
  H  0.20481658 -1.64738373  1.37229998
  H  3.24435573 -2.72954435  0.82961394
  H  1.98833304 -2.69464866  2.07654190
  H  3.48286851 -1.77597096  2.30815147
  H  3.87739404 -0.47006606  0.00062947
  H  4.96656963  2.24353239 -2.07087887
  H  4.91713155  1.29621531 -0.64336077
  H  1.65739010 -0.26685219  3.75880861
  H  0.11881591  0.50663656  4.19941489
  H  0.12502238 -1.19845862  3.69320673
  H -2.54603066 -0.35413573 -1.44974538
  H -3.84662142 -2.63780848 -0.08634761
  H -4.62016828 -1.69204547 -1.37908747
  H -3.25441497 -2.76541235 -1.76143925
  H -3.68126056  2.73550275 -1.94234570
  H -2.16227198  2.77905307 -2.88782685
  H -2.28648509  3.66154886 -1.33315461
