43
opt_min/./Product_1445_opt.xyz
  N -2.97305292  1.96296200 -1.73320213
  C -2.15787053  1.62583324 -1.00833247
  C -1.05733427  1.19831125 -0.16362869
  C  0.05461023  0.48185300 -0.97759885
  F -0.37404164  0.00898320 -2.19451606
  C  1.11212456  1.61249558 -1.10816594
  C  0.48554119  2.77400153 -1.85466412
  C -0.33334777  3.34982481 -0.98596995
  C -0.24557575  2.49065918  0.26079199
  O  1.10680865  2.06113498  0.23491963
  C  0.49488425 -0.68655756 -0.05460706
  C  1.80927349 -0.41187136  0.77789171
  N  2.97083549 -0.44571933  0.09851045
  C  4.21795446 -0.11495766  0.75502817
  O  1.73232515 -0.27783673  1.97097387
  C  0.60041324 -2.04003989 -0.79029524
  C  1.49723566 -2.13526264 -1.99790153
  O -0.01033975 -2.98526237 -0.37544854
  O -0.49952312 -0.83436363  0.93762558
  C -1.46803992  0.18514635  0.93004546
  C -1.61535935  0.85022364  2.32264171
  C -1.05397188  0.07450763  3.46682346
  O -2.17708141  1.90920274  2.42123004
  C -2.88390343 -0.40690313  0.67009656
  C -2.94554360 -1.89914864  0.68751320
  O -3.82676680  0.31766281  0.51271249
  H  2.10125569  1.31956860 -1.44507022
  H  0.67923341  3.00425716 -2.88237155
  H -0.98603444  4.19043544 -1.09885049
  H -0.50076334  2.91915062  1.22196088
  H  2.99090353 -0.51892698 -0.90380279
  H  4.44721738  0.94840517  0.64977473
  H  5.02362883 -0.70567066  0.32235769
  H  4.11323383 -0.34612498  1.81268553
  H  0.99885893 -2.77544943 -2.72517758
  H  2.41892792 -2.63695761 -1.70591711
  H  1.71273528 -1.17868931 -2.46248289
  H -0.73334338 -0.91441006  3.16181330
  H -0.18610530  0.61533443  3.84398624
  H -1.79167097  0.02631518  4.26597436
  H -2.58156429 -2.27078856 -0.27049479
  H -3.97795114 -2.21432507  0.81686957
  H -2.29999360 -2.30936335  1.45786094
