48
opt_min/./Product_1567_opt.xyz
  C -1.76393550  3.68663045  0.24966433
  O -0.93327650  2.59355349 -0.11519022
  C -0.40989085  1.89720126  0.88634438
  O -0.57980185  2.15966148  2.04983228
  C  0.42876864  0.72613208  0.38693883
  C -0.38453865 -0.44482525 -0.25516762
  C -1.86721142 -0.13971287 -0.39793224
  C -2.54102523 -0.18090520 -1.61218494
  C -3.89319377  0.10970627 -1.68810700
  C -4.60495553  0.45241401 -0.55465264
  C -3.94563258  0.50926930  0.66054572
  C -2.59670407  0.21830802  0.73609322
  C  0.34352809 -0.50399792 -1.64650859
  C  1.80398736 -0.87513367 -1.47487360
  C  2.39749146  0.21847015 -1.02146430
  C  1.27412690  1.21167142 -0.85165785
  O  0.42690161  0.88110742 -1.93643647
  C -0.12667254 -1.67236522  0.64989449
  C -0.03114680 -3.00913536 -0.10208713
  C -1.16648514 -1.91613841  1.64608108
  N -1.84203185 -2.24321836  2.51117045
  N  1.12482511 -1.35966041  1.34877290
  C  1.19800017  0.08529339  1.55294563
  C  2.64380956  0.59207421  1.65985371
  N  3.56547125 -0.38641248  1.75631795
  C  4.97613012 -0.11344074  1.86432467
  O  2.90261190  1.77670742  1.70937512
  H -1.97456327  4.22568617 -0.66985234
  H -1.25082235  4.32669719  0.96980384
  H -2.69000276  3.31682353  0.69570717
  H -2.02783005 -0.41815957 -2.52824649
  H -4.38747653  0.06940152 -2.64764080
  H -5.65840227  0.68043087 -0.61707755
  H -4.47779621  0.78313904  1.55908656
  H -2.11481711  0.28790438  1.69819410
  H -0.17410110 -1.05752574 -2.42147951
  H  2.23838889 -1.81787264 -1.74221852
  H  3.42955939  0.41369525 -0.81755333
  H  1.53008144  2.26523306 -0.83968164
  H  0.11538625 -3.81578458  0.61388696
  H -0.95910921 -3.18787766 -0.64145688
  H  0.79745645 -3.01221884 -0.79903107
  H  1.16761067 -1.85477783  2.23553237
  H  0.70420672  0.41313960  2.48632114
  H  3.25736824 -1.33410562  1.60127452
  H  5.42884346 -0.77326809  2.60313543
  H  5.08971903  0.92336633  2.17748788
  H  5.48314695 -0.24915067  0.90474970
