42
opt_min/./Product_4557_opt.xyz
  C -1.58559323  2.56311686  1.62204194
  C -1.54276930  2.48936005  0.12624161
  C -1.89862837  3.75589213 -0.60580343
  C -1.20914807  1.40354565 -0.56672722
  C -0.88069271  0.05263414 -0.02584966
  C -1.56900029 -1.07175511 -0.82744525
  C -2.97046558 -1.48204808 -0.44391343
  C -3.47627445 -1.14028514  0.92305063
  C -3.69671688 -2.18756325 -1.29874288
  C -0.54691258 -2.18499024 -0.67411527
  C -0.87144657 -3.53069787 -0.93460239
  N -1.16748974 -4.61479996 -1.15552237
  N  0.59934323 -1.81972418 -0.26683277
  C  0.62427830 -0.38888919 -0.10620354
  C  1.44855551 -0.05573214  1.13619990
  N  2.61148873 -0.72731123  1.15487444
  C  3.54847335 -0.64347906  2.24656972
  O  1.08948437  0.72934561  1.98880122
  C  1.22761265  0.26129961 -1.36758524
  C  1.87421190  1.59361982 -1.13099925
  O  1.13595684 -0.26352982 -2.44430653
  H -1.30505115  3.56187013  1.95024823
  H -2.59793583  2.37120533  1.98030871
  H -0.90278298  1.85435398  2.08029865
  H -2.34806356  4.48017908  0.06781477
  H -2.59686668  3.55151795 -1.41512646
  H -1.00742920  4.20544619 -1.04307478
  H -1.19476368  1.46807796 -1.64899742
  H -1.14946989 -0.01833928  1.03022143
  H -1.57094904 -0.81226972 -1.89569623
  H -2.98920124 -1.76791429  1.67131168
  H -4.54725546 -1.31643347  0.97454486
  H -3.28676569 -0.09918503  1.17332201
  H -3.33439183 -2.45645090 -2.27685449
  H -4.68629238 -2.52915401 -1.05076817
  H  2.75906799 -1.42511475  0.43982875
  H  3.59909652 -1.58626959  2.79434378
  H  4.54276950 -0.39501590  1.87231374
  H  3.20491309  0.14277208  2.91685881
  H  1.96751196  2.13158971 -2.07124596
  H  1.30377830  2.17413675 -0.41063467
  H  2.87022695  1.42814138 -0.72139719
