47
opt_min/./Product_4353_opt.xyz
  C -4.38569500 -0.28259700 -0.77257000
  C -3.73327646 -0.66326675  0.52358538
  C -4.64220286 -1.33826501  1.50654051
  C -2.44955782 -0.45810059  0.79527346
  C -1.45437525  0.18698484 -0.12700624
  C -0.10126872  0.47413124  0.54586799
  C  0.48171077  1.80999141  0.16257108
  C  1.28009143  2.52060352  1.22452027
  C  0.32597301  2.37010613 -1.02785801
  C  0.80288154 -0.73408403  0.12570250
  C  0.60251053 -1.92954704  1.10065848
  C  2.24512139 -0.27045707  0.11605780
  C  2.81894671  0.38437588 -0.96973246
  C  4.12702842  0.83393932 -0.93372371
  C  4.89615865  0.66949424  0.20413561
  C  4.32212485  0.08047225  1.31553953
  C  3.01585565 -0.37325710  1.27211344
  N  0.24358777 -1.18494492 -1.14498962
  C  0.96941889 -1.46927192 -2.34397329
  C -1.10521000 -0.70495088 -1.33370829
  H -4.43208056 -1.14276465 -1.44045736
  H -5.40571360  0.05403449 -0.59616833
  H -3.83788454  0.50592139 -1.28025889
  H -5.52410434 -0.72683827  1.69386508
  H -4.13755429 -1.52167353  2.45135489
  H -4.98336890 -2.29255399  1.10667319
  H -2.07858460 -0.77098157  1.76122920
  H -1.88734741  1.12890193 -0.47789698
  H -0.21094663  0.47459641  1.63312142
  H  1.19892101  2.02006222  2.18590714
  H  0.93241514  3.54574080  1.33757525
  H  2.33368521  2.55300834  0.95207772
  H  0.76047282  3.33190265 -1.24624279
  H -0.21691430  1.90848368 -1.83313480
  H  0.07448608 -1.64506993  2.00533586
  H  0.01407914 -2.68760248  0.59180705
  H  1.54558455 -2.38671427  1.38506293
  H  2.24337036  0.57659844 -1.85769586
  H  4.54100824  1.32635996 -1.80178577
  H  5.91927827  1.01387575  0.23089912
  H  4.88954592 -0.02192120  2.22974274
  H  2.60173083 -0.79520576  2.17473195
  H  1.96620826 -1.82841585 -2.09574231
  H  1.05274454 -0.61865875 -3.03975671
  H  0.44170026 -2.27006975 -2.87342476
  H -1.18243473 -0.14308653 -2.27696076
  H -1.79694130 -1.55479947 -1.39926324
