49
opt_min/./Product_1296_opt.xyz
  C  1.95077791 -2.25819386  2.07289623
  O  0.60541500 -1.95933369  1.80718633
  C  0.29480294 -0.96230436  0.85334664
  C -1.25464862 -0.95486104  0.73126532
  C -1.49504675 -1.09794063 -0.77915192
  C -1.21775939 -2.55740445 -1.14616760
  C  0.30433828 -2.68000291 -0.94459393
  C  0.73928644 -1.24840988 -0.59432599
  C -0.27085428 -0.40188920 -1.37441446
  C -1.66467702  0.38685942  1.36926856
  C -1.88068980  0.18627838  2.80418313
  N -2.01548340  0.09414600  3.93544081
  C -2.92816573  1.03735821  0.84876136
  C -4.07105832  0.27750504  0.63019629
  C -5.23262182  0.88484084  0.18805896
  C -5.26684432  2.25315630 -0.02106666
  C -4.13961472  3.01591523  0.22964789
  C -2.97568037  2.41319723  0.67309580
  O -0.55038642  1.24557295  1.19498737
  C  0.63490319  0.48757381  1.34649795
  C  1.76070207  1.21089152  0.63725178
  C  1.49453889  2.34954630 -0.11480904
  C  2.51015312  3.01975861 -0.77323021
  C  3.81415165  2.56920913 -0.68597378
  C  4.09541180  1.45004378  0.07851150
  C  3.07966242  0.78257770  0.73823101
  H  2.50382691 -2.53470443  1.16918896
  H  1.92276410 -3.10918721  2.75355680
  H  2.46202607 -1.43170539  2.57692836
  H -1.67884201 -1.79010855  1.29161536
  H -2.46432606 -0.72611270 -1.10397131
  H -1.77814885 -3.25863374 -0.52717462
  H -1.49831385 -2.74522401 -2.18383863
  H  0.80449782 -3.01826793 -1.85252767
  H  0.54163420 -3.37599674 -0.14227705
  H  1.78763602 -1.03353270 -0.78710394
  H -0.22283347  0.64998702 -1.11444921
  H -0.18808952 -0.52047833 -2.45256333
  H -4.05863994 -0.78513461  0.82473784
  H -6.11363412  0.28607119  0.01135238
  H -6.17457225  2.72552196 -0.36679606
  H -4.16650413  4.08639752  0.08986434
  H -2.09311124  2.99958675  0.87362377
  H  0.87775583  0.40788549  2.42196421
  H  0.48253787  2.71787899 -0.17244808
  H  2.27694733  3.90133919 -1.35235109
  H  4.60916734  3.08907468 -1.20026604
  H  5.11203854  1.09540852  0.16691947
  H  3.32712387 -0.07827749  1.33796751
