46
opt_min/./Product_2390_opt.xyz
  F  0.81738500 -1.10788200 -2.78635700
  C  1.19076231 -0.12408138 -1.94268737
  F  2.52899351 -0.10195561 -2.01707719
  F  0.76223035  1.01119262 -2.48725519
  C  0.69011014 -0.36799756 -0.51895313
  C -0.85299640 -0.35681399 -0.31160702
 Br -1.94640141 -0.34508542 -1.96469109
  C -1.09238210 -1.71639282  0.37733235
  C -0.45244247 -1.74980790  1.77513809
  C  1.05743531 -1.84844043  1.47847647
  C  1.10328411 -1.79095444 -0.05265311
  C -0.13615777 -2.61524713 -0.40674549
  C -1.11552562  0.92894807  0.52164211
  C -1.39031570  2.17130431 -0.42521199
  N -2.67890653  2.50530020 -0.56689858
  C -3.07213139  3.61254686 -1.40939794
  O -0.47266620  2.71748283 -0.97770252
  C -2.20748337  0.82597787  1.59313741
  O -2.09108075  1.28703511  2.70056029
  N -3.34915553  0.22717445  1.16440339
  C -4.45347177  0.02458185  2.07956090
  N  0.14745325  1.27011991  1.09205476
  C  1.10095844  0.71791124  0.47395717
  C  2.51184353  1.06306823  0.82991280
  O  2.82288044  2.04155228  1.44647965
  O  3.35770015  0.12795861  0.39038240
  C  4.74735538  0.34376597  0.60765690
  H -2.13726030 -2.02280288  0.37633050
  H -0.80747225 -2.64196723  2.29291722
  H -0.69753408 -0.88619245  2.38896769
  H  1.61812905 -1.04313914  1.94816973
  H  1.47649798 -2.79016221  1.83160996
  H  2.04918962 -2.10902117 -0.48703534
  H -0.08659332 -3.62289710  0.00208683
  H -0.35271890 -2.67415237 -1.47102329
  H -3.40066122  2.05980876 -0.02310011
  H -3.26425907  4.50772825 -0.81442952
  H -3.96961996  3.34285390 -1.96454787
  H -2.25774141  3.81666592 -2.10221026
  H -3.40801420 -0.20753169  0.25718267
  H -5.34878345 -0.21663833  1.51347968
  H -4.23701499 -0.78389241  2.78221511
  H -4.60761272  0.93730853  2.65524951
  H  4.89314405  1.17400186  1.30075641
  H  5.15872608 -0.57722651  1.01988357
  H  5.21631695  0.56541025 -0.35082517
