38
opt_min/./Product_736_opt.xyz
  C  0.19199600  2.85043300 -0.41908200
  C -0.63355365  1.83410755 -1.15734982
  O -0.79652748  1.88176753 -2.34642574
  C -1.29432743  0.71495165 -0.33196829
  C -0.31431848 -0.36438204  0.25408115
  C  1.14428288 -0.07119526 -0.05643961
  C  1.99852943  0.47766419  0.89491901
  C  3.31714361  0.76156981  0.58186204
  C  3.80878447  0.51336699 -0.68653623
  C  2.96104048 -0.00767331 -1.64775617
  C  1.64387676 -0.29294304 -1.33937071
  C -0.64149314 -0.22345037  1.77829239
  C -2.03671961 -0.71654415  2.07862574
  C -2.85172562  0.21261815  1.58782977
  C -1.94193123  1.25935026  0.98457567
  O -0.82405477  1.19016231  1.86279854
  C -0.84344587 -1.59260213 -0.54840190
  C  0.00448982 -2.83593537 -0.65647979
  O -1.17273379 -0.95855766 -1.79990280
  N -2.09116126 -0.04288676 -1.32876934
  O -3.02843106 -0.89231782 -0.67402965
  C -2.30400678 -1.89405109 -0.13099112
  O -2.74443670 -2.85243138  0.41847611
  H -0.15574207  3.84170084 -0.70852479
  H  0.15676469  2.73431360  0.65747279
  H  1.22560694  2.76212757 -0.75408921
  H  1.65100265  0.72427985  1.88422485
  H  3.96155852  1.18632165  1.33702657
  H  4.83788066  0.73629534 -0.92354126
  H  3.32541131 -0.18856626 -2.64746054
  H  1.00097747 -0.67625596 -2.11450018
  H  0.13627625 -0.57844600  2.44612021
  H -2.27375462 -1.62617167  2.59171348
  H -3.92259732  0.23000410  1.56854851
  H -2.34052517  2.26765037  0.91566846
  H -0.44997038 -3.62427553 -0.05593055
  H  0.03120222 -3.16357086 -1.69365119
  H  1.01943915 -2.66005322 -0.31053598
