35
opt_min/./Product_4439_opt.xyz
  O  2.09029700 -2.69133200  1.47118700
  C  2.94568995 -2.17472140  0.91703087
  O  3.79317246 -1.66571581  0.33996922
  C  0.67690316 -0.69677971 -0.83804760
  C -0.38553841 -0.80519004 -0.06084777
  C -2.05890147 -2.60691143 -1.72820737
  O -1.14910246 -2.81825962 -2.38569994
  O -2.98404678 -2.43714181 -1.07754197
  C -0.99078931  0.54462100  0.22333023
  C -0.95194364  0.87398529  1.71878863
  C -2.40299864  0.53321669 -0.40805417
  O -2.56206645  0.70552911 -1.59660298
  N -3.42085070  0.28470993  0.44105766
  C -4.78031740  0.12377658 -0.01844171
  N -0.16229455  1.45169206 -0.57146639
  C  0.98179506  0.74656266 -1.11559759
  C  2.28637311  1.09576641 -0.38067758
  N  3.38144126  1.13213525 -1.16005421
  C  4.70679766  1.34231538 -0.62622725
  O  2.29896962  1.32928390  0.81241599
  H  1.29310229 -1.49333937 -1.21462370
  H -0.79301206 -1.70810111  0.35742703
  H -1.51451738  1.78167365  1.92944173
  H  0.08807616  1.03196789  2.00346424
  H -1.33926424  0.05605992  2.32367226
  H -3.23275403  0.05831918  1.40282529
  H -5.08894844 -0.92225494  0.03689917
  H -5.45405455  0.73529069  0.58236789
  H -4.81210751  0.44784537 -1.05675060
  H  0.11035817  2.26940128 -0.04107289
  H  1.07617416  0.94810989 -2.19110923
  H  3.30934015  0.85133710 -2.12496236
  H  5.27302732  1.99813066 -1.28630360
  H  5.23905774  0.39531512 -0.51028855
  H  4.59757116  1.80576768  0.35249207
