41
opt_min/./Product_1251_opt.xyz
  N -2.13848636  3.96064455  0.04527334
  C -1.89593205  2.91015769  0.42022355
  C -1.71137214  1.54535572  0.88587377
  C -1.87342287  1.52116888  2.34425110
  N -2.04803012  1.42307426  3.46772686
  C -0.28780191  1.05745381  0.67422144
  C  0.24958818 -0.16861778  0.61444153
  C -0.14751691 -1.46861543 -0.05224327
  C -0.18436717 -2.51301910  0.96160818
  N -0.26908260 -3.29930473  1.78393799
  C  0.89032215 -1.77536668 -1.03872704
  N  1.56632626 -1.96651759 -1.93868144
  C -1.43089112 -1.46219383 -0.92122813
  C -2.72686683 -1.73332597 -0.16675751
  C -3.03014470 -0.67685206  0.89151725
  C -2.92846521  0.75510854  0.34111364
  C  1.64103758 -0.10688623  1.23441959
  C  2.72149895 -0.96840589  0.58443998
  O  3.50183806 -0.28248158 -0.22362529
  C  4.51022044 -1.02843839 -0.89935392
  O  2.81885104 -2.14581560  0.82237505
  O  1.99100620  1.24600847  1.25225221
  C  0.82723595  2.04622676  1.04849548
  C  1.14704671  3.01893266 -0.10293539
  C  0.55677864  2.83008183  2.24896928
  N  0.39713925  3.46065003  3.18747543
  H -1.31561270 -2.22719041 -1.69209918
  H -1.47508282 -0.49667875 -1.42714363
  H -3.53916879 -1.76317395 -0.89491133
  H -2.67320046 -2.71172950  0.31267205
  H -4.03787330 -0.84465208  1.26842336
  H -2.35420537 -0.80420041  1.73926593
  H -3.81159685  1.31691792  0.65671836
  H -2.92474631  0.76509439 -0.74842015
  H  1.53249829 -0.49603962  2.26890413
  H  5.17463986 -1.50427987 -0.17695511
  H  4.04451765 -1.79687823 -1.51860940
  H  5.05205148 -0.31170324 -1.50952032
  H  0.29746796  3.63661562 -0.37279627
  H  1.47876446  2.43960733 -0.96182886
  H  1.96397090  3.66265763  0.21429771
