53
opt_min/./Product_1906_opt.xyz
  C  1.62531496  1.18437162 -1.88440919
  C  1.43521683  0.22081072 -0.68091053
  C  2.34077932  0.63336704  0.46634501
  C  3.66381939  0.98983954  0.22883344
  C  4.50319624  1.33482323  1.27240951
  C  4.03748224  1.32740034  2.57603966
  C  2.72603668  0.96531989  2.82666278
  C  1.88819730  0.61856242  1.78119748
  C -0.02553910  0.36900975 -0.30154521
  C -1.06578545 -0.46200974 -0.15068345
  C -1.19713254 -1.95812045  0.07045536
  C -2.31593645 -2.23115768  0.96875921
  N -3.04528818 -2.52468716  1.79755390
  C -1.43955002 -2.59691163 -1.20969276
  N -1.57502447 -3.04976939 -2.24918348
  C -0.04879663 -2.65535046  0.87419796
  C  1.09687829 -3.24848596  0.06116075
  C  2.21532288 -2.24691070 -0.18899571
  C  1.85391819 -1.17288672 -1.21376309
  C -2.35584933  0.35832725 -0.32053004
  C -2.64365836  0.30037560 -1.75629496
  N -2.79145147  0.38382990 -2.88650176
  C -3.63960946 -0.06997369  0.40592020
  O -4.46628916 -0.77995636 -0.10277277
  O -3.71045432  0.47109366  1.60761903
  C -4.86083439  0.17367362  2.39221031
  N -1.95444286  1.69567553  0.07832301
  C -2.72523874  2.78772005 -0.46819252
  C -0.52270759  1.79282845 -0.14971706
  H  0.77181593  1.12200357 -2.55623577
  H  1.74929287  2.21174338 -1.55119315
  H  2.50877506  0.91850104 -2.45779904
  H  4.04817746  0.99996467 -0.77895877
  H  5.52638851  1.61227516  1.06628358
  H  4.69293895  1.59605414  3.39062856
  H  2.35312125  0.95177172  3.84028274
  H  0.86553287  0.34165539  1.99707943
  H -0.50788946 -3.45704790  1.45986058
  H  0.34710710 -1.91138171  1.56758126
  H  0.72646792 -3.61747823 -0.89712002
  H  1.50256466 -4.10076759  0.60981743
  H  2.52067259 -1.78833182  0.75353932
  H  3.07283064 -2.81390411 -0.55746872
  H  1.08884136 -1.53401569 -1.90292556
  H  2.76061833 -0.99637894 -1.79480663
  H -5.64485552 -0.24793454  1.76157751
  H -4.58127384 -0.54997281  3.15828279
  H -5.18661819  1.10554374  2.85135981
  H -3.77373227  2.64785580 -0.20848274
  H -2.37564684  3.70959922 -0.00497552
  H -2.63870661  2.88184976 -1.55949087
  H -0.30090329  2.43782345 -1.00412797
  H -0.04408697  2.23737539  0.73444691
