62
opt_min/./Product_3135_opt.xyz
  C -1.67304200 -0.99562700  3.78876600
  N -1.68623331 -0.39838917  2.47529949
  C -1.43365837 -1.11015240  1.36393970
  O -1.27607823 -2.30962379  1.37229574
  C -1.39242140 -0.21818957  0.08150739
  C -1.50895693 -1.02974532 -1.21040431
  C -0.97386923 -0.51595891 -2.38752108
  C -1.19056622 -1.14649428 -3.59985994
  C -1.95159634 -2.30144281 -3.65627250
  C -2.49886939 -2.81011724 -2.49153820
  C -2.29589839 -2.17230905 -1.28128374
  C  0.00887269  0.38413788  0.11237569
  C  0.66235103  1.55486207  0.28013806
  C  0.17681940  2.91895229  0.65267745
 Br  1.58149835  4.32601257  0.79355482
 Br -0.39391218  2.85936005  2.58634565
  C -0.85596324  3.61464798 -0.23000774
  C -1.97347626  2.75893518 -0.80314660
  C -2.80582351  2.05617302  0.27269343
  C -2.76092605  0.55369424  0.06379571
  C  2.17687471  1.34468933  0.12338280
  C  2.73267830  2.04939148 -1.12805729
  C  3.00117941  1.63667048  1.39534971
  O  2.30681443 -0.04656080 -0.15545169
  C  1.09006093 -0.71292993  0.04406488
  C  1.04417380 -1.82427156 -1.02504363
  O  1.71989597 -1.42506925 -2.10392562
  C  1.88100452 -2.40343012 -3.12199352
  O  0.58656769 -2.92211078 -0.89223551
  C  1.22711745 -1.32122142  1.46937613
  O  1.06403438 -0.64018876  2.45327646
  O  1.67991453 -2.54910926  1.45363316
  C  1.84029495 -3.21506974  2.70074178
  H -2.60813900 -0.77761155  4.30619219
  H -0.83447416 -0.60674829  4.36802627
  H -1.56494534 -2.07136102  3.66802048
  H -1.64599111  0.60649586  2.44911402
  H -0.37103697  0.38235659 -2.36641074
  H -0.76609026 -0.72796468 -4.50112779
  H -2.11661589 -2.79756974 -4.60095843
  H -3.09842947 -3.70708681 -2.52529975
  H -2.73120124 -2.58236855 -0.38574598
  H -1.27602721  4.45378041  0.33273295
  H -0.30976824  4.04410423 -1.07712305
  H -1.53721831  2.01039478 -1.46602002
  H -2.60264411  3.40251216 -1.41371995
  H -2.46566893  2.32342363  1.26674288
  H -3.84836300  2.36957133  0.21361842
  H -3.41859079  0.07207536  0.79140250
  H -3.20859361  0.37470370 -0.91645563
  H  1.95799050  2.15460902 -1.88545614
  H  3.16851408  3.02003705 -0.92213609
  H  3.50839569  1.40110006 -1.52814257
  H  3.58975485  0.74750373  1.60928146
  H  2.37222862  1.81889557  2.26266556
  H  3.68587145  2.46838576  1.26099233
  H  2.26751276 -1.87544322 -3.99020702
  H  2.58733505 -3.16949856 -2.79612013
  H  0.92297306 -2.87532226 -3.34632142
  H  0.96660109 -3.84703053  2.86183841
  H  2.73784637 -3.82573116  2.62256580
  H  1.93342033 -2.48674545  3.50843229
