40
opt_min/./Product_4622_opt.xyz
  C -0.63588310 -1.89942892 -0.44897718
  C -0.55045564 -0.36499133 -0.35976919
  C -0.33516321  0.22504535 -1.75177750
  C -1.82965728  0.21490633  0.33912998
  C -1.99400015  1.72224467  0.10998368
  C -3.13343271 -0.45231487 -0.11349273
  C -1.47567765 -0.07144475  1.83959212
  C -2.06815487 -1.30468581  2.35368636
  N -2.52744159 -2.26123796  2.77806820
  C -1.93738958  0.97143993  2.75473220
  N -2.29098741  1.77118669  3.48932916
  O -0.05814456 -0.17280818  1.93864938
  C  0.55990713 -0.02997156  0.67984977
  C  1.18612289  1.40576299  0.61389333
  N  2.10194536  1.57615916 -0.35658591
  C  2.82577232  2.81623910 -0.52263752
  O  0.87304327  2.26086149  1.40733966
  C  1.76102560 -0.98149768  0.68762918
  O  2.26111049 -1.42913296  1.67465266
  O  2.21922978 -1.19346161 -0.56177226
  C  3.36764873 -2.03087092 -0.69994304
  H -0.42333444 -2.35524562  0.51713332
  H  0.09113558 -2.27418259 -1.16335888
  H -1.61939673 -2.23237733 -0.75954856
  H  0.39547609 -0.35908142 -2.30287732
  H -0.00362617  1.25701265 -1.71008497
  H -1.26854671  0.19492808 -2.30972415
  H -1.07758256  2.27217606  0.28971633
  H -2.31965607  1.90417196 -0.91051622
  H -2.74982226  2.12210090  0.78072120
  H -3.96718487  0.22216923  0.06934211
  H -3.34377024 -1.37798741  0.41498803
  H -3.10309054 -0.65055034 -1.18126466
  H  2.30547769  0.82603442 -0.99873482
  H  2.70571716  3.18449796 -1.54339607
  H  2.41101446  3.52700283  0.18943052
  H  3.88642971  2.68720867 -0.31212114
  H  4.15375168 -1.44877016 -1.18101021
  H  3.69772655 -2.36838225  0.28261359
  H  3.10547974 -2.88566661 -1.31918862
