45
opt_min/./Product_5090_opt.xyz
  C -0.52637600 -1.19979700 -1.38298100
  C -0.75198881 -0.62070509  0.01600796
  C -1.06032945 -1.73054407  1.02701861
  C  0.40770137  0.29651411  0.50755039
  C  1.78341902  0.25975756 -0.06656628
  C  2.42418753 -0.78439707 -0.58273670
  C  3.79996363 -0.76506752 -1.06437898
  C  4.58748275  0.50374848 -0.94303314
  C  4.32596632 -1.85964278 -1.61263702
  C -0.27455462  1.68795797  0.45649362
  C  0.47482451  2.80656787  1.18880979
  N  0.48828250  3.97213094  0.53107307
  C  1.11395667  5.15506907  1.06892712
  O  1.01075294  2.59763429  2.25409605
  O -0.57770902  2.03512888 -0.91986719
  C -1.62261478  1.26087321 -1.24732368
  O -2.14202926  1.20008819 -2.32054721
  C -1.91667249  0.45786534  0.02042184
  C -3.35977869  0.01934239  0.23746435
  O -3.96984317  0.30691689  1.24003964
  N -3.87193625 -0.70600085 -0.77564371
  C -5.24169506 -1.16134166 -0.75933982
  O -1.52214632  1.40480366  1.00384778
  H -0.07382443 -2.18597101 -1.30441580
  H -1.45742630 -1.30375244 -1.93364869
  H  0.14059011 -0.57108184 -1.97108336
  H -1.78905070 -1.39003124  1.76009969
  H -1.46989556 -2.60555589  0.52551287
  H -0.15776870 -2.02559407  1.55729015
  H  0.52264380  0.15550101  1.59721429
  H  2.30273992  1.20097942  0.06767675
  H  1.93762423 -1.74547524 -0.65490941
  H  4.13937274  1.28571670 -1.55722191
  H  5.61220238  0.34846680 -1.27004094
  H  4.59462939  0.85097913  0.08935334
  H  3.76581788 -2.77450332 -1.70996783
  H  5.33647199 -1.88364695 -1.98107599
  H -0.00788608  4.04402910 -0.34435674
  H  1.87137574  5.53046503  0.37920743
  H  1.58288975  4.87981103  2.01229730
  H  0.37041737  5.93336300  1.24954575
  H -3.37015091 -0.78993503 -1.64528314
  H -5.85629786 -0.57546843 -1.44600134
  H -5.28806127 -2.21380904 -1.04154575
  H -5.61991842 -1.03925376  0.25436513
