50
opt_min/./Product_2003_opt.xyz
  C  5.06292800 -1.44106400  0.59893800
  N  3.91590965 -0.73574635  0.08084553
  C  3.18228936  0.10360923  0.85640760
  O  3.40204352  0.26004334  2.03864105
  C  2.11621309  0.83634433  0.13831551
  C  1.52040914  1.97292999  0.52394366
  F  1.55869717  2.60677158  1.67852320
  C  0.73484854  2.49757725 -0.65773475
  C -0.52848065  1.63221521 -0.82420326
  C  0.09213607  0.29491017 -1.29406797
  C  1.60759136  0.65977225 -1.28817390
  O  1.53366246  2.01190454 -1.73552079
  C -0.62675074 -0.77877339 -0.41424274
  C  0.05540106 -1.24954599  0.91553791
  N  1.22576053 -1.89021696  0.78030713
  C  1.83479261 -2.54781282  1.91895388
  O -0.50983162 -1.12072167  1.97513410
  C -0.73387718 -2.07853854 -1.19722331
  O  0.25961578 -2.63527634 -1.60933612
  O -1.95358744 -2.55437842 -1.34251042
  C -2.09033662 -3.81592799 -1.98853614
  N -1.86806208 -0.11956596 -0.00457299
  C -2.92469632 -0.07596303 -1.00560250
  C -1.37579443  1.19855026  0.38705982
  C -2.37809490  2.24611644  0.82706950
  O -3.57447535  2.16964189  0.84912879
  O -1.69022511  3.32959559  1.20668555
  C -2.43152011  4.43859547  1.70363719
  H  5.02716074 -1.37824989  1.68514064
  H  5.03460161 -2.48527249  0.28704879
  H  5.99490546 -0.98821350  0.25113171
  H  3.74440493 -0.79879363 -0.90842049
  H  0.60952497  3.57438350 -0.70967303
  H -1.17322456  2.06803738 -1.59135726
  H -0.16532751  0.10608258 -2.34014249
  H  2.21366605  0.07632633 -1.97620025
  H  1.66009069 -2.00752894 -0.12316744
  H  2.28619438 -3.48434002  1.59783407
  H  2.58812960 -1.91281485  2.38709709
  H  1.05096866 -2.74356572  2.65018150
  H -1.23369172 -4.45222433 -1.76153961
  H -2.15584903 -3.67131222 -3.06897056
  H -3.01151707 -4.25371881 -1.61101079
  H -2.55741410 -0.15188570 -2.03385119
  H -3.48219405  0.84927591 -0.89992117
  H -3.61240868 -0.90009770 -0.81716611
  H -0.72152014  1.04224546  1.25247546
  H -2.56429932  5.17324869  0.90689544
  H -1.84821109  4.86898274  2.51521016
  H -3.40711969  4.10590322  2.06137680
