50
opt_min/./Product_1459_opt.xyz
  C -1.97447724  1.90898394  3.09094889
  N -1.59364788  1.24606164  1.87041056
  C -0.32067480  0.95632503  1.57031708
  O  0.63358349  1.25603182  2.26747192
  C -0.14042495  0.27376760  0.21960578
  C -0.24219929  1.32123545 -0.92797264
  O -0.47703603  1.00836716 -2.06833554
  N -0.13969310  2.59830926 -0.50839472
  C -0.10476568  3.68112780 -1.46319031
  C -1.12946691 -0.90641252  0.00484010
  O -1.26096234 -1.46137100  1.29960999
  C -1.59217106 -2.82123707  1.52793454
  O -2.35480987 -0.37379925 -0.43172003
  C -3.49602682 -1.21097044 -0.38078345
  C -0.38509390 -1.84695594 -0.99325018
  C -0.88290436 -1.80107761 -2.44285748
  N  0.99420417 -1.40422521 -0.92184758
  C  2.00343488 -2.36281986 -1.27268612
  C  1.19875746 -0.48575557  0.17582518
  C  1.37591392 -1.23175909  1.41855689
  N  1.58771260 -1.94139550  2.29533432
  C  2.41091103  0.44159617 -0.07340469
  O  2.33643011  1.42012661 -0.77985905
  N  3.54804764  0.03609511  0.51949210
  C  4.76814011  0.80474843  0.43435208
  H -2.78870754  1.37165037  3.57725377
  H -2.29341120  2.93600553  2.89324348
  H -1.10448519  1.92431662  3.74673278
  H -2.31211948  0.95159151  1.22479909
  H  0.24945559  2.79331960  0.40064984
  H -0.62895886  4.54600015 -1.05728265
  H -0.59393231  3.33749155 -2.37265786
  H  0.92564246  3.95559902 -1.70073285
  H -2.08442056 -3.29783318  0.67900950
  H -0.68214455 -3.37526975  1.78301324
  H -2.26697846 -2.83087691  2.38445768
  H -3.34667370 -2.13263562 -0.95145121
  H -3.76380285 -1.45609822  0.65109702
  H -4.29251980 -0.62969523 -0.84230348
  H -0.46371037 -2.88119636 -0.61732578
  H -0.19090089 -1.20529003 -3.02819740
  H -1.84804382 -1.31046082 -2.50607541
  H -0.95146057 -2.80417111 -2.85788555
  H  2.98898085 -1.93581446 -1.10033404
  H  1.90716960 -2.60171654 -2.33255472
  H  1.91708088 -3.29836270 -0.69419033
  H  3.51842480 -0.71600425  1.19173280
  H  4.55014871  1.70374812 -0.14038811
  H  5.54787600  0.22828825 -0.06717419
  H  5.10902411  1.08358076  1.43176479
