40
opt_min/./Product_4989_opt.xyz
  C -0.83448300  1.13519500  0.06642200
  C  0.17294068  0.18775193  0.73387501
  C -0.18360927 -1.31181857  0.61490323
  N -1.56391388 -1.61568196  0.46344737
  C -1.95565215 -3.00039659  0.50786553
  C -2.50582565 -0.64533689  0.34202796
  C -2.24768726  0.66876843  0.23006232
  C -3.38439559  1.59331587  0.18220056
  N -3.06976295  2.91639623 -0.03601293
  O -4.53287135  1.24320791  0.38839827
  C  0.82292057 -1.71939353 -0.56668599
  C  0.49419275 -2.91271630 -1.45784270
  C  0.89793409 -4.24054596 -0.88572394
  O -0.01332948 -2.76123168 -2.53320038
  O  1.07381402 -0.54703100 -1.24912045
  C  1.47232171  0.23219184 -0.12927909
  C  1.98414002  1.63076832 -0.47867350
  N  2.75004965  2.15956947  0.48992995
  C  3.33007642  3.47521256  0.33657347
  O  1.67108876  2.20140003 -1.49564782
  C  2.45542398 -0.73261599  0.54357092
  O  3.35494624 -0.48383763  1.29367007
  O  2.05821346 -1.95067904  0.17434244
  H -0.69527181  2.13534019  0.47984033
  H -0.60270449  1.17271579 -1.00471413
  H  0.34013092  0.46763666  1.77438429
  H  0.19047054 -1.85997265  1.49555061
  H -1.31515497 -3.55136311  1.19939679
  H -2.98574425 -3.07473430  0.85252173
  H -1.88459406 -3.46344245 -0.48113486
  H -3.53313627 -0.97740754  0.38048571
  H -2.32291090  3.12891052 -0.67871238
  H -3.88290231  3.50833532 -0.14026068
  H  1.08582597 -4.19155511  0.18070274
  H  0.14513331 -4.99007763 -1.11879779
  H  1.81891956 -4.54134879 -1.38646846
  H  3.09205919  1.57337807  1.23855689
  H  2.60107734  4.12087991 -0.15207348
  H  3.58421103  3.87207898  1.31599981
  H  4.22752843  3.44135975 -0.28613479
