41
opt_min/./Product_4584_opt.xyz
  N  0.69806500 -0.74559600 -1.34763600
  C -0.60216920 -0.86573643 -0.71600735
  N -0.82826115 -2.20812365 -0.24226625
  N -1.62347475 -0.51974374 -1.72205215
  C -2.98644365 -1.00683403 -1.52344462
  C -0.59051229  0.09108145  0.53802751
  C -0.98784718  1.58440243  0.34267332
  N -1.37868014  1.96449345 -0.87322593
  C -1.86783040  3.30725362 -1.10134585
  O -0.84924025  2.33632765  1.29018750
  C -1.60698722 -0.36639160  1.63353313
  O -2.77684270 -0.58169163  1.40344806
  N -1.07983034 -0.42007191  2.86159338
  C -1.89121290 -0.71416591  4.01971094
  N  0.74573301  0.18034052  1.11663332
  C  1.79555909 -0.65528610  0.88752021
  C  3.12060764 -0.16191474  0.77394762
  O  4.12412566 -0.84969346  0.65046361
  O  3.17330057  1.21560198  0.80209680
  C  4.46678357  1.77686907  0.71091270
  H  0.90578435 -1.52440033 -1.95706137
  H  0.86800185  0.14109670 -1.79768016
  H -0.68933400 -2.88763362 -0.98240026
  H -0.22223625 -2.44580279  0.53010685
  H -1.28848918 -0.87414920 -2.61567587
  H -3.61416728 -0.54439249 -2.28443637
  H -3.06475227 -2.09311990 -1.60363102
  H -3.32341800 -0.71286171 -0.53518182
  H -1.62176801  1.20428099 -1.51561788
  H -2.29587880  3.70239860 -0.17959338
  H -2.62244565  3.29211145 -1.88328896
  H -1.04584712  3.95965314 -1.40437046
  H -0.13187126 -0.10335679  2.99533345
  H -2.90209152 -0.34452235  3.84715171
  H -1.94377271 -1.79246901  4.18815509
  H -1.46663487 -0.23120546  4.89576888
  H  1.04947986  1.14265426  1.24139377
  H  1.65931731 -1.72055129  0.85661139
  H  5.06488072  1.23458783 -0.02473485
  H  4.33505088  2.81460029  0.41171194
  H  4.97242556  1.72569333  1.67896665
