36
opt_min/./Product_4269_opt.xyz
  C -0.51685916  1.12108685 -0.80318214
  C  0.15761009  0.35809125  0.34542130
  C -0.35326285 -1.08637217  0.46163149
  N -1.73913665 -1.27003924  0.16548335
  C -2.33409753 -2.51287128  0.58543642
  C -2.49713358 -0.25611652 -0.32608205
  C -2.00544027  0.92139420 -0.75470023
  C -2.82269312  2.06524135 -1.16615614
  N -4.18259192  1.86493117 -1.25452892
  O -2.35030779  3.17063442 -1.35915787
  C  0.67584433 -1.87979257 -0.43505024
  C  0.22925828 -2.13789954 -1.87864670
  C  0.98320995 -3.15144226  0.18571059
  N  1.20757951 -4.14825753  0.69754128
  N  1.87093951 -1.05255395 -0.43543930
  C  1.59792295  0.10683890 -0.00395545
  C  2.61564242  1.18911999  0.10597497
  O  3.79058399  0.81826100 -0.37857408
  C  4.85708290  1.75449059 -0.32481319
  O  2.36953420  2.26603766  0.58859309
  H -0.13827235  0.75023573 -1.76197402
  H -0.28175013  2.18443822 -0.74747068
  H  0.02771443  0.91523356  1.27257982
  H -0.17783951 -1.42882233  1.49614972
  H -3.41738441 -2.41571592  0.61327913
  H -1.98301450 -2.78495649  1.58370997
  H -2.07513689 -3.33145497 -0.09151734
  H -3.55822348 -0.45008150 -0.29994979
  H -4.68445191  2.65245876 -1.63281866
  H -4.53392323  0.96642543 -1.54021339
  H -0.76870854 -2.56644638 -1.89968428
  H  0.92293714 -2.82733040 -2.35239327
  H  0.22798873 -1.21034634 -2.44416287
  H  5.36647426  1.71673515 -1.28550672
  H  4.46999044  2.75712515 -0.13212762
  H  5.54460836  1.46403368  0.47069674
