50
opt_min/./Product_5801_opt.xyz
  O  1.00900400 -2.19620900 -2.78980900
  C  2.01134347 -1.65598001 -2.67655141
  O  3.02079639 -1.12669803 -2.58737016
  C  0.51937545  0.68343950 -1.13738350
  C -0.67406629  0.11278667 -1.10869669
  C -2.17026767  1.63367234 -3.16036613
  O -1.27700964  2.23717380 -3.54652310
  O -3.07478114  0.97230770 -2.90584972
  C -1.32850545  0.39245998  0.21816640
  C -2.10279197  1.76463418  0.09289035
  N -2.72119375  2.12945843  1.21101573
  C -3.23180604  3.47061448  1.38339011
  O -2.02146674  2.45522094 -0.90883465
  C -2.34050059 -0.59072351  0.76921350
  O -2.66906697 -0.60361266  1.94590824
  N -2.92956785 -1.38038339 -0.14886809
  C -4.04753019 -2.23102872  0.18551874
  N -0.21139500  0.80980411  1.05775063
  C  0.04706274  0.34016726  2.38758355
  C  0.86118425  1.29532228  0.19858893
  C  0.79832192  2.83703869  0.15496606
  C  1.36180865  3.47281721 -1.08239512
  O  0.28530567  3.46118616  1.04588223
  C  2.23070318  0.80518136  0.63150044
  C  3.21550554  1.66782978  1.09295601
  C  4.45040631  1.17572742  1.47982569
  C  4.71220503 -0.18173789  1.41694679
  C  3.73137867 -1.04923308  0.96755784
  C  2.49988939 -0.55851503  0.57597193
  H  1.18024372  0.76881258 -1.97922211
  H -1.08435458 -0.50718442 -1.88329770
  H -2.73994681  1.48541766  1.98939252
  H -2.41154022  4.18695132  1.30758445
  H -3.70212246  3.55112291  2.35837571
  H -3.95857317  3.69504986  0.60096068
  H -2.77015172 -1.20949583 -1.12802440
  H -4.94578666 -1.91498462 -0.34633592
  H -3.82272404 -3.26708761 -0.07250036
  H -4.21436855 -2.15445252  1.25839464
  H  0.63776832  1.09143029  2.91266316
  H -0.89635653  0.20713065  2.91020168
  H  0.58970849 -0.61704623  2.41541221
  H  0.56690597  3.46361841 -1.82945093
  H  1.63270913  4.50665294 -0.88239347
  H  2.21521134  2.92395848 -1.46906121
  H  3.01597098  2.72676358  1.16333839
  H  5.20960047  1.85709624  1.83407669
  H  5.67551454 -0.56356582  1.71993223
  H  3.92618969 -2.11054051  0.92100686
  H  1.73587856 -1.23692657  0.22033515
