22
opt_min/./Product_3233_opt.xyz
  C  1.03244120 -1.70091837 -0.64524728
  C  0.53179291 -0.70898104  0.40172463
  C -0.99811439 -0.54887025  0.57156875
  C -1.74664186 -0.42025947 -0.75270657
  C -1.02695996  0.80236026  1.33262353
  C -2.27282973  1.52336634  1.19954759
  N -3.27380815  2.06260390  1.08986993
  N  0.10421487  1.56002215  0.80721228
  C  0.93764644  0.75567435  0.29307474
  C  2.23566841  1.23345625 -0.24649269
  H  1.63081922 -2.48274747 -0.18516365
  H  0.20227130 -2.17807600 -1.15727465
  H  1.64387732 -1.21150633 -1.39896406
  H  0.92662791 -1.01043646  1.38547661
  H -1.44079508 -1.35121854  1.16547615
  H -1.41846115  0.47006861 -1.28644733
  H -2.81564795 -0.33758263 -0.57183457
  H -1.58005148 -1.28441451 -1.39022999
  H -0.85493748  0.64911753  2.41028434
  H  2.96436277  1.30549056  0.56021461
  H  2.10640086  2.22652260 -0.66933592
  H  2.62993105  0.55622795 -0.99888737
