44
opt_min/./Product_4569_opt.xyz
  C  0.86187900 -1.98984400 -1.00184000
  C  0.15925311 -1.11586844  0.04255780
  C  0.43776300 -1.71920567  1.42484923
  C -1.37202261 -0.85753130 -0.22238145
  C -1.80935299 -1.35095125 -1.60800933
  C -2.29211164 -1.54559113  0.78387335
  C -1.47173038  0.73124958 -0.13940153
  C -2.22479852  1.30984220  1.05674780
  C -1.49955681  2.40683183  1.78329729
  O -3.33027503  0.95142138  1.38143715
  C -2.11206421  1.31767955 -1.42807360
  C -3.59624667  1.53817754 -1.41781897
  O -1.41926961  1.59699757 -2.37051770
  N -0.12072636  1.22237830 -0.12681125
  C  0.73098398  0.29102683 -0.05169464
  C  2.15264468  0.62911535 -0.15371143
  C  3.14402233  0.12223473  0.68014068
  C  4.46441436  0.49531464  0.50156611
  C  4.81605110  1.37134658 -0.51088598
  C  3.83367815  1.89156292 -1.33828758
  C  2.51413304  1.52692402 -1.15905246
  H  0.76317222 -1.58153486 -2.00318300
  H  0.46835229 -3.00394912 -0.99209120
  H  1.92429325 -2.03445731 -0.76918331
  H  1.48350808 -2.00141003  1.50182569
  H -0.15077998 -2.61831889  1.57646169
  H  0.20903641 -1.01180049  2.22001327
  H -1.25848174 -0.87189566 -2.41237183
  H -2.86672703 -1.14871827 -1.75798014
  H -1.66306056 -2.42449567 -1.68197960
  H -3.32638155 -1.28239422  0.57795878
  H -2.08447378 -1.26287350  1.81072971
  H -2.19948889 -2.62456315  0.68550016
  H -0.75534500  1.95476243  2.43790869
  H -0.97452213  3.05157813  1.08629785
  H -2.20527558  2.96621891  2.39305936
  H -4.12279784  0.72416301 -0.92990961
  H -3.95084117  1.66817685 -2.43854910
  H -3.80676555  2.45078749 -0.86148934
  H  2.89189421 -0.53969646  1.49370413
  H  5.22359959  0.09750690  1.15974578
  H  5.84970679  1.65259325 -0.64788658
  H  4.09941045  2.58289150 -2.12424111
  H  1.73661841  1.92244539 -1.79471932
