39
opt_min/./Product_341_opt.xyz
  C -2.09439200  0.85607700 -1.19227500
  C -0.73197179  0.59019646 -0.66077710
  C -0.36322606  0.60086993  0.62378017
  C -1.31785598  0.63457113  1.77539571
  O -2.35419920 -0.00907486  1.73315269
  N -0.97938578  1.43149869  2.79862151
  C -1.75797707  1.49651011  4.00847804
  C  1.11813964  0.28711632  0.73641931
  C  1.99135012  1.36608786  1.40797712
  O  3.27277650  1.07720554  1.21420436
  C  4.21580790  2.00130746  1.74675814
  O  1.60890451  2.32426026  2.02759129
  C  1.33299951 -0.94560754  1.64492398
  C  2.17943441 -2.05496138  1.08247234
  O  0.87106709 -0.97447519  2.75487235
  N  1.56123378  0.21451694 -0.64207810
  C  0.43690119  0.28981416 -1.56941413
  C  0.21517356 -1.04158286 -2.30254577
  C  0.69521246  1.41663271 -2.57613249
  H -2.28853774  0.26049583 -2.08054856
  H -2.83457258  0.62333330 -0.43221846
  H -2.18877142  1.90875395 -1.46087505
  H -0.09526531  1.92022995  2.77170571
  H -1.96284659  2.53558170  4.26905186
  H -2.69420584  0.96914161  3.83186775
  H -1.22760065  1.01526548  4.83350302
  H  4.02693031  2.16370020  2.80962470
  H  5.19529904  1.55558870  1.59449236
  H  4.14409994  2.95577057  1.22349281
  H  2.35456365 -2.79868013  1.85573847
  H  3.13044190 -1.66388640  0.72725685
  H  1.65368115 -2.52526927  0.25261856
  H  2.20520299 -0.53291740 -0.84797029
  H  1.12711551 -1.33887374 -2.81819500
  H -0.06631040 -1.81910680 -1.59476743
  H -0.57694205 -0.94730818 -3.03973266
  H  0.83595982  2.35431986 -2.04606006
  H -0.14281307  1.51659157 -3.26001471
  H  1.59442989  1.20361302 -3.14797865
