26
opt_min/./Product_400_opt.xyz
  F -2.84331300 -0.95552500  1.62166800
  C -2.66255017 -0.01896160  0.70432883
  C -3.15819240  0.10003538 -0.53145399
 Cl -4.16257629 -0.91131682 -1.43905033
  C -2.57248967  1.41401470 -1.03975475
  C -1.05679149  1.26547844 -1.33876512
  C -0.49124627  1.07924172  0.08777933
  C -1.79183221  1.19967702  0.93222053
  O -2.49174988  2.16997282  0.16018401
  C  0.30547169 -0.22402873 -0.15106498
  C  1.36939156 -0.56401784  0.87989739
  O  2.47503690 -0.97731596  0.29398232
  C  3.56038652 -1.38370187  1.13051432
  O  1.16068613 -0.47146872  2.05635131
  O  0.76003576 -0.00376559 -1.48422112
  N -0.47907896  0.13989290 -2.10077637
  O -1.13491032 -1.06354497 -1.71247494
  C -0.70417348 -1.37046912 -0.46601278
  O -0.99219456 -2.33802208  0.14974863
  H -3.15050830  1.92579547 -1.80229039
  H -0.69449281  2.16174186 -1.84520082
  H  0.19542469  1.87289360  0.38511794
  H -1.65420239  1.50739959  1.96353248
  H  4.36088283 -0.64754659  1.03846720
  H  3.89936435 -2.35397315  0.77137442
  H  3.22607991 -1.44877701  2.16730177
