37
opt_min/./Product_640_opt.xyz
  C -0.92854897  4.13850636 -1.58591261
  O -0.61173864  3.05755790 -0.72075546
  C -1.10848431  1.85673747 -1.05205656
  O -1.82806614  1.66627102 -1.99343449
  C -0.62134677  0.84193033 -0.08367731
  C -1.05275502 -0.40004246  0.17625982
  C -2.12670800 -1.24145051 -0.39824621
  O -2.43026800 -2.30989483  0.08640214
  O -2.68951582 -0.71715264 -1.46855672
  C -3.71542551 -1.47172782 -2.09696853
  C -0.25639104 -0.99703388  1.32096750
  C  0.44093671 -2.19964835  0.93339424
  N  1.07315451 -3.11580910  0.66719393
  C -1.25613446 -1.21628218  2.52034256
  C -1.54840302 -2.62146144  2.92700756
  O -1.73372778 -0.24608655  3.03455676
  N  0.65908442  0.07167597  1.70689407
  C  0.60759294  1.14653735  0.72954274
  C  1.81044618  1.20399158 -0.24805921
  N  3.00962700  1.03423505  0.34452109
  C  4.22884919  1.05292754 -0.43618401
  O  1.67574544  1.35070303 -1.44172783
  H -1.83030124  4.64144340 -1.23022274
  H -0.08172289  4.82087836 -1.55887161
  H -1.09490489  3.77058085 -2.59961812
  H -4.65889716 -1.32964507 -1.56560157
  H -3.46005881 -2.53355945 -2.09467471
  H -3.79100169 -1.08658532 -3.11012363
  H -2.47020511 -2.91821360  2.42604652
  H -1.71479095 -2.65806407  4.00124802
  H -0.76730515 -3.31264630  2.62857261
  H  1.59107179 -0.23852471  1.94414379
  H  0.53891480  2.11610636  1.24059418
  H  3.09320775  1.06560424  1.34741388
  H  5.04324086  0.64850730  0.15818035
  H  4.47490048  2.06843681 -0.75585880
  H  4.07961791  0.44307650 -1.32640638
