48
opt_min/./Product_5314_opt.xyz
  C  4.26876100 -1.37741300  0.77080900
  C  4.15226399 -0.17221732 -0.11783570
  C  5.35857364  0.14603315 -0.94207900
  C  3.04846457  0.58071696 -0.17491758
  C  1.84382627  0.35198163  0.58707173
  C  0.72815136  1.05583080  0.40122625
  C -0.58614222  0.83595944  1.08623003
  C -0.44228620  0.23689994  2.47929106
  C -1.45261714  2.11109677  1.06641683
  C -2.60567743  1.71515539  0.09340397
  C -3.39048236  2.85845696 -0.48730793
  O -3.93956378  3.57882184  0.48700220
  C -4.76270209  4.67419964  0.10630077
  O -3.47035163  3.11001441 -1.66026030
  N -2.01647944  0.78156333 -0.84839457
  C -1.47252129 -0.10944159  0.14718582
  C -0.77095475 -1.34645738 -0.30287427
  C  0.08549551 -1.31770391 -1.39577416
  C  0.80300311 -2.44920233 -1.74239987
  C  0.67052837 -3.61222855 -1.00281774
  C -0.19180743 -3.64556665  0.07829630
  C -0.90950780 -2.51779320  0.43192442
  O -2.65737732 -0.41560531  0.90723256
  C -3.39557159  0.69678894  0.93406615
  O -4.43128194  0.83024274  1.50682115
  H  5.21358537 -1.88716080  0.60093303
  H  3.45446518 -2.07674199  0.57835568
  H  4.22163822 -1.08323278  1.82003562
  H  5.17534860  0.98562571 -1.60918257
  H  5.65467418 -0.72102017 -1.53299570
  H  6.19429623  0.39911509 -0.28548790
  H  3.02242912  1.42595500 -0.85136338
  H  1.87573170 -0.44026009  1.31840718
  H  0.72935017  1.83037353 -0.35805619
  H -1.41165254  0.16597462  2.96931361
  H -0.01395957 -0.76127625  2.42350261
  H  0.20884190  0.86833830  3.08471550
  H -1.84573808  2.37962491  2.04705023
  H -0.90515113  2.96840473  0.66845774
  H -4.42168105  5.08647289 -0.84702339
  H -5.79392423  4.33068212  0.00827247
  H -4.68726605  5.41487730  0.90027613
  H -1.34179889  1.18942903 -1.48297120
  H  0.19565185 -0.41972603 -1.98172147
  H  1.46961331 -2.41712707 -2.59171171
  H  1.23658062 -4.49087162 -1.27465188
  H -0.30490608 -4.55438829  0.65365990
  H -1.58899363 -2.53664434  1.27009726
