73
opt_min/./Product_3014_opt.xyz
  C -1.56177667 -0.74089126 -2.58903543
  O -2.13297108 -1.23786850 -1.38970879
  C -2.06880437 -0.42734629 -0.23980845
  O -2.59940141  0.86125007 -0.51514301
  C -3.88810262  0.92713866 -1.08388682
  C -0.65141887 -0.14473718  0.21598186
  C  0.40363036 -0.94884989  0.37438848
  C  0.49866037 -2.45746539  0.46890378
  C  0.83972783 -2.83684188  1.93341787
  C  1.60954722 -2.90934909 -0.35449829
  N  2.44420097 -3.36067130 -0.99372967
  C -0.66924197 -3.36443972 -0.01595057
  C -1.90827905 -3.54297249  0.87365699
  C -3.10246886 -2.62089454  0.64051139
  C -2.83986722 -1.14470082  0.89588535
  C  1.66446928 -0.08732059  0.54998827
  C  2.66210135 -0.52131889  1.61037969
  C  2.49200964 -0.10132661  2.92305614
  C  3.40375867 -0.45887702  3.90050849
  C  4.49849971 -1.24054134  3.57724045
  C  4.67657520 -1.65995125  2.27039646
  C  3.76866788 -1.30078958  1.28998421
  C  2.39046153  0.11996387 -0.78041371
  C  3.49152629  0.97222684 -0.78255155
  C  4.15859706  1.26398489 -1.95634048
  C  3.73361449  0.70811333 -3.15128712
  C  2.63808730 -0.13446583 -3.15858800
  C  1.96827203 -0.42336235 -1.98218358
  N  1.07836100  1.18168166  0.97221523
  C -0.29577144  1.29700497  0.53772773
  C -1.09513392  1.85702955  1.74086035
  N -0.61828549  3.03814550  2.18122170
  C -1.21929950  3.69527645  3.32064527
  O -1.98764575  1.27119135  2.30853052
  C -0.47422920  2.16212693 -0.71335364
  O  0.00617753  1.89294716 -1.78529258
  O -1.14647792  3.29047720 -0.47545447
  C -1.40815723  4.11883996 -1.60157485
  H -0.98230672 -1.54998084 -3.03947965
  H -0.91286928  0.11635467 -2.41781602
  H -2.35566319 -0.45532014 -3.28658567
  H -4.56962296  0.19378753 -0.64805553
  H -3.85666011  0.77510578 -2.16786082
  H -4.25412286  1.93105400 -0.87080785
  H  0.51334312 -3.85310387  2.13991078
  H  1.90889039 -2.78993585  2.11686992
  H  0.34253780 -2.15585636  2.61976174
  H -0.97641096 -3.09603106 -1.02395763
  H -0.20616077 -4.35700502 -0.07464041
  H -1.62778956 -3.50541672  1.92622063
  H -2.27459583 -4.55500660  0.67574589
  H -3.88752382 -2.94057523  1.33133944
  H -3.47466699 -2.75620684 -0.37479132
  H -2.28545584 -1.01327333  1.82340224
  H -3.78899816 -0.62611847  1.02841313
  H  1.63432076  0.50382097  3.17327416
  H  3.25845781 -0.12268039  4.91679054
  H  5.21241154 -1.51892386  4.33846327
  H  5.52759716 -2.27050409  2.00830939
  H  3.92356444 -1.62546896  0.27305497
  H  3.83801256  1.40131872  0.14917593
  H  5.01164192  1.92714111 -1.93723647
  H  4.25435692  0.93414578 -4.07013125
  H  2.29502555 -0.57097804 -4.08457743
  H  1.11092828 -1.07442586 -2.01239184
  H  1.67498866  1.98376195  0.82144515
  H  0.07486136  3.53694834  1.65270593
  H -1.01854768  3.12560224  4.23024823
  H -0.81037280  4.69631733  3.42180358
  H -2.30132589  3.74969164  3.19008212
  H -1.63299591  3.50531403 -2.47511994
  H -0.53736865  4.74145753 -1.82003834
  H -2.25995803  4.73997223 -1.33549085
