52
opt_min/./Product_2160_opt.xyz
  F  1.53307100 -1.57215600 -0.41515100
  C  0.97746592 -0.42446597  0.11260138
  C  1.58568595  0.74450705 -0.62897220
  C  2.03876343  0.55798374 -1.92864405
  C  2.57475570  1.61538056 -2.64187418
  C  2.66414392  2.86728686 -2.06179152
  C  2.22314200  3.05703674 -0.76358687
  C  1.68497795  2.00437738 -0.04797075
  C -0.60298950 -0.42356382  0.14760651
  C -1.36596990 -1.62180466 -0.40693459
  C -0.87083141 -2.91721896 -0.48002275
  C -1.66834206 -3.95717344 -0.93109247
  C -2.98033807 -3.73415564 -1.29696606
  C -3.49744535 -2.45286315 -1.19934626
  C -2.70192682 -1.41525096 -0.75781927
  C -1.05447552  0.84952286 -0.55477582
  C -1.12886410  0.82459926 -1.94690584
  C -1.46732952  1.95830292 -2.65625996
  C -1.73562938  3.14292140 -1.98892246
  C -1.64770223  3.18079475 -0.61109036
  C -1.30028962  2.04507089  0.10357739
  C -0.82835431 -0.40733332  1.70604772
  C -2.18133737 -0.03345179  2.26681305
  C -0.36091330 -1.80462908  2.15790537
  O -1.00940479 -2.73528641  2.51781500
  O  0.97943591 -1.75507453  2.10586746
  C  1.28816200 -0.42365647  1.65909307
  C  2.71648183 -0.04616440  2.03832225
  C  3.66507418 -1.19894863  1.94665769
  O  3.01019681  1.06599149  2.37989969
  O  0.27529101  0.36458037  2.19264371
  H  1.97175006 -0.41744776 -2.38696903
  H  2.91907759  1.45089850 -3.65146962
  H  3.08045227  3.69387324 -2.61865715
  H  2.29657957  4.02833715 -0.30028817
  H  1.35199879  2.15730995  0.96527923
  H  0.13611992 -3.15775703 -0.18673376
  H -1.25365607 -4.95243244 -0.98475586
  H -3.59992138 -4.54758237 -1.64314491
  H -4.52559462 -2.25535849 -1.46358136
  H -3.12796926 -0.42595672 -0.68735451
  H -0.91858972 -0.09617260 -2.47064485
  H -1.51920973  1.91908516 -3.73390969
  H -2.00171071  4.03061244 -2.54260361
  H -1.84050175  4.10086955 -0.07993562
  H -1.19908070  2.11226702  1.17410779
  H -2.65977307 -0.93740161  2.64330329
  H -2.82555909  0.41697490  1.51926175
  H -2.04415872  0.66146109  3.09102833
  H  4.66457693 -0.88856141  2.23288565
  H  3.31197572 -2.01273631  2.57596164
  H  3.66713597 -1.56720559  0.92041937
