51
opt_min/./Product_2957_opt.xyz
  F -2.56871298  2.20203491 -0.89178375
  C -2.37217885  0.85177162 -1.01163957
 Br -2.50227498  0.64245451 -3.00984865
  C -0.99874215  0.51385425 -0.51891111
  C -0.23573049 -0.59220076 -0.50945512
  C -0.45006572 -1.97140811 -1.07000474
 Cl  0.99095377 -3.01451754 -0.75784873
 Cl -0.55437435 -1.88162292 -2.85621459
  C -1.60759539 -2.79817587 -0.51396171
  C -3.00694928 -2.24091131 -0.73231975
  C -3.36272572 -1.16455820  0.29906000
  C -3.56977708  0.20893347 -0.31184852
  C  1.06020581 -0.30950271  0.25578380
  C  0.95083911 -1.03894732  1.61215435
  O  0.04762181 -1.78354103  1.89704748
  O  1.88310410 -0.62971829  2.45268306
  C  1.80979758 -1.10093034  3.79452265
  C  2.31476783 -0.57530627 -0.55655104
  C  3.47468474 -1.10196896 -0.00452405
  C  4.59504574 -1.28817203 -0.79484399
  C  4.57528069 -0.93979850 -2.13398371
  C  3.43455107 -0.38099610 -2.67991350
  C  2.31025461 -0.19938359 -1.89627643
  N  1.00344783  1.10993015  0.60526207
  C -0.25004181  1.67345279  0.14403751
  C  0.08442495  2.81238144 -0.86613734
  O -0.68408225  3.86805083 -0.73704431
  C -0.40411276  4.97294132 -1.58839279
  O  1.01641001  2.70398220 -1.61721532
  C -0.97370702  2.22772451  1.27593263
  N -1.49397970  2.68021086  2.18640429
  H -1.42065991 -2.91857774  0.55508059
  H -1.53709639 -3.78734920 -0.97275621
  H -3.10346676 -1.85112031 -1.74461043
  H -3.70446788 -3.07658609 -0.65587852
  H -2.58611089 -1.11615278  1.06354341
  H -4.29039854 -1.42240872  0.81233958
  H -4.41071220  0.19386043 -1.00893033
  H -3.83845415  0.90687497  0.48960464
  H  2.52013486 -1.91921246  3.92695445
  H  0.80129878 -1.45574540  4.01377162
  H  2.07443738 -0.26513707  4.43923000
  H  3.51237567 -1.36103429  1.04090546
  H  5.48639409 -1.71406135 -0.35852385
  H  5.44880089 -1.10316256 -2.74795644
  H  3.41304509 -0.08121885 -3.71673247
  H  1.43022867  0.24515150 -2.33495163
  H  1.78999416  1.62356042  0.21826286
  H  0.65626218  5.22637953 -1.53774132
  H -0.66396867  4.72577893 -2.61920614
  H -1.01952660  5.79170554 -1.22595707
