50
opt_min/./Product_5700_opt.xyz
  C  0.08903989 -1.20366790 -1.74510408
  O -0.22020658 -1.93152366 -2.67173964
  C  1.46769694 -0.87879249 -1.40908754
  O  2.51967968 -1.54850491 -1.95373749
  C  2.42509735 -2.14382368 -3.23422630
  C  1.81094242  0.02723000 -0.42532858
  O  3.12040776  0.09790264 -0.14997825
  C  3.63114043  0.90338616  0.89618451
  C  0.80253291  0.85528653  0.24910595
  O  1.08514581  1.70313746  1.06841195
  C -0.64096016  0.74794136 -0.24877915
  C -0.77388800  1.87918838 -1.27875736
  C -0.98932568 -0.63243668 -0.82550801
  C -2.32195066 -0.64815041 -1.58486213
  C -1.15504819 -1.46426531  0.48414514
  C -2.07878500 -2.57250758  0.31100320
  N -2.83776115 -3.42485750  0.24795742
  C  0.20009092 -2.02955179  0.97593529
  C  0.59380595 -3.36823684  0.42167188
  O  0.85837527 -1.43019704  1.78673058
  N -1.79221575 -0.52985935  1.39744042
  C -1.82114240 -0.91062079  2.79324091
  C -1.61032530  0.84709802  0.95813700
  C -1.19519998  1.86788009  2.03515477
  N -1.39279383  3.14479325  1.62627488
  C -1.02487670  4.26797163  2.45196344
  O -0.83015745  1.59446416  3.15379488
  H  3.45011050 -2.40935894 -3.48909454
  H  2.03194864 -1.44201994 -3.97239860
  H  1.80158834 -3.03917675 -3.22423893
  H  4.70418223  0.71830620  0.88786613
  H  3.43521628  1.96362739  0.72783442
  H  3.20702302  0.61049099  1.85858077
  H -0.29580339  2.78374577 -0.91041889
  H -1.81892258  2.09298961 -1.49096442
  H -0.27998836  1.58928015 -2.20447922
  H -2.45127117 -1.62135211 -2.05343713
  H -3.15709488 -0.47564014 -0.91267807
  H -2.32731383  0.09688044 -2.37516548
  H  0.37135047 -4.12575219  1.17339618
  H  0.05471076 -3.61603769 -0.48839537
  H  1.66827380 -3.38497047  0.24703415
  H -0.86571283 -0.78469749  3.30582825
  H -2.57253980 -0.30772632  3.29816435
  H -2.12526247 -1.95797892  2.83945831
  H -2.59112812  1.19891334  0.58457449
  H -1.71795864  3.33839697  0.69504559
  H -0.86236900  3.89140791  3.45973166
  H -1.82517870  5.00849495  2.45741683
  H -0.10108621  4.73196053  2.09758177
