66
opt_min/./Product_2874_opt.xyz
  C -4.88912300  0.69416300 -1.88712900
  N -3.98800202  0.44323309 -0.78545062
  C -2.65821630  0.32281619 -0.99422716
  O -2.16684823  0.40122703 -2.09551974
  C -1.82183966 -0.07700231  0.24317264
  C -2.27963514  0.57292763  1.57218861
  O -1.65778386  1.43824746  2.14135347
  N -3.43056536  0.07841885  2.10522273
  C -3.93370017  0.58773648  3.36353979
  C -0.39893962  0.38951620  0.03412682
  C  0.80792020 -0.22544372 -0.09201304
  C  1.39366935 -1.59995205 -0.46160442
  O  2.71227226 -1.49142397  0.05488422
  C  3.76522633 -2.36506131 -0.28062027
  O  1.26495999 -1.51985007 -1.86544374
  C  1.95091560 -2.39563238 -2.73325505
  C  0.78280869 -2.91511088  0.08807956
  C -0.48212593 -3.42903504 -0.60929846
  C -1.45515969 -2.30183967 -0.90739732
  C -1.86710938 -1.60443364  0.38874497
  C  1.83642584  0.89494245  0.02319101
  C  3.10148452  0.90600748 -0.82744226
  O  3.20541639  0.48234458 -1.94214672
  O  4.06232561  1.55964827 -0.17777700
  C  5.28685405  1.78661801 -0.86552578
  C  2.19092587  0.91497566  1.55617020
  O  1.58928482  1.56505049  2.35615168
  O  3.20665596  0.12422573  1.85478551
  C  3.59900428  0.13364808  3.22351359
  N  1.12396156  2.10901009 -0.17056998
  C -0.12565575  1.83750307 -0.06552768
  C -1.04350828  3.00793949 -0.17597388
  O -2.34945614  2.69687103 -0.15540232
  C -3.25525220  3.78886114 -0.23572944
  O -0.64930633  4.13459411 -0.29891818
  H -4.88409718  1.74755740 -2.17858376
  H -4.56000818  0.10619492 -2.74342745
  H -5.89829242  0.40354837 -1.60354761
  H -4.35503280  0.49652418  0.14885109
  H -3.88827480 -0.72671743  1.71343440
  H -4.49459778 -0.18857817  3.87879350
  H -4.57853005  1.45588093  3.20450915
  H -3.08714973  0.90203586  3.97415387
  H  3.48659814 -3.42278148 -0.25324148
  H  4.51702784 -2.18126037  0.48703896
  H  4.19017557 -2.12703484 -1.25892143
  H  1.34777382 -2.41931287 -3.64170470
  H  2.03629426 -3.41040733 -2.33490394
  H  2.93988227 -2.00273005 -2.97837352
  H  1.54669414 -3.68509135 -0.03923258
  H  0.64601608 -2.79481042  1.16358716
  H -0.95071210 -4.17985385  0.03185446
  H -0.20144677 -3.90816651 -1.54775727
  H -0.94865822 -1.59944911 -1.56823751
  H -2.33548480 -2.66695055 -1.43850004
  H -2.84978502 -1.96862403  0.69199184
  H -1.16011799 -1.84178638  1.18218870
  H  5.17468540  1.53167123 -1.92081661
  H  6.06420778  1.16918789 -0.41269792
  H  5.53394149  2.84136787 -0.75429876
  H  3.97554696  1.12052372  3.49906221
  H  2.74891694 -0.10809112  3.86471143
  H  4.38041336 -0.61589540  3.31868163
  H -3.53596571  3.95667108 -1.27760470
  H -4.12983361  3.52172897  0.35521472
  H -2.78445571  4.69073437  0.15944656
