41
opt_min/./Product_4031_opt.xyz
  C -2.61548300  1.00028100  1.13413100
  C -2.38881982  0.08291878 -0.03576586
  C -3.57382621 -0.73938859 -0.44539955
  C -1.22778370 -0.00746323 -0.67464785
  C  0.00772816  0.76783391 -0.35574018
  C  1.22911830 -0.14516468 -0.06802684
  C  1.57553591 -0.13918822  1.39434180
  C  2.24405550  1.09824686  1.92279386
  C  1.24889222 -1.15787281  2.17573680
  N  2.25850557  0.41342850 -0.94642359
  C  3.58093460  0.04605573 -1.00118571
  C  4.45112307  0.71749340 -1.86570095
  C  5.78238289  0.36222939 -1.92836901
  C  6.27670229 -0.66316754 -1.13920424
  C  5.41568652 -1.33828450 -0.29005481
  C  4.07958763 -0.99534538 -0.21686871
  N  1.77164494  1.37746923 -1.75647386
  C  0.54185843  1.59930168 -1.51107616
  C -0.27806146  2.60210727 -2.22898713
  H -2.48415734  2.04295640  0.84292021
  H -3.62110783  0.87606076  1.52624814
  H -1.90629820  0.78939544  1.93441109
  H -3.93161952 -1.32591252  0.40011288
  H -4.38252491 -0.08510319 -0.77095238
  H -3.31945293 -1.41541380 -1.25847368
  H -1.12309480 -0.68938098 -1.50921472
  H -0.17280311  1.44398430  0.48757736
  H  0.99785639 -1.17158439 -0.39637769
  H  1.60857971  1.59819258  2.65380527
  H  2.46920141  1.79599654  1.11946907
  H  3.17739646  0.83950826  2.41842399
  H  0.76903153 -2.04108715  1.79093953
  H  1.44754763 -1.14000364  3.23289432
  H  4.06273586  1.51556230 -2.47673084
  H  6.44087731  0.89316523 -2.60142601
  H  7.31964975 -0.93545716 -1.18646582
  H  5.78812754 -2.14394866  0.32625146
  H  3.42407687 -1.53957237  0.44522615
  H -1.11406129  2.11021504 -2.72711359
  H  0.32931623  3.11403815 -2.96824882
  H -0.69307777  3.32792748 -1.52877678
