46
opt_min/./Product_4465_opt.xyz
  C  0.72406500 -1.77384100  1.71719700
  C  1.09551593 -0.50092970  0.96093537
  C  2.39866442 -0.73223337  0.17144648
  C  3.63963077 -0.18096567  0.88050246
  C  2.14132148 -0.10373794 -1.21357201
  C  2.06649725 -1.17634109 -2.29984027
  N  0.92987239  0.70107468 -1.09942334
  C  1.21865350  2.11443535 -0.94355773
  C  0.07611974  0.07244441 -0.07575858
  C -0.86463014 -0.93235501 -0.74584798
  C -0.97115640 -0.98206245 -2.13095806
  C -1.87265044 -1.82930100 -2.74894687
  C -2.70829975 -2.63493601 -1.99702273
  C -2.66002115 -2.54282544 -0.61780009
  C -1.76372278 -1.68937353 -0.00119176
  C -0.94629235  1.03829579  0.50958219
  C -1.77026044  1.74314026 -0.36728300
  C -2.77204206  2.56795601  0.10223213
  C -2.99124733  2.69631930  1.46414948
  C -2.19708009  1.98535065  2.34379361
  C -1.18760370  1.16283804  1.87074576
  H -0.07527877 -1.60644243  2.43506658
  H  0.41627466 -2.56098066  1.03363669
  H  1.59801896 -2.11627272  2.26961578
  H  1.26645831  0.28854730  1.70036238
  H  2.53155819 -1.80990658  0.04239050
  H  4.11305344 -0.95220292  1.48494583
  H  3.39116839  0.65072563  1.53794107
  H  4.37794412  0.17261753  0.16221857
  H  2.95787353  0.56920339 -1.49784808
  H  1.88516780 -0.71914018 -3.26949305
  H  1.27711449 -1.89350962 -2.09405592
  H  3.01610808 -1.70594876 -2.34481488
  H  0.49035952  2.60910018 -0.30555056
  H  2.20974116  2.29843538 -0.51255701
  H  1.17905548  2.58555483 -1.93063384
  H -0.35125573 -0.33087508 -2.72502634
  H -1.92632337 -1.85709446 -3.82828142
  H -3.40825639 -3.30217104 -2.47777347
  H -3.33581008 -3.12914141 -0.01161387
  H -1.79495892 -1.59653683  1.07217764
  H -1.61868097  1.63375805 -1.43083904
  H -3.39031130  3.10962990 -0.59918616
  H -3.77747255  3.33667191  1.83492279
  H -2.36356496  2.06535798  3.40828881
  H -0.58982745  0.62079446  2.58635295
