37
opt_min/./Product_213_opt.xyz
  C  2.48993704 -1.49861302  0.35093940
  O  1.08069466 -1.44996424  0.32383384
  C  0.40217049 -0.26677307 -0.00972532
  C -1.03766096 -0.62829057 -0.52252865
  C -1.20655106 -2.11047095 -0.84572911
  C -1.02382486  0.12478501 -1.89185583
  C -0.94173692  1.62506394 -1.68674799
  C  0.30556255  1.86173405 -1.30934324
  C  0.95963466  0.49368370 -1.27045824
  O  0.29698354 -0.17420192 -2.32675146
  C -1.99541159 -0.10605537  0.56939183
  C -2.38734749 -1.18921352  1.58800630
  C -3.29403100  0.52493624  0.05876932
  O -1.25937873  0.92515648  1.23575651
  C  0.13432630  0.64215569  1.24649797
  C  0.57354600 -0.00589839  2.57657693
  C  0.81806464  1.92502097  1.24672899
  N  1.33994317  2.92774893  1.42893089
  H  2.89567232 -1.08181060  1.28001321
  H  2.96034010 -0.98666884 -0.48809171
  H  2.74007170 -2.55730109  0.29612798
  H -0.54360422 -2.37247098 -1.66641764
  H -2.23431848 -2.29849754 -1.14784944
  H -0.95302513 -2.73465337  0.00331030
  H -1.76359174 -0.23182519 -2.60333258
  H -1.73626614  2.32521106 -1.84961749
  H  0.79926971  2.79119807 -1.11986542
  H  2.03579713  0.48053352 -1.40511364
  H -3.04859088 -1.92196590  1.13707549
  H -2.90831707 -0.70460115  2.41032156
  H -1.51840606 -1.70322996  1.98364649
  H -3.67314897  1.18509042  0.83404770
  H -4.03392175 -0.24526476 -0.13935973
  H -3.14280358  1.10334108 -0.84201013
  H  0.25126456 -1.03993746  2.62814442
  H  0.12349283  0.55750098  3.39071331
  H  1.65470886  0.03623511  2.67804650
