28
opt_min/./Product_3388_opt.xyz
  C -2.09525195 -0.75813412 -0.97513601
  C -0.61279102 -1.09228028 -0.89095709
  C -0.07821414 -1.42375695  0.52967487
  C -1.08600802 -1.30996025  1.66803959
  C  1.03319291 -0.33868278  0.68127600
  C  1.51154925 -0.10642434  2.00761407
  N  1.89715679  0.08807795  3.06624665
  C  2.11090658 -0.80152521 -0.34565335
  O  3.13467096 -1.37627028 -0.14077968
  O  1.61175731 -0.47555652 -1.53372851
  C  0.28317893  0.11635290 -1.27633453
  C -0.12134134  0.94681621 -2.46703273
  N  0.42632340  0.79240451 -0.01498730
  C  1.16237641  2.03932591  0.02009723
  H -2.69238524 -1.60270003 -0.64048455
  H -2.36755114 -0.53677289 -2.00331413
  H -2.33096751  0.10279291 -0.35578730
  H -0.38947542 -1.91177198 -1.58065361
  H  0.37190863 -2.42111037  0.55910360
  H -1.90385155 -2.01195025  1.52264520
  H -0.59571752 -1.54674352  2.61020751
  H -1.48895887 -0.30221998  1.72608184
  H  0.69894838  1.60332431 -2.74887454
  H -0.34035487  0.29454496 -3.30816619
  H -0.99689070  1.53917797 -2.21868781
  H  0.56544927  2.80666025 -0.47071339
  H  1.30736411  2.31934334  1.06235753
  H  2.14376734  1.97767073 -0.46907871
