26
opt_min/./Product_77_opt.xyz
  N -1.32606458  0.46331198 -3.65193598
  C -0.87253128 -0.09070411 -2.75654868
  C -0.32788337 -0.77349427 -1.66350917
  C -0.92604293 -1.40511939 -0.64664816
  C  0.20543371 -1.86137270  0.24644952
  C  0.76228580 -0.59368857  0.97266074
  C  1.44302116  0.14187358 -0.20931228
  C  1.16354212 -0.87275358 -1.36632542
  O  1.24434677 -2.10849972 -0.68500261
  N  0.80412176  1.44206985 -0.35290918
  C  1.65522950  2.55782184  0.02540980
  N -0.39214654  1.44505380  0.40500479
  C -0.25867553  0.44962283  1.48748542
  C  0.28956740  1.10947556  2.66964350
  N  0.75447700  1.61261836  3.58270728
  C -1.53247064 -0.12700067  1.87134552
  N -2.53735301 -0.57221557  2.18008926
  H -1.97317949 -1.54150425 -0.45563660
  H  0.02203108 -2.72218896  0.88263668
  H  1.46000367 -0.89910850  1.75373713
  H  2.52044280  0.25146957 -0.08069596
  H  1.84019204 -0.82334278 -2.21303417
  H  2.17260255  2.40761821  0.98115307
  H  2.38601608  2.70909504 -0.76657507
  H  1.02319522  3.43907462  0.10221863
  H -1.18297068  1.23562631 -0.19968951
