39
opt_min/./Product_1288_opt.xyz
  N  2.97776316 -1.65439321 -2.67040872
  C  2.53450106 -1.66063823 -1.61792486
  C  1.93059597 -1.68175669 -0.30228863
 Cl  1.65102531 -3.46969229  0.04401671
  C  0.57930911 -1.02055209 -0.35134344
  C  0.16869159  0.22743647 -0.04126231
  C  0.82717327  1.57051626 -0.01476846
  F  0.11674484  2.32336299 -0.94337165
  F  0.61577510  2.20048523  1.16868628
  C  2.28933188  1.73693714 -0.41851507
  C  3.30294751  1.32632706  0.64627784
  C  3.84611225 -0.08333645  0.46318092
  C  2.86940691 -1.20299529  0.82079384
  C -1.35929268  0.15867351  0.11193375
  C -2.15783177  1.44936597 -0.20648403
  C -2.93464850  1.40373963 -1.48768308
  O -2.17990625  2.35954088  0.56848642
  C -1.65721776 -0.19256528  1.60287649
  C -3.02891878 -0.76373577  1.85374025
  O -0.83244217 -0.05013852  2.46038908
  N -1.66672734 -0.93360869 -0.79296862
  N -0.52728874 -1.80291707 -0.68664258
  C -0.58812938 -2.93128739 -1.37037396
  N -0.81088342 -3.90314876 -1.93970288
  H  2.46178426  1.22816880 -1.36735478
  H  2.38547068  2.81179159 -0.59189308
  H  4.14995018  2.01128941  0.59240845
  H  2.85520772  1.43556261  1.63494317
  H  4.19343278 -0.21186664 -0.56469590
  H  4.71598825 -0.19045839  1.11309239
  H  2.25994376 -0.92609142  1.68257720
  H  3.47263460 -2.06739103  1.10263909
  H -3.09704756  2.41810978 -1.84030790
  H -2.42090611  0.81090647 -2.23796540
  H -3.90549526  0.94935095 -1.29214358
  H -3.01059376 -1.83896993  1.67064111
  H -3.77991047 -0.30166880  1.21762959
  H -3.28667133 -0.61297099  2.89863176
  H -2.51666075 -1.43987264 -0.55527115
