38
opt_min/./Product_3984_opt.xyz
  C  3.94808100 -1.43667400 -0.07440200
  C  3.71851663  0.02942836  0.16228853
  C  4.93883041  0.89211108  0.08757504
  C  2.51363525  0.54757718  0.42810690
  C  1.28396950 -0.20216973  0.50848913
  C  0.11376931  0.37612480  0.77939964
  C -1.21568891 -0.31251853  0.94204379
  C -1.11014043 -1.82618403  0.77845056
  C -1.77971658  0.05448351  2.34624860
  O -3.04277243  0.65435804  2.15608243
  O -3.00994564  1.24446314  0.86484255
  C -2.32522003  0.32633186  0.01893707
  C -3.27124482 -0.74654389 -0.55673913
  C -4.65432673 -0.79986543  0.02161975
  O -2.91543812 -1.44503596 -1.47275050
  C -1.83466888  1.16066682 -1.19171864
  C -2.95659310  1.92107997 -1.84216067
  O -0.70313099  1.17134130 -1.57646826
  H  3.56369876 -2.03171817  0.75232406
  H  3.44341778 -1.75857409 -0.98456595
  H  5.00968839 -1.64391214 -0.18102125
  H  4.68002470  1.94757690  0.08999430
  H  5.50317017  0.67071221 -0.81767258
  H  5.59016346  0.69009085  0.93891944
  H  2.41026214  1.61385282  0.57781878
  H  1.34894429 -1.26184818  0.32504981
  H  0.07351537  1.44600798  0.94064119
  H -2.06579663 -2.31171703  0.96710288
  H -0.79244429 -2.08102967 -0.22873514
  H -0.38413007 -2.21087554  1.49108152
  H -1.10594611  0.74609349  2.86549690
  H -1.94898000 -0.82260951  2.97336177
  H -5.11515258 -1.75382501 -0.21904833
  H -5.23125446 -0.00320881 -0.45041440
  H -4.66135533 -0.62129202  1.09212473
  H -2.55668219  2.67749178 -2.51147746
  H -3.55095388  1.21482903 -2.41948935
  H -3.58146999  2.37269681 -1.07599888
