60
opt_min/./Product_2786_opt.xyz
 Cl  2.93125600  1.16955800  2.76266000
  C  2.04633367  0.86502997  1.34562778
  C  2.17604903 -0.09691052  0.41672858
  C  3.18001600 -1.12056865  0.20484842
  C  3.50279461 -1.52381323 -1.09322292
  C  4.47498513 -2.48187880 -1.30456988
  C  5.13188480 -3.06192491 -0.23069610
  C  4.81181578 -2.67433305  1.05971332
  C  3.84405944 -1.71243592  1.28013391
  C  0.95285604  0.14936544 -0.47686471
  C -0.18912028 -0.39139816  0.45312732
  C -0.45290008  0.89008651  1.26174677
  C  0.82534532  1.69243692  0.96442579
  O  0.85218599  1.56274910 -0.44538695
  C -1.68466745  1.46560152  0.51292923
  C -2.53162715  2.30546190  1.46989662
  C -4.00809003  2.04823929  1.45999647
  O -2.00331405  3.12667479  2.18041384
  C -1.31927563  2.33325727 -0.74686520
  C -0.99594203  3.78612482 -0.53517661
  O -1.49158924  1.85754996 -1.83562570
  O -2.39669441  0.35467831  0.01262067
  C -1.57929131 -0.81595702 -0.05332086
  C -1.61310382 -1.41707244 -1.44641614
  C -2.75070448 -1.24309846 -2.22223207
  C -2.83022600 -1.80559785 -3.48279972
  C -1.78063137 -2.56180635 -3.97551677
  C -0.65427423 -2.75760267 -3.19592951
  C -0.56843248 -2.18993628 -1.93629674
  C -2.17257739 -1.89008556  0.86575910
  C -3.45155139 -1.74142251  1.38289403
  C -4.00799022 -2.71806656  2.18977092
  C -3.29476797 -3.86600398  2.48345856
  C -2.02765419 -4.03439497  1.95175148
  C -1.47125405 -3.05783458  1.14554501
  H  3.00650025 -1.06521181 -1.93437036
  H  4.72470980 -2.77950834 -2.31245312
  H  5.88861097 -3.81217637 -0.40360744
  H  5.31822974 -3.12650457  1.89974917
  H  3.59519441 -1.42436070  2.28923874
  H  0.96743309 -0.20043030 -1.50171212
  H  0.22947702 -1.16680680  1.09671261
  H -0.69797288  0.70365156  2.30614677
  H  0.84834334  2.72933123  1.28773092
  H -4.53585939  2.99103224  1.59564061
  H -4.31225482  1.56688162  0.53653148
  H -4.25197317  1.40430339  2.30387166
  H -0.27495894  4.09387971 -1.28915712
  H -0.62920486  4.00798829  0.46003892
  H -1.91794562  4.34558242 -0.69611445
  H -3.56147855 -0.64563260 -1.83860595
  H -3.71487027 -1.65384271 -4.08326160
  H -1.84263579 -3.00071696 -4.96023621
  H  0.16473276 -3.35508063 -3.56956127
  H  0.30948444 -2.37668138 -1.33506559
  H -4.01075081 -0.85234756  1.14221173
  H -5.00347004 -2.57841220  2.58559396
  H -3.72377114 -4.63108509  3.11313836
  H -1.46911993 -4.93424360  2.16341884
  H -0.49072973 -3.22275344  0.72388681
