61
opt_min/./Product_3115_opt.xyz
  F -1.83586743  0.46155047  2.67935525
  C -2.37191250  0.61279571  1.45932021
  F -3.13305760 -0.46606156  1.27746468
  F -3.26329552  1.60971358  1.53516169
  C -1.31056454  0.87553422  0.35041994
  C -1.00389889  2.38739665  0.44537808
  C -0.67720967  3.13826776 -0.68096597
  C -0.44171194  4.49966354 -0.59794042
  C -0.53577275  5.15825894  0.61285521
  C -0.85916341  4.43126393  1.74029972
  C -1.08182275  3.06741209  1.66064097
  C -0.07150355  0.05148640  0.67233600
  C  0.10485162 -1.28153992  0.94351058
  C -0.65659930 -2.56107788  0.61344619
  C  0.31047519 -3.50490268 -0.15874920
  F -0.26652441 -4.66162544 -0.49682588
  F  0.70105595 -2.92646897 -1.30600173
  F  1.43578016 -3.84398403  0.46680700
  C -1.11357760 -3.25066328  1.92238624
  F -0.15445218 -3.44293673  2.82614393
  F -1.65723176 -4.45132524  1.69782010
  F -2.04982412 -2.51737360  2.53442019
  C -1.94176449 -2.55910585 -0.26075067
  C -1.92523317 -1.94259029 -1.66024520
  C -1.32705189 -0.55602705 -1.85480590
  C -1.97841154  0.54891377 -1.01858927
  C  1.41634846 -1.36058873  1.63108012
  C  2.10240676 -2.39044872  2.32917162
  N  2.76947834 -3.10657120  2.92062242
  N  2.04235867 -0.24123946  1.63495856
  C  1.29293199  0.71213089  0.89727289
  C  1.46254452  2.02531034  1.71059056
  C  1.30781214  1.80156808  3.18547389
  O  1.83396561  3.06405568  1.24316727
  C  1.94407038  0.76326143 -0.51700985
  C  2.50537213 -0.38949978 -1.05557384
  C  3.05483254 -0.38350986 -2.32479661
  C  3.06215850  0.77585637 -3.07867799
  C  2.52997340  1.93057380 -2.53778521
  C  1.97283214  1.92795656 -1.26876792
  H -0.57400030  2.67862622 -1.65173346
  H -0.17941912  5.04171326 -1.49396461
  H -0.35533587  6.21975317  0.67521849
  H -0.93878259  4.91820984  2.69994424
  H -1.32208079  2.56492390  2.58123305
  H -2.76220616 -2.14555728  0.31166574
  H -2.19311317 -3.61347541 -0.40795965
  H -1.42627820 -2.62168659 -2.35413736
  H -2.97343712 -1.89271900 -1.96496987
  H -0.24491077 -0.55437258 -1.72240844
  H -1.51449807 -0.31231751 -2.90367949
  H -1.93557582  1.45183837 -1.61943565
  H -3.03912479  0.33677087 -0.87847334
  H  1.20963010  2.75516743  3.69687247
  H  2.22049096  1.30925351  3.52406996
  H  0.47396402  1.14630212  3.42099015
  H  2.53202153 -1.31448203 -0.50126255
  H  3.47996438 -1.29498966 -2.71557091
  H  3.48935550  0.77979966 -4.06975066
  H  2.54256859  2.85207618 -3.09992965
  H  1.61096469  2.85203332 -0.86027347
