40
opt_min/./Product_275_opt.xyz
  C -3.50083194  1.81934804  0.65628917
  N -2.28406073  1.04653148  0.69081297
  C -1.35969626  1.11402192 -0.29641875
  O -1.50192321  1.85348902 -1.24783154
  C -0.15705294  0.20638175 -0.03569074
  C  0.96143011  0.12932288 -1.13107919
  C  0.60835357  0.51675683 -2.56587383
  C  2.10997177  1.00595715 -0.56808976
  C  2.89021097  0.21991360  0.48347954
  C  1.83444275  0.02325339  1.58512271
  C  0.64369784  0.88381709  1.11425192
  C  1.34863344  1.98631243  0.32010385
  C  1.25532831 -1.35516885 -1.09586853
  C  2.31098364 -1.90539037 -1.85518972
  N  3.18441347 -2.32040942 -2.47025536
  N  0.48104672 -2.07558092 -0.39713432
  C -0.60040388 -1.28215149  0.15038384
  C -0.92147867 -1.75143345  1.57993911
  C -1.80232111 -1.62142958 -0.75166934
  H -3.38529720  2.58121521 -0.11330922
  H -4.36074738  1.19497075  0.40090417
  H -3.67429727  2.29243564  1.62281574
  H -2.16180143  0.39893489  1.45113043
  H  1.50525644  0.48353334 -3.18114864
  H -0.12404328 -0.16919361 -2.98780327
  H  0.18387381  1.51487303 -2.59379308
  H  2.73491038  1.43808346 -1.34772978
  H  3.28998676 -0.72209028  0.10944084
  H  3.73093397  0.81827647  0.83960592
  H  2.19252104  0.38042035  2.55104112
  H  1.57755464 -1.02688382  1.69533202
  H  0.01301001  1.23250833  1.93305040
  H  2.00643694  2.60209693  0.93251612
  H  0.66555328  2.62463317 -0.23303930
  H -0.45769143 -2.72304858  1.73682618
  H -1.99397464 -1.87267283  1.71593101
  H -0.54772656 -1.07140023  2.33876584
  H -1.91811328 -2.70292781 -0.78314438
  H -1.63662260 -1.26444334 -1.76478234
  H -2.72018314 -1.17859412 -0.37634617
