41
opt_min/./Product_4232_opt.xyz
  C -0.47493634 -1.82412769 -1.34532965
  C -0.35033090 -0.42713052 -0.74640320
  C -0.02413310  0.50048916 -1.93502684
  C -1.61340208  0.05586020  0.05100036
  C -2.58228317  0.88158802 -0.80338368
  C -2.43651913 -1.10997144  0.61025786
  C -0.99225383  0.90345649  1.23439758
  C -1.57578700  2.29830274  1.46865316
  C -1.17399830  0.20149947  2.50478500
  N -1.39028151 -0.31102374  3.50271410
  N  0.44111923  0.99627516  0.98850352
  C  0.80795324 -0.21992209  0.29232207
  C  2.16056952 -0.11787368 -0.40001352
  O  2.70935938  1.08209675 -0.25876222
  C  4.01570230  1.28460551 -0.78610683
  O  2.66425169 -1.03079536 -1.00849234
  C  1.15721781 -1.25779978  1.40407420
  C  1.22668026 -2.71666482  1.07365750
  O  1.47720084 -0.83012518  2.47919610
  H  0.47534714 -2.11138315 -1.78856787
  H -0.76639208 -2.57894219 -0.62764002
  H -1.22132662 -1.80382551 -2.13790418
  H  0.86662781  0.13736639 -2.44312072
  H  0.15696347  1.52833968 -1.62752159
  H -0.83089594  0.49562939 -2.66175589
  H -3.45404277  1.14987566 -0.21169807
  H -2.92947757  0.28400317 -1.64330049
  H -2.14021646  1.79308435 -1.19054434
  H -3.22622152 -0.72190014  1.25089847
  H -1.83651523 -1.79003284  1.20891603
  H -2.90272310 -1.66788779 -0.19842784
  H -2.63114420  2.23890477  1.72214862
  H -1.45408316  2.93063613  0.59276440
  H -1.04561429  2.75682489  2.30093925
  H  0.67594225  1.82252344  0.45246309
  H  4.70836153  1.39619869  0.04830432
  H  3.99823496  2.19691675 -1.38103508
  H  4.30489215  0.43163016 -1.40229170
  H  1.84181541 -3.20625909  1.82548429
  H  0.23213510 -3.15315009  1.11806224
  H  1.65041477 -2.86726514  0.08616272
