41
opt_min/./Product_4027_opt.xyz
  C -4.35872028 -0.58942373  2.06410510
  C -5.27309564 -0.09601798  0.98129494
  C -6.72893282 -0.34106007  1.23456641
  C -4.86212137  0.50419960 -0.14257094
  C -3.52080122  0.83941821 -0.57661919
  C -2.43257684  1.00560006  0.17595798
  C -1.05753079  1.29719146 -0.37346341
  C -1.07831918  2.24875855 -1.57426707
  C -0.30691767 -0.01865266 -0.69817860
  N  0.81680413 -0.01054706  0.23374055
  C  1.77148500 -0.98877557  0.33567417
  C  1.73663646 -2.12053554 -0.48311725
  C  2.71163103 -3.09283486 -0.36396643
  C  3.73129491 -2.96114543  0.56263539
  C  3.76897938 -1.83945692  1.37734650
  C  2.80444937 -0.86088053  1.27111582
  N  0.82939805  1.09172650  1.00648838
  C -0.15751363  1.84916156  0.72921188
  C -0.40535144  3.14776460  1.40016980
  H -4.86860178 -1.32156915  2.68570138
  H -4.04480660  0.23175279  2.70783500
  H -3.46965942 -1.04623577  1.63348267
  H -7.03661521  0.17620199  2.14318525
  H -6.91402037 -1.40476872  1.38058953
  H -7.34082322  0.01155350  0.40824198
  H -5.62410248  0.76602892 -0.87099499
  H -3.42239746  0.97182153 -1.64577753
  H -2.47615549  0.91078349  1.24801306
  H -0.06301474  2.55518456 -1.81972542
  H -1.66718480  3.13267977 -1.34334592
  H -1.50647496  1.76123138 -2.44653318
  H  0.05747450 -0.03564106 -1.73013517
  H -0.93536853 -0.89900716 -0.52920348
  H  0.94980708 -2.24162390 -1.21150697
  H  2.67151358 -3.96215231 -1.00412663
  H  4.48918012 -3.72516789  0.64879818
  H  4.56137323 -1.72874193  2.10329367
  H  2.82567807  0.01470207  1.89945995
  H -1.46913582  3.27692857  1.59168515
  H -0.07708657  3.96955563  0.76229637
  H  0.14856661  3.19646596  2.33305635
