25
opt_min/./Product_3699_opt.xyz
  C -2.36889679 -0.53422928 -0.80414961
  O -3.24316607 -0.76415655 -1.59887683
  C -2.52445559  0.42489106  0.30279274
  C -1.81218280  0.34670563  1.43026692
  C -0.70290109 -0.59334435  1.64228941
  O -0.13573831 -0.68542128  2.70750247
  C -0.24852568 -1.42259097  0.45353123
  C -1.03498189 -1.25499605 -0.86435569
  N -0.06186162 -0.52743648 -1.75457925
  N  1.17299162 -1.14731408 -1.44959768
  C  1.16507980 -0.89651804 -0.03045972
  C  2.40486514 -1.38666059  0.71723457
  C  2.80679705 -0.55687009  1.88158052
  O  2.94940452 -2.38936958  0.33927174
  O  1.00330222  0.52975565 -0.06039813
  C  0.14520040  0.73806736 -1.08491662
  O -0.38673569  1.76463253 -1.33146414
  H -3.31977284  1.14731590  0.18630466
  H -1.99949605  1.01053906  2.26380300
  H -0.19320225 -2.46525105  0.77727688
  H -1.18831422 -2.22259183 -1.35805303
  H  1.22907644 -2.11745997 -1.73665147
  H  3.71528275 -0.95291740  2.32524994
  H  2.95335854  0.47235559  1.55619307
  H  1.99733757 -0.54517804  2.61255728
