60
opt_min/./Product_5873_opt.xyz
  C  3.21107700  2.58324500 -2.11647600
  C  2.23533581  2.08894734 -1.09376883
  C  2.34923639  2.74254226  0.25711676
  C  1.33244829  1.16436088 -1.40189833
  C  0.29672271  0.60927592 -0.48407058
  C -1.09360335  0.57450517 -1.13788225
  C -1.74301422  1.92115139 -1.34889749
  C -2.71371462  1.99534623 -2.48503437
  C -1.50226817  2.97647922 -0.58705784
  C -1.89208631 -0.38555263 -0.20281137
  C -2.63731124  0.43903117  0.87932681
  N -1.90131450  0.65411495  1.99035216
  C -2.39143299  1.46035067  3.08289130
  O -3.76799641  0.84470075  0.74775020
  C -2.94463441 -1.19789588 -0.96702601
  O -3.86330004 -0.76183723 -1.60324235
  O -2.72868445 -2.50990019 -0.81077140
  C -3.65213091 -3.36811111 -1.46077046
  N -0.87341519 -1.26226953  0.29584059
  C  0.47432346 -0.86449923 -0.01185658
  C  1.01176637 -1.80394135 -1.10771012
  O  1.84393286 -1.53382532 -1.93318791
  O  0.49890894 -3.02180951 -0.95390986
  C  0.93902461 -4.01158883 -1.86910830
  C  1.48055919 -0.96396264  1.11832124
  C  2.82477261 -0.73552290  0.83095548
  C  3.77877447 -0.78533519  1.82973160
  C  3.41213066 -1.06698906  3.13499525
  C  2.08254907 -1.31157614  3.42652678
  C  1.12398158 -1.26350670  2.42665974
  H  3.06572403  3.65270650 -2.28375091
  H  3.08450376  2.06602376 -3.06447957
  H  4.23384694  2.43908664 -1.76947255
  H  3.21533742  3.40140215  0.28503958
  H  1.46434851  3.34808800  0.46007297
  H  2.44295496  2.00476646  1.05257791
  H  1.30896805  0.77121826 -2.40666338
  H  0.25345423  1.21396805  0.42439175
  H -0.98864100  0.07484474 -2.10949778
  H -2.97239078  3.02752873 -2.70844984
  H -2.31533324  1.51905570 -3.37848674
  H -3.61799740  1.45756249 -2.20205689
  H -1.98984146  3.91834297 -0.78051093
  H -0.83015752  2.96540019  0.24983455
  H -0.95548595  0.31103877  2.03936686
  H -1.58289947  2.06416080  3.49034977
  H -2.80886293  0.83343025  3.87413374
  H -3.18251638  2.10866374  2.70032249
  H -3.35245600 -4.38528994 -1.21060367
  H -4.66738566 -3.17091598 -1.10779968
  H -3.62197321 -3.21133517 -2.54113329
  H -1.07129294 -1.83674684  1.09397059
  H  0.28532363 -4.86903810 -1.72861602
  H  0.87225032 -3.64013720 -2.89251532
  H  1.97641982 -4.28423113 -1.65969093
  H  3.11362398 -0.51839628 -0.18717929
  H  4.81390347 -0.59966740  1.58602394
  H  4.15700324 -1.10197107  3.91635056
  H  1.78277994 -1.54540064  4.43785401
  H  0.09954621 -1.48042892  2.69277429
