63
opt_min/./Product_2902_opt.xyz
  C -1.52244374 -2.44926466  3.09604346
  O -1.37404322 -1.44371698  2.09537805
  C -2.44681133 -1.02048204  1.46379325
  O -3.56924241 -1.41519398  1.63183190
  C -2.10964804  0.11629899  0.45274815
  O -2.47265415  1.38293006  1.02770639
  C -3.63667779  1.45326922  1.82129343
  C -0.62341208  0.21090384  0.29237106
  C  0.29889472 -0.56607600 -0.27500905
  C  0.06531641 -1.75292009 -1.17575669
  C  1.24748211 -2.59118462 -1.32211749
  N  2.13522257 -3.27335079 -1.54596825
  C -0.95334599 -2.63762361 -0.64131962
  N -1.73231621 -3.36790923 -0.23611433
  C -0.28375125 -1.30955722 -2.62914804
  C -1.73682629 -0.96055939 -2.93033712
  C -2.35957411  0.22098342 -2.18136425
  C -2.96116306 -0.12115192 -0.81592203
  C  1.68991615 -0.07146805  0.08541816
  C  2.45456460  0.60082442 -1.07348691
  O  3.63575305  0.79113784 -1.10567743
  O  1.58357504  1.10679121 -1.95280101
  C  2.08390843  2.00234807 -2.94546221
  C  2.47730050 -1.10836531  0.86706433
  C  1.97795945 -1.46201931  2.11629158
  C  2.63127610 -2.40816797  2.88429952
  C  3.78792118 -3.00523571  2.41381334
  C  4.28816540 -2.64898592  1.17385087
  C  3.63799234 -1.70596508  0.39681013
  O  1.45337876  1.05297033  0.94677763
  C  0.08039685  1.39172740  0.94058673
  C -0.33384864  1.68092479  2.41331669
  N -0.60387000  2.96996405  2.66978401
  C -0.98503930  3.40645540  3.99401301
  O -0.32919443  0.80811624  3.24829579
  C -0.14863762  2.52536386  0.05443897
  N -0.27363275  3.37585498 -0.70123439
  H -0.93861898 -3.31517556  2.78444611
  H -1.12789249 -2.03883327  4.02477709
  H -2.57428175 -2.71709403  3.19961067
  H -4.48975856  0.95476954  1.35482007
  H -3.84635601  2.51791432  1.92038843
  H -3.47307248  1.01683197  2.81172271
  H  0.34607974 -0.45081410 -2.85925629
  H -0.00077980 -2.12849263 -3.29841101
  H -2.37360703 -1.83914644 -2.79581577
  H -1.74577083 -0.71018609 -3.99520348
  H -3.20355168  0.54139720 -2.80000616
  H -1.66455585  1.05954607 -2.11276635
  H -3.83426841  0.52008427 -0.67511052
  H -3.32533661 -1.15231777 -0.82796439
  H  1.36792093  2.81926383 -3.01728405
  H  3.06636828  2.37055262 -2.64878346
  H  2.15911377  1.47598569 -3.89840912
  H  1.08345513 -0.98709913  2.48968360
  H  2.23426741 -2.67584011  3.85229880
  H  4.29899412 -3.74460142  3.01271743
  H  5.19138280 -3.10712835  0.80095083
  H  4.04401178 -1.44685775 -0.56631505
  H -0.63458999  3.63976897  1.91725700
  H -2.04911974  3.23189525  4.17463433
  H -0.41526539  2.83570117  4.72686923
  H -0.77007033  4.46644941  4.10100937
