51
opt_min/./Product_5643_opt.xyz
  C -1.52785256 -0.18873976 -1.36193682
  O -1.62090436 -0.43285021 -2.54178513
  C -1.02598969 -1.23065478 -0.33113163
  O -2.08545894 -2.00739387  0.14353725
  C -3.16944195 -1.33383739  0.73702957
  C -0.20879797 -0.52235646  0.84186314
  O -0.37501591 -1.42018067  1.93544695
  C  0.09629850 -1.12395659  3.23677921
  C -0.79115988  0.82595311  1.27268343
  O -0.67389650  1.20917244  2.41877229
  C -1.59032106  1.62296120  0.31631686
  C -1.97055148  2.99299808  0.78829930
  C -1.98137195  1.12571481 -0.87132171
  C -2.82205273  1.89491222 -1.84065568
  C  1.27985824 -0.58331022  0.31090035
  C  2.04979744 -1.47173072  1.18501225
  N  2.75677796 -2.13273542  1.79641724
  C  2.13874284  0.67105667  0.15994413
  C  1.65179658  1.96854196  0.16183509
  C  2.50015714  3.04881504 -0.01512803
  C  3.85496265  2.85235422 -0.20773277
  C  4.35230617  1.56130704 -0.23087076
  C  3.50527059  0.48428257 -0.05211881
  N  1.14703953 -1.20217467 -1.00550458
  C  0.05030379 -2.15698557 -0.98261049
  C -0.20966349 -2.64011599 -2.41589286
  C  0.27591742 -3.40921355 -0.11554013
  H -2.85101295 -0.74201329  1.60125319
  H -3.68591351 -0.68063101  0.02375956
  H -3.84562967 -2.11874920  1.06961626
  H  1.03786835 -0.57227864  3.22911449
  H  0.25005975 -2.09808456  3.70161101
  H -0.64188498 -0.55646731  3.80881573
  H -3.04755676  3.06054636  0.94053669
  H -1.47901707  3.20353960  1.73537537
  H -1.68402488  3.74367877  0.05400246
  H -2.17140166  2.38714338 -2.56406536
  H -3.46113492  1.21338434 -2.39744801
  H -3.42730735  2.64638585 -1.34460449
  H  0.60174852  2.16007470  0.29116216
  H  2.09225447  4.04851125 -0.00284924
  H  4.51590120  3.69479386 -0.34334184
  H  5.40681450  1.38924194 -0.38686033
  H  3.91694339 -0.51412575 -0.06787867
  H  2.02296538 -1.59841482 -1.33140068
  H  0.31268225 -3.58137058 -2.57394581
  H  0.15566821 -1.91431464 -3.13661243
  H -1.26872433 -2.80182739 -2.58034993
  H  1.30093070 -3.75837923 -0.22997980
  H -0.40042034 -4.19135000 -0.44461377
  H  0.07374869 -3.21550418  0.93201547
