43
opt_min/./Product_877_opt.xyz
  C  2.82612400 -1.47291500 -1.56344700
  C  2.00181435 -1.50595795 -0.33024736
  C  1.04917487 -2.36144550  0.05801739
  C  0.56637636 -3.61886225 -0.56608797
  F  1.12781032 -3.85741755 -1.76407990
  F -0.76582555 -3.66219348 -0.76466360
  F  0.84486461 -4.69048588  0.20149042
  C  0.54959207 -1.82860678  1.38995140
  C -0.24268371 -0.51470687  1.09280187
  C  0.91199629  0.47556456  0.88012931
  C  2.11551182 -0.51844864  0.82741557
  O  1.75713835 -1.32898502  1.94070994
  C  0.49078873  1.39285958 -0.28246619
  C  1.65623650  1.78228775 -1.18962434
  C -0.17517265  2.65711069  0.29921359
  N -0.54501666  0.65911920 -0.99957069
  C -1.07206661 -0.45250537 -0.20733674
  C -2.56272562 -0.31721318  0.02016780
  C -3.19703570 -0.92142441  1.09698541
  C -4.56817051 -0.81179226  1.25594918
  C -5.32331971 -0.10020054  0.34095707
  C -4.70005577  0.49091132 -0.74354154
  C -3.33141848  0.37726152 -0.90546674
  H  3.61719756 -0.73185218 -1.48155501
  H  3.27668412 -2.45028356 -1.73555159
  H  2.21085816 -1.25058221 -2.43585754
  H  0.07854614 -2.54330627  2.05837234
  H -0.86014707 -0.22119509  1.94019680
  H  1.10368133  1.06208801  1.78403564
  H  3.09737825 -0.06891651  0.94868370
  H  1.90945364  0.97302904 -1.86679503
  H  1.40097212  2.65625514 -1.78484145
  H  2.53551814  2.01330852 -0.59219932
  H  0.28975467  2.97924362  1.22607186
  H -1.22547928  2.44263494  0.48587766
  H -0.12355202  3.47577754 -0.41462043
  H -0.24542075  0.35604172 -1.91638781
  H -0.94037009 -1.37409481 -0.78743371
  H -2.63215091 -1.50959833  1.80485371
  H -5.04626667 -1.28806702  2.09991974
  H -6.39271605 -0.01433354  0.46967807
  H -5.28296625  1.04083477 -1.46917514
  H -2.84069962  0.84794574 -1.74330391
