45
opt_min/./Product_1726_opt.xyz
  N  1.66916313  2.90434191 -1.42954803
  C  1.30391457  1.99976092 -0.83431208
  C  0.86913423  0.87256391 -0.03764373
  C  0.82333113 -0.50039275 -0.78562250
  C  0.88482395 -0.39213351 -2.32025189
  F  0.93070320 -1.57829413 -2.91663726
  F -0.19603207  0.24259676 -2.79292614
  F  1.94235926  0.29245121 -2.78666262
  C  1.97644342 -1.28010103 -0.10375139
  C  3.33742558 -0.61971328 -0.36585446
  C  3.30640602  0.64113271  0.52248074
  C  1.89128238  0.60522065  1.10849692
  C  1.72398215 -0.89305214  1.35840764
  N -0.48867919 -1.06300034 -0.45737536
  C -0.60130322 -2.45030294 -0.29131266
  N -1.44422929 -2.85460189  0.68593733
  C -1.73414943 -4.25244459  0.88949652
  O -0.00773425 -3.21611093 -1.01896874
  N -1.23445042 -0.21001284  0.43961170
  C -2.67040980 -0.20116520  0.14254765
  C -0.59287009  1.09804156  0.44180278
  C -0.69740578  1.64575646  1.78440552
  N -0.83980923  2.05897091  2.83948876
  C -1.21542227  2.17462406 -0.50812263
  O -1.88809937  1.94090191 -1.46834255
  O -0.87618400  3.37505839 -0.05986364
  C -1.21722455  4.50637539 -0.85900084
  H  1.95142697 -2.33649321 -0.35759926
  H  4.13317396 -1.29802683 -0.06408079
  H  3.49534185 -0.38049550 -1.41279369
  H  4.02631722  0.56426559  1.33835892
  H  3.52699037  1.55357513 -0.02756918
  H  1.74146330  1.27503095  1.95363051
  H  0.74315415 -1.17027891  1.73946317
  H  2.48311912 -1.28562328  2.03100907
  H -1.74840427 -2.20609173  1.39056422
  H -1.39486813 -4.79128555  0.00701944
  H -2.80700652 -4.39451045  1.01948170
  H -1.20876674 -4.64563562  1.76369427
  H -3.09056390  0.77949424  0.34419175
  H -2.86013885 -0.45673885 -0.89985896
  H -3.18165331 -0.91367983  0.79037760
  H -1.97690836  4.23362528 -1.59183055
  H -1.58359864  5.27501568 -0.18312719
  H -0.31075470  4.84215691 -1.36353080
