28
opt_min/./Product_3394_opt.xyz
  C -1.06422633 -0.68238215 -1.10542424
  C  0.18846755 -1.51071169 -0.83542245
  C  0.99062452 -0.63095863  0.14805186
  C  1.94179906 -1.44803569  1.01344939
  C  1.67591377  0.46333528 -0.69341733
  C  3.15596193  0.33313222 -0.92940302
  O  1.03319335  1.36860570 -1.16377485
  N -0.05929214 -0.06717319  0.98965236
  C -1.32545377 -0.02063342  0.27098104
  C -1.87234755  1.41982207  0.18793072
  C -3.11387623  1.58560342 -0.63583359
  O -1.33943534  2.30740185  0.79378850
  C -2.28927563 -0.80901312  1.01581341
  N -3.02892836 -1.44854753  1.60865351
  H -0.83929406  0.09266294 -1.83925836
  H -1.90638728 -1.27804387 -1.44684964
  H -0.07070635 -2.44318745 -0.33651011
  H  0.74472678 -1.73477723 -1.74538247
  H  2.50993735 -0.80439852  1.67753166
  H  2.62562990 -2.03458284  0.40972394
  H  1.35337673 -2.12350298  1.62793349
  H  3.69175568  0.42814225  0.01158323
  H  3.47896772  1.11694039 -1.60782752
  H  3.38926973 -0.64077759 -1.35185990
  H  0.17546919  0.84819045  1.36536271
  H -3.93128196  1.07591033 -0.12484141
  H -3.35338465  2.64056237 -0.73337868
  H -2.99990387  1.13727348 -1.61873501
