44
opt_min/./Product_4700_opt.xyz
  C  3.80855200  0.48744800 -2.35955000
  C  4.21600613 -0.51719185 -1.32370691
  C  5.45987449 -1.31031808 -1.59873577
  C  3.50709718 -0.73243081 -0.20679998
  C  2.29564307 -0.04646590  0.15055563
  C  1.59759963 -0.32255741  1.25734802
  C  0.35219231  0.38880490  1.70271627
  C -0.31689232 -0.37180269  2.84305918
  C  0.74698382  1.83523298  2.12922809
  N  0.52218600  2.64452353  0.96129911
  N -0.12969281  2.08967372  0.10306528
  C -0.57172055  0.74390823  0.48643753
  C -2.03937939  0.87082852  0.93702457
  O -2.29791032  2.08062311  1.42785133
  C -3.63586154  2.35272294  1.82658676
  O -2.83950753 -0.01968374  0.85963428
  C -0.59201677 -0.17979460 -0.70773002
  C -0.39707345 -1.54755849 -0.58926382
  C -0.46093889 -2.35737147 -1.70948494
  C -0.72008847 -1.81176113 -2.95450227
  C -0.92628284 -0.44793264 -3.07398258
  C -0.86922601  0.36337502 -1.95523070
  H  2.77863169  0.33105855 -2.67781680
  H  4.44850477  0.42308226 -3.23643250
  H  3.88081655  1.50001246 -1.96121803
  H  5.19861394 -2.26554433 -2.05494581
  H  6.12281560 -0.77707778 -2.27453682
  H  5.99825463 -1.52272099 -0.67664952
  H  3.85159322 -1.47898362  0.49865049
  H  1.94965990  0.72390386 -0.52478061
  H  1.95636507 -1.10066561  1.92050442
  H -1.28379981  0.05365586  3.09874365
  H  0.31874889 -0.32573427  3.72728468
  H -0.45475217 -1.41621956  2.57720483
  H  1.79038429  1.92921948  2.43329875
  H  0.11076416  2.21452417  2.93277566
  H -4.15938062  2.84269793  1.00534908
  H -3.57875553  3.02034558  2.68459743
  H -4.14796863  1.42645424  2.09109555
  H -0.20364472 -1.99831304  0.37021778
  H -0.30755626 -3.42181616 -1.61125854
  H -0.76732119 -2.44419277 -3.82852583
  H -1.13321062 -0.01597325 -4.04183724
  H -1.02240801  1.42763149 -2.04982081
