53
opt_min/./Product_1829_opt.xyz
  C -3.08750300 -0.28209500 -1.26310100
  O -2.87453288 -1.26586766 -0.27053217
  C -2.02809415 -0.91665004  0.81348333
  O -1.75147289 -2.09445596  1.52102914
  C -2.85113604 -2.91276750  1.86921952
  C -0.62469456 -0.53674895  0.21435007
  C  0.15615594  0.55437751 -0.10262361
  C  0.05044761  2.11148076 -0.08919231
  C  1.26408752  2.76577917 -0.76584173
  F -1.02161516  2.44319677 -0.93373877
  C -0.16044384  2.88689990  1.26391190
  C -1.54007409  2.71525908  1.95291649
  C -1.74633255  1.25858488  1.61159093
  C -2.72579309  0.12721877  1.77396479
  C  1.38684075 -0.00073330 -0.78977190
  C  2.68152683  0.28640689 -0.03536914
  O  2.38806645  0.45155210  1.25327578
  C  3.46985074  0.57134756  2.17342814
  O  3.79010797  0.30171901 -0.49015527
  C  1.33198120  0.18973491 -2.33691863
  C  2.63079396  0.07212874 -3.05387005
  O  0.26437221  0.28442358 -2.87679687
  N  1.26557047 -1.43804377 -0.75554824
  C  0.13825929 -1.71508076 -0.21486548
  C -0.22841542 -3.16888166 -0.10880347
  C -1.09023267 -3.62327084 -1.25414934
  O  0.21222191 -3.89508442  0.73956834
  H -3.75451536 -0.74602021 -1.98730958
  H -3.57006466  0.61143816 -0.85802496
  H -2.15701130  0.00400852 -1.76195092
  H -2.41136491 -3.76457026  2.38345548
  H -3.38856082 -3.25405744  0.98249323
  H -3.54756665 -2.39440576  2.53390923
  H  1.09577398  3.84010152 -0.80978929
  H  1.37020759  2.41752175 -1.78978438
  H  2.18291633  2.58519722 -0.21965384
  H  0.01225417  3.94207438  1.04931470
  H  0.62383270  2.54255488  1.93924522
  H -2.28433562  3.36577519  1.49471594
  H -1.46800835  2.94414340  3.01536389
  H -1.78339568  1.32674208  0.53459551
  H -0.81755693  0.80405223  1.96443543
  H -2.78196943 -0.28575346  2.78049425
  H -3.73034176  0.34724212  1.41434519
  H  3.45425992  1.57510050  2.60021677
  H  3.31890823 -0.16975777  2.95679717
  H  4.41787346  0.39593403  1.66328728
  H  2.99267953 -0.94561483 -2.91184757
  H  2.47863347  0.26769818 -4.11256497
  H  3.38324511  0.73627546 -2.63928238
  H -0.66866774 -3.26151184 -2.18958799
  H -2.08155167 -3.18720067 -1.14070100
  H -1.16132387 -4.70770236 -1.26154409
