45
opt_min/./Product_5551_opt.xyz
  C  0.12018142  1.34742912 -1.07080075
  O -0.35443358  1.93926627 -2.01223853
  C -0.25589785 -0.10021862 -0.78246787
  O -0.90178970 -0.73411908 -1.85004521
  C -0.32176192 -0.69629449 -3.14628146
  C  0.95432986 -0.91104682 -0.23490055
  O  1.93049606 -1.08272163 -1.22079901
  C  3.06959928 -1.83945777 -0.84489886
  C  1.51260204 -0.16068613  0.98510520
  O  1.72825085 -0.72385954  2.03475339
  C  1.75670233  1.27608366  0.78575166
  C  2.71540770  1.87743498  1.76153186
  C  1.10549220  1.97692017 -0.16558923
  C  1.30770716  3.44257261 -0.37734578
  C  0.19987339 -2.18429665  0.27715253
  C -0.10713183 -3.05499643 -0.86278455
  N -0.30519506 -3.77939183 -1.72266298
  C  0.98041143 -3.00963118  1.18156603
  N  1.57031233 -3.73794263  1.83694880
  N -1.04125104 -1.64874970  0.82743120
  C -1.42582216 -1.95603157  2.18361066
  C -1.22263465 -0.28028127  0.41261345
  C -2.66475218 -0.01610252 -0.04864743
  O -2.77450128  1.26617777 -0.38869444
  C -4.02100766  1.68938740 -0.93837055
  O -3.54781757 -0.81995336 -0.05164683
  H -0.92624217 -1.38914803 -3.72837499
  H -0.37597590  0.30579036 -3.57609471
  H  0.71470051 -1.03529874 -3.12774488
  H  3.73465456 -1.79585218 -1.70505435
  H  2.80482356 -2.88006638 -0.63775563
  H  3.56566911 -1.41462810  0.03208072
  H  3.73311142  1.56998178  1.51618496
  H  2.66504340  2.96041397  1.77159842
  H  2.49695792  1.48602380  2.75482133
  H  0.72823740  3.75909052 -1.24186564
  H  0.97632615  4.00781056  0.49350313
  H  2.35901817  3.66752832 -0.55000069
  H -2.51084810 -2.05923514  2.22016616
  H -0.97134378 -2.89350547  2.49709410
  H -1.11185843 -1.16924731  2.88472527
  H -0.98357466  0.44010547  1.22023489
  H -3.97357647  1.60988883 -2.02577422
  H -4.82977792  1.06341743 -0.55797100
  H -4.15852986  2.72769393 -0.64383218
