47
opt_min/./Product_5499_opt.xyz
  C  0.89360900 -2.87451600 -0.66553700
  O  1.03032966 -4.04347920 -0.40507046
  C  1.44491840 -2.22559565 -1.86491744
  C  0.81585833 -1.18813872 -2.42529504
  C -0.45648540 -0.63370378 -1.92502675
  O -1.02577886  0.23879398 -2.53776608
  C -1.02241463 -1.23189625 -0.64005572
  C  0.05873791 -1.94305027  0.19564292
  N  0.77090194 -0.81998375  0.78954675
  C  2.07412130 -0.52056657  0.39451518
  C  2.43708396  0.74007941 -0.07918106
  C  3.75389769  1.01339040 -0.39381480
  C  4.73150382  0.04287733 -0.24636646
  C  4.37692505 -1.21011806  0.22874844
  C  3.06519447 -1.49119280  0.55547285
  N -0.14148917  0.29191432  0.86138950
  C  0.02776923  1.04060031  2.09025976
  C -1.44093162 -0.12871808  0.37434162
  C -2.40964975 -0.86520099  1.35702730
  C -2.14245651 -0.89482607  2.83463397
  O -3.35615768 -1.45750033  0.89999032
  C -2.20969665  1.02727707 -0.25027378
  C -1.68415042  2.31263045 -0.25979477
  C -2.39842156  3.36159514 -0.81192459
  C -3.64631472  3.14427010 -1.36487500
  C -4.16813231  1.86210544 -1.37872522
  C -3.45689046  0.81152870 -0.83087218
  H  2.33345016 -2.66260764 -2.29759875
  H  1.18561836 -0.71645311 -3.32383301
  H -1.86262903 -1.87692763 -0.90212745
  H -0.40551467 -2.55126388  0.98981479
  H  1.67516888  1.48780736 -0.23313290
  H  4.01808021  1.99203218 -0.76837973
  H  5.75989139  0.25457860 -0.49536027
  H  5.12995101 -1.97396578  0.35475313
  H  2.80645684 -2.46046060  0.95577662
  H -0.88082389  1.59024500  2.31681724
  H  0.29817943  0.40778728  2.93982488
  H  0.84482971  1.75426072  1.95127036
  H -2.82507407 -1.60972943  3.28692374
  H -1.11764230 -1.17627152  3.05350075
  H -2.33562279  0.08613936  3.26354023
  H -0.70133611  2.49884746  0.13960441
  H -1.96868576  4.35250049 -0.80887200
  H -4.20545857  3.96390555 -1.79191168
  H -5.13248045  1.67129396 -1.82515320
  H -3.87962069 -0.17932023 -0.85375838
