57
opt_min/./Product_2100_opt.xyz
  C  1.47416800  3.95494000  0.02375400
  O  0.48124769  2.96923296 -0.23705337
  C  0.33191998  2.03164082  0.69789932
  O  1.02307856  1.95755431  1.67774503
  C -0.86085489  1.09472615  0.42767490
  F -1.39823878  0.88084133  1.71531665
  C -0.34369991 -0.21453806 -0.08960952
  C -0.95569167 -1.40767892 -0.28909981
  C -2.38558171 -1.86965381 -0.11847202
  C -2.44121406 -2.48308527  1.30905401
  C -2.76047476 -2.90761322 -1.20616623
  C -3.43236580 -0.74136264 -0.17161116
  C -3.51505698  0.09899474 -1.44952178
  C -2.35560600  1.06776556 -1.68291274
  C -1.95779203  1.79599428 -0.40264722
  N -0.03242899 -2.36547758 -0.65607761
  C  0.09049823 -3.72667324 -0.21434418
  O  1.24260061 -1.74993981 -0.78198200
  C  1.16363833 -0.45559140 -0.17146387
  C  1.78321167 -0.63691742  1.23721036
  O  2.95940169 -0.69893561  1.47469789
  O  0.82812152 -0.88420445  2.12820811
  C  1.24168651 -1.07410228  3.47317432
  C  1.92010010  0.48347919 -1.08815819
  C  3.05152152  1.19203185 -0.70887361
  C  3.72516656  1.96890934 -1.63947291
  C  3.27468630  2.05743825 -2.94359493
  C  2.13894891  1.36127132 -3.32291824
  C  1.47293516  0.57633403 -2.40265236
  H  1.25108413  4.46891851  0.96065843
  H  1.43916712  4.64280154 -0.81626839
  H  2.45684779  3.48779056  0.09782554
  H -2.94073123 -3.44868870  1.31360990
  H -2.98411885 -1.82389886  1.98037346
  H -1.44671500 -2.60684899  1.72799141
  H -1.90696640 -3.18817781 -1.81416448
  H -3.18457700 -3.80578021 -0.76401962
  H -3.51085115 -2.50262680 -1.87851103
  H -3.31047256 -0.09557390  0.69430966
  H -4.40139628 -1.23792505 -0.05611254
  H -3.61264769 -0.54724042 -2.32295974
  H -4.43650817  0.68472846 -1.38354163
  H -2.67392387  1.80827374 -2.41935180
  H -1.49709423  0.54437882 -2.09964141
  H -1.62107997  2.80267286 -0.64329152
  H -2.83599227  1.89791104  0.23661468
  H -0.88721431 -4.17541661 -0.08932827
  H  0.63856130 -3.78706320  0.73445028
  H  0.65406774 -4.27386503 -0.97093813
  H  2.05132692 -0.38390677  3.71260190
  H  1.58814432 -2.10016028  3.61899671
  H  0.36769789 -0.87194604  4.08674453
  H  3.41762526  1.13271954  0.30291473
  H  4.61418796  2.50509850 -1.33814233
  H  3.80936802  2.65911087 -3.66368883
  H  1.77685828  1.42301008 -4.33807774
  H  0.59965374  0.01627606 -2.70255522
