49
opt_min/./Product_2233_opt.xyz
  C  0.32158000 -2.81137700 -3.26147200
  N  0.19150825 -2.66762726 -1.83378073
  C  0.25067853 -1.47577941 -1.25212351
  O  0.44713660 -0.43511855 -1.85652380
  C  0.05365830 -1.40820742  0.28076083
 Cl  0.06849548 -3.03240677  0.99190835
  C  1.18824808 -0.54692602  0.85671341
 Cl  1.32146003 -0.81057967  2.64181386
  C  2.55810025 -0.91744596  0.29347578
  O  2.70997852 -1.78193431 -0.54020786
  N  3.56868359 -0.18330792  0.81012998
  C  4.95280658 -0.49703857  0.52767160
  C  0.67317875  0.87822528  0.65854814
  C  0.83917091  1.58927481 -0.71785278
  N  2.08625161  1.70751201 -1.20252872
  C  2.32155998  2.31194645 -2.49617013
  O -0.12317708  2.19237028 -1.14930375
  N -0.75032578  0.76249381  0.92735611
  C -1.22082998 -0.58073504  0.62332449
  C -1.94065531 -1.12990195  1.90204215
  O -1.87402028 -0.55804101  2.96173842
  N -2.70312728 -2.21312186  1.66195752
  C -3.35090807 -2.93211752  2.73487526
  C -2.26155121 -0.67365737 -0.49735708
  O -2.34461944 -1.67208197 -1.19582835
  N -3.11957422  0.35171401 -0.56251659
  C -4.12150903  0.46212649 -1.59413786
  H  0.74440521 -3.78685736 -3.48841389
  H -0.65180316 -2.70751373 -3.74672927
  H  0.98075410 -2.02573645 -3.62699556
  H -0.01611610 -3.48470449 -1.28294954
  H  3.37745366  0.38029659  1.62460669
  H  4.97243497 -1.36465524 -0.12831758
  H  5.43922322  0.34235497  0.02778043
  H  5.48885311 -0.72407825  1.44772377
  H  1.11667827  1.55988565  1.39650996
  H  2.79810479  1.07666011 -0.87107747
  H  1.38472053  2.74587514 -2.83479844
  H  3.07693395  3.09364738 -2.40715086
  H  2.64954139  1.56409231 -3.21769993
  H -1.18501935  1.48067561  0.34136661
  H -2.64429841 -2.67207850  0.76380803
  H -2.71204069 -3.73044035  3.12140677
  H -4.28324411 -3.35941693  2.37264918
  H -3.55265274 -2.22667428  3.53846149
  H -3.04018290  1.11502762  0.09352164
  H -3.87864273  1.28066467 -2.27322334
  H -5.10075948  0.63627266 -1.14919810
  H -4.13287265 -0.47421651 -2.14964394
