44
opt_min/./Product_5292_opt.xyz
  C -2.23726500 -0.18970200  1.21566500
  C -2.13592118 -1.63931029  1.56719178
  C -1.04127861 -2.35735843  1.31860059
  N  0.06804391 -1.87607139  0.66631937
  C  1.08289838 -2.83231586  0.27777705
  C  0.00449652 -0.64502909 -0.05768850
  C -1.29385811  0.20093845  0.05903503
  C -2.12962186  0.20725200 -1.21234315
  N -2.30634542 -0.99557628 -1.79572217
  O -2.61923885  1.23248849 -1.63925456
  C -0.67881725  1.63522436  0.23071232
  C -1.49798345  2.87167814 -0.16916730
  C -2.69769222  3.16005228  0.68355117
  O -1.05515092  3.62666808 -0.99258127
  N  0.54599019  1.51188421 -0.49314244
  C  1.10822277  0.43567713  0.31206152
  C  2.50908205  0.04145085 -0.02531341
  C  3.37063974 -0.48937159  0.92662300
  C  4.65171554 -0.86879500  0.56405435
  C  5.08213233 -0.72218671 -0.74421030
  C  4.22675471 -0.18772874 -1.69377706
  C  2.94615254  0.19301718 -1.33774165
  C  0.77615755  0.88594775  1.74290823
  O  1.30166860  0.61178949  2.78104590
  O -0.27786787  1.71239875  1.63186030
  H -3.26648398  0.04860691  0.93635386
  H -1.99644742  0.41137225  2.09627733
  H -2.96242819 -2.07356275  2.09993802
  H -0.95817994 -3.38763746  1.62723391
  H  1.69547851 -3.09633214  1.14142461
  H  0.63911265 -3.74671478 -0.12538444
  H  1.73269766 -2.40140809 -0.47853723
  H  0.19132145 -0.83098883 -1.12596075
  H -2.96258314 -1.04712746 -2.55877607
  H -2.06097721 -1.84460190 -1.31958013
  H -2.33931021  3.37301907  1.68905135
  H -3.21823695  4.02576159  0.28856421
  H -3.37029504  2.31224263  0.73140908
  H  1.08965204  2.36909942 -0.51167927
  H  3.03833441 -0.59627124  1.94645941
  H  5.31682650 -1.27908225  1.30959675
  H  6.08133598 -1.01765432 -1.02308323
  H  4.55632537 -0.06607487 -2.71534460
  H  2.27553184  0.61633407 -2.07204479
