33
opt_min/./Product_729_opt.xyz
  C  0.66163900 -3.60969800 -0.17868500
  O  0.85778907 -2.31808582  0.37506099
  C -0.03464955 -1.36067780  0.15473613
  C -1.24498818 -1.29014794 -0.45407144
 Br -2.24056497 -2.61936353 -1.35160111
  C -1.71388433  0.06814533 -0.27971560
  C -3.01570491  0.58438133 -0.78781827
  O -3.15234161  1.87867016 -0.51328194
  C -4.35185985  2.51249129 -0.93770562
  O -3.83134473 -0.08252648 -1.37202854
  N -0.89576394  0.81115526  0.37147552
  C  0.26368744  0.02893445  0.70376207
  C  0.44868277 -0.00448028  2.22711159
  C  1.50693550  0.63220606  0.06218210
  C  2.71520124 -0.04912898  0.08529890
  C  3.84274397  0.52002351 -0.48129261
  C  3.77454942  1.77125665 -1.06838428
  C  2.57123643  2.45375509 -1.08649442
  C  1.44054098  1.88860675 -0.52383789
  H  1.55315169 -4.17679374  0.08561662
  H  0.56023373 -3.56544954 -1.26424828
  H -0.22288334 -4.08736062  0.24836300
  H -4.67915305  3.16254018 -0.12649072
  H -4.14312128  3.10916461 -1.82838679
  H -5.11279090  1.76385501 -1.16627880
  H  0.70097667  0.99220657  2.57888537
  H -0.47563443 -0.32853993  2.70167697
  H  1.24861274 -0.69633313  2.47724869
  H  2.77683168 -1.02639849  0.53700367
  H  4.77888551 -0.01883047 -0.46092739
  H  4.65620324  2.21249001 -1.50921214
  H  2.51004303  3.43209246 -1.53974983
  H  0.49830073  2.41412560 -0.52774544
