41
opt_min/./Product_1744_opt.xyz
  C -1.03002885 -0.68769302  1.86456107
  C  0.13723006 -0.75052835  0.87590559
 Br  0.41022979 -2.73539638  0.56616822
  C -0.22791880 -0.14910450 -0.43481848
  C  0.46103062  0.52539990 -1.39749741
  C  1.86853525  1.02331104 -1.61446386
  C  1.95772153  2.31444023 -0.95306810
  N  1.97739864  3.32371713 -0.41860135
  C  1.99398847  1.28187045 -3.05233104
  N  2.19217321  1.45968383 -4.16204955
  C  3.03802687  0.08024237 -1.24435007
  C  3.53385030  0.19855179  0.19694907
  C  2.77619455 -0.65748990  1.20377871
  C  1.37326200 -0.15925484  1.57789712
  N -0.39711897  0.89501278 -2.42874141
  N -1.55027081  0.50329047 -2.24862312
  C -1.62771099 -0.25480591 -1.00055330
  C -2.71182645  0.49358630 -0.23192569
  O -2.18641333  1.62634844  0.22629680
  C -3.05767519  2.56347144  0.85463029
  O -3.85771683  0.16533568 -0.11568254
  C -1.91746608 -1.70236980 -1.54097614
  C -3.28674059 -2.24325803 -1.34717924
  O -1.03942008 -2.26230966 -2.12769709
  H -1.94373528 -1.11236865  1.45416635
  H -0.77946780 -1.24996969  2.76183774
  H -1.21901788  0.34659019  2.14768590
  H  2.73315146 -0.94281764 -1.47208962
  H  3.86941995  0.34381686 -1.90207250
  H  4.57671754 -0.11906304  0.21207421
  H  3.50122139  1.24390723  0.51171947
  H  2.72851243 -1.68128934  0.83457292
  H  3.36601963 -0.66636381  2.12087481
  H  1.23868517 -0.38066527  2.63730782
  H  1.32323159  0.92660312  1.45767493
  H -4.08202251  2.19122512  0.84161640
  H -2.71791432  2.70399086  1.88067186
  H -2.98794387  3.50241701  0.30851274
  H -3.29412599 -3.28615322 -1.65397537
  H -3.97027994 -1.67112953 -1.97281015
  H -3.62825570 -2.14304599 -0.32167601
