59
opt_min/./Product_2507_opt.xyz
  C  2.42140200 -2.31177400  0.57828800
  C  1.00884808 -1.98633436  0.98557142
  O  0.57205032 -2.38909187  2.03644751
  C  0.19860129 -1.12601852  0.01544527
  C -1.32371182 -0.95745392  0.34340189
  F -1.71555125 -1.47491577  1.55592952
  C -2.02792750 -1.72645399 -0.78801860
  C -1.70944309 -3.22072857 -0.63526458
  C -0.24061234 -3.31621154 -1.09798021
  C  0.13173176 -1.84781444 -1.36167540
  C -1.16915235 -1.34318104 -1.98749463
  C -1.56027276  0.58341964  0.26470870
  C -1.70610047  1.45407625  1.56166597
  N -2.20096875  0.88027351  2.66677940
  C -2.51954798  1.69210077  3.82251539
  O -1.43886394  2.63038993  1.48583236
  C -2.88406451  0.94264870 -0.41955852
  O -3.95371242  0.65230217  0.05464998
  O -2.69587966  1.61635251 -1.53519879
  C -3.84464177  2.13377079 -2.19868034
  O -0.48033875  1.06470197 -0.49798474
  C  0.69325529  0.36196050 -0.09243115
  C  1.14787816  1.06618640  1.22511955
  O  1.69023975  2.14401163  1.15918114
  N  0.88386063  0.45414154  2.39885444
  C  1.20120560  1.13054409  3.63993324
  C  1.77531921  0.59129566 -1.12924335
  C  3.11852216  0.48704181 -0.78921360
  C  4.10327446  0.69355586 -1.73868432
  C  3.76244310  1.02546224 -3.03801331
  C  2.42841696  1.17367951 -3.37287155
  C  1.44214146  0.96344509 -2.42540738
  H  2.60759938 -2.19798088 -0.48214085
  H  3.08173079 -1.64279517  1.12723769
  H  2.65611372 -3.32429488  0.90299483
  H -3.09302956 -1.51273855 -0.84151598
  H -2.36887303 -3.80245817 -1.27834395
  H -1.84096737 -3.56108776  0.39010864
  H  0.38889416 -3.78527189 -0.34478383
  H -0.14870641 -3.89730425 -2.01595349
  H  1.02253827 -1.71090899 -1.97068927
  H -1.43069718 -1.91258220 -2.87905686
  H -1.18086925 -0.28461408 -2.21908713
  H -2.44203478 -0.09366129  2.71409792
  H -3.49121816  2.17593552  3.69967266
  H -1.76242278  2.46905033  3.92816166
  H -2.53743436  1.06237437  4.70847617
  H -4.74732363  1.66163644 -1.80720932
  H -3.88443048  3.21062397 -2.03069789
  H -3.72857660  1.92560291 -3.26111174
  H  0.30961177 -0.36946112  2.46492264
  H  2.22529216  0.90450985  3.94561893
  H  0.51268455  0.80791858  4.41655626
  H  1.11705223  2.20665651  3.48249477
  H  3.40579643  0.27619125  0.22866824
  H  5.14178231  0.60745135 -1.45600073
  H  4.53214902  1.19058660 -3.77751074
  H  2.15058928  1.46334887 -4.37560750
  H  0.40905895  1.11968121 -2.68456296
