55
opt_min/./Product_2846_opt.xyz
  C -3.55139000  2.59122400 -1.38410000
  O -2.76706320  1.71948397 -0.57744347
  C -2.67287120  0.46083515 -0.97435024
  O -3.24840107 -0.00979206 -1.91980125
  C -1.83067482 -0.35947437  0.03289958
  C -1.71563710 -1.80864703 -0.46920096
  C -0.46340484  0.28649186  0.03615712
  C  0.33629530  0.94502936  0.89406546
  C  0.25434318  1.24997910  2.34835822
 Br  0.16713142  3.23361054  2.52910542
 Br  1.92373413  0.70002841  3.31726299
  C -0.85100524  0.68479535  3.22666423
  C -1.00319534 -0.82757967  3.02562139
  C -2.37279449 -1.18011324  2.45703122
  C -2.75690501 -0.31141809  1.26588098
  C  1.56212097  1.49122447  0.16659453
  C  2.90668766  0.91337491  0.55457164
  C  3.13797652 -0.45303711  0.43460733
  C  4.38885889 -0.97690238  0.69823294
  C  5.42716213 -0.13963693  1.07072762
  C  5.20984619  1.22303224  1.17521524
  C  3.95787739  1.74795679  0.91056279
  N  1.27858386  1.18410344 -1.21189435
  C  2.27207361  1.29028480 -2.23822839
  C  0.20050098  0.25463605 -1.34054802
  C -0.61262913  0.72777671 -2.55896976
  C -0.73474670 -0.25395748 -3.69280054
  O -0.96707387  1.87391074 -2.66882868
  H -3.64962926  3.51449997 -0.81965822
  H -3.03467598  2.77035010 -2.32738631
  H -4.52907532  2.14579288 -1.57908193
  H -0.79528494 -2.27355338 -0.12411561
  H -1.75465372 -1.83693989 -1.55420593
  H -2.55360091 -2.39839380 -0.10756739
  H -0.54507457  0.87942015  4.25790632
  H -1.78295861  1.22073173  3.06884732
  H -0.87012185 -1.34620001  3.97520258
  H -0.22736047 -1.18466453  2.34881987
  H -2.38500964 -2.23399732  2.18161306
  H -3.12814420 -1.03138282  3.23239673
  H -3.74121033 -0.63884311  0.91539251
  H -2.86844893  0.72837634  1.56949599
  H  1.60422466  2.58615429  0.29671207
  H  2.32556078 -1.10900086  0.15371794
  H  4.55463293 -2.04080870  0.61330181
  H  6.40384186 -0.54988911  1.28080131
  H  6.01712399  1.88023506  1.46178220
  H  3.78870277  2.81258429  0.99575353
  H  3.13277610  1.83114900 -1.85168885
  H  2.61587558  0.30336585 -2.58334119
  H  1.87591623  1.84185209 -3.09663815
  H  0.54886812 -0.78023936 -1.54614398
  H -0.79770734 -1.28286612 -3.35392696
  H  0.15967295 -0.14961598 -4.30879748
  H -1.59976883 -0.00582662 -4.30182209
