38
opt_min/./Product_221_opt.xyz
  C -0.12470809 -0.26511686  2.07637802
  C -0.18116813 -0.13066016  0.56235080
  C -1.25356326 -1.02819023 -0.14444221
  C -1.87808585 -2.00362060  0.71921272
  N -2.36712397 -2.79965018  1.37949092
  C -2.23856031  0.00735004 -0.73522412
  C -2.92338900  0.75380163  0.41553273
  C -1.84890499  1.76432139  0.86230288
  C -0.61301124  1.28940846  0.09253370
  C -1.24700602  1.03631694 -1.27573544
  N -0.55125793 -1.79274745 -1.18147092
  N  0.76065041 -1.18850983 -1.37775833
  C  1.15879093 -0.59547502 -0.09488926
  C  2.09923244  0.60941438 -0.29642052
  N  2.32248657  0.91824121 -1.58638870
  C  3.18966083  2.00493445 -1.98503335
  O  2.60106041  1.19389745  0.64021085
  C  1.94476332 -1.62556770  0.73094754
  H  0.05402702 -1.29350831  2.37273259
  H -1.05230659  0.04511407  2.54546099
  H  0.68031012  0.36474695  2.44810142
  H -2.93788351 -0.43481394 -1.44811293
  H -3.19667520  0.05839070  1.21086261
  H -3.83224645  1.24845368  0.07868358
  H -2.10292926  2.76875091  0.52366798
  H -1.71661485  1.82020156  1.93860400
  H  0.20936757  2.00232125  0.10918928
  H -0.55163259  0.64902052 -2.01628701
  H -1.74076137  1.91682729 -1.67970672
  H -1.04763951 -1.70848318 -2.06782459
  H  1.39129732 -1.96486438 -1.58393087
  H  1.84984613  0.36788703 -2.28759319
  H  3.12707120  2.79070469 -1.23300559
  H  2.87201430  2.38934486 -2.95100247
  H  4.22964883  1.67852101 -2.05001722
  H  2.81352848 -1.94111500  0.15536477
  H  1.31978753 -2.49209918  0.93692394
  H  2.30278735 -1.20432382  1.66368344
