43
opt_min/./Product_4567_opt.xyz
  C -3.11554700  0.71877800  0.12208400
  C -3.59051514 -0.69508253 -0.00389436
  C -2.83117125 -1.57804327 -0.64446849
  N -1.55413831 -1.30881497 -1.07688300
  C -1.11480346 -1.85280461 -2.33764170
  C -0.79601396 -0.18971422 -0.56905963
  C -1.60551492  0.74283189  0.37564539
  C -1.00275851  2.16005028  0.31257392
  N -1.43022556  2.96415328 -0.69461463
  O -0.16396574  2.54562320  1.09828902
  N -1.33949497  0.13927241  1.68275032
  N  0.04746209 -0.20978067  1.64327720
  C  0.86734176  0.07168323  2.76992604
  C  0.42818675 -0.65090245  0.32234195
  C  0.57550695 -2.18641791  0.33848623
  C  1.75119070 -0.00138493 -0.09078070
  C  2.94303731 -0.56579384  0.37227845
  C  4.17478120 -0.00823786  0.08452523
  C  4.25772643  1.13702728 -0.68731654
  C  3.09116465  1.70749745 -1.15792345
  C  1.85859523  1.14743813 -0.86285039
  H -3.35664427  1.24324955 -0.80963274
  H -3.61885700  1.22723606  0.94658466
  H -4.55602335 -0.96362003  0.38364207
  H -3.16938319 -2.58593604 -0.84514320
  H -0.18029490 -2.40770054 -2.23640156
  H -1.87344406 -2.52760868 -2.72802556
  H -0.95314072 -1.05293102 -3.07087390
  H -0.44101123  0.37491136 -1.43761058
  H -2.29946603  2.82492036 -1.17553056
  H -1.04235820  3.89669192 -0.70324331
  H -1.45931770  0.83057201  2.42788687
  H  0.67883570  1.09007423  3.13400116
  H  1.91434391  0.01578135  2.48206758
  H  0.68542966 -0.63726744  3.59177562
  H -0.40316551 -2.65542556  0.34353332
  H  1.08353261 -2.48898782  1.24926574
  H  1.14363547 -2.54575217 -0.51560870
  H  2.92057424 -1.46699145  0.96351578
  H  5.07203582 -0.47449017  0.46577832
  H  5.21621527  1.57743266 -0.91977878
  H  3.13338962  2.60259972 -1.76220554
  H  0.98930242  1.65812366 -1.24686868
