37
opt_min/./Product_3883_opt.xyz
  C -0.34754788 -2.55279512 -1.02282973
  C  0.81874571 -1.67103456 -0.59662069
  C  2.13721195 -2.20714969 -1.18033205
  C  0.66445165 -0.16298099 -0.95274163
  C -0.76300853  0.31498991 -0.94355996
  C -1.32273210  1.03927965  0.02333144
  C -2.70687967  1.48557786  0.04608879
  C -3.55053690  1.27935851 -1.17505467
  C -3.19690923  2.04836966  1.14962560
  C  1.43958264  0.45385961  0.17756952
  C  1.99931696  1.83679762  0.09690987
  N  2.67189583  2.19232616  1.20659960
  C  3.28701638  3.48880851  1.35278068
  O  1.87978633  2.53250267 -0.89247774
  N  1.58529897 -0.27671194  1.20549948
  C  0.95370483 -1.56382229  0.95797372
  C -0.32615393 -1.60380448  1.63279567
  N -1.33488870 -1.64763198  2.16864688
  H -0.37517225 -2.64056606 -2.10740069
  H -0.23166899 -3.54859889 -0.59651799
  H -1.29708824 -2.14770195 -0.68121394
  H  2.68412635 -2.80517477 -0.45292910
  H  1.93974616 -2.83875564 -2.04396365
  H  2.79158807 -1.39795912 -1.49810060
  H  1.09407855  0.08118538 -1.92726864
  H -1.33306367  0.02397751 -1.81419074
  H -0.74034617  1.32160974  0.89152753
  H -3.03657292  1.64830105 -2.06139574
  H -4.49861561  1.80208400 -1.07712696
  H -3.75644888  0.21839926 -1.31464149
  H -2.59535047  2.18460052  2.03231454
  H -4.21952178  2.37935990  1.21641535
  H  2.67605663  1.53583473  1.97190455
  H  4.16077924  3.57257492  0.70169795
  H  3.59104627  3.63366488  2.38524244
  H  2.57650466  4.26524128  1.06142239
  H  1.57229344 -2.35945766  1.39156663
