72
opt_min/./Product_3024_opt.xyz
  C  2.33724700 -2.48878400 -2.53971400
  O  1.64397782 -1.82743431 -1.49234715
  C  2.23491816 -1.83341423 -0.29289965
  O  3.23240402 -2.45212894 -0.03736876
  C  1.48759474 -0.97059266  0.71014193
  C -0.08058411 -1.10561074  0.76805785
  C -0.76485234 -2.29056295  0.11572123
  C -2.15217610 -2.25593720 -0.01030365
  C -2.86320763 -3.31606702 -0.54033380
  C -2.20552318 -4.46627250 -0.93731669
  C -0.83828191 -4.54986313 -0.74901613
  C -0.13105379 -3.48655931 -0.21426174
  C -0.31959470 -1.27783166  2.30726684
  C  0.07181951 -2.69478889  2.74951472
  C  1.60092049 -2.68962757  2.57475157
  C  1.90370689 -1.23948421  2.17536899
  C  0.81849454 -0.48267741  2.93829089
  C -0.58388974  0.29746867  0.24757224
  C -1.70659982  0.93298207  1.12421476
  C -3.13224521  0.95336762  0.61870464
  O -1.42724858  1.46615213  2.16425623
  C -0.94675545  0.45800835 -1.22844880
  C -1.28604858  1.76317015 -1.60046099
  C -1.57427376  2.08712402 -2.91100165
  C -1.52438969  1.10829926 -3.89015459
  C -1.17431752 -0.18038228 -3.53709557
  C -0.88460474 -0.50685278 -2.22033713
  O  0.50898130  1.18630724  0.48068458
  C  1.75175835  0.53156112  0.34247247
  C  2.35330330  0.76694273 -1.06617619
  N  1.79801692  1.80208853 -1.70843695
  C  2.25247537  2.26356669 -2.99351782
  O  3.30911728  0.14560293 -1.48641053
  C  2.78763123  1.24354481  1.20217474
  C  2.45211018  2.40050231  1.89219260
  C  3.40865818  3.07246760  2.63339204
  C  4.70909249  2.60350302  2.68158118
  C  5.05151867  1.45955204  1.97936836
  C  4.10020695  0.78268154  1.23882581
  H  2.11624181 -3.55874334 -2.51456150
  H  1.98202340 -2.04970474 -3.46882157
  H  3.40973972 -2.32836410 -2.42506774
  H -2.68827097 -1.38743358  0.32141963
  H -3.93691772 -3.24400948 -0.63341733
  H -2.75313817 -5.29472009 -1.36071871
  H -0.31122936 -5.45702158 -1.00694136
  H  0.92236964 -3.62186395 -0.04248840
  H -1.33234891 -1.01429092  2.60570030
  H -0.19768616 -2.81256555  3.80052304
  H -0.42473217 -3.48666737  2.19451061
  H  2.10886273 -2.92603777  3.50923112
  H  1.95020567 -3.39945436  1.82947858
  H  2.93238572 -0.95997808  2.38002532
  H  0.77575341  0.58143630  2.74021759
  H  0.88182961 -0.63951558  4.01372730
  H -3.76904526  0.47445080  1.36219481
  H -3.44828984  1.99498001  0.56572096
  H -3.26836243  0.49529237 -0.35439881
  H -1.31453545  2.53481168 -0.84278489
  H -1.83534343  3.10341878 -3.16800316
  H -1.75013569  1.35312051 -4.91739946
  H -1.12090713 -0.95125892 -4.29154537
  H -0.60013598 -1.51677841 -1.99323862
  H  1.03015957  2.28140452 -1.26189364
  H  2.97538768  1.54012165 -3.36700396
  H  1.41088565  2.33608410 -3.68373962
  H  2.73622299  3.23943601 -2.90766147
  H  1.43838979  2.76826764  1.85614529
  H  3.13329551  3.96732173  3.17197153
  H  5.45491149  3.12853740  3.26005303
  H  6.06646458  1.09177939  2.00510670
  H  4.37533359 -0.09754222  0.67852986
