25
opt_min/./Product_3340_opt.xyz
  C  0.05094400  2.57119700  0.07181600
  C -0.32582891  1.35558983 -0.77701215
  C -0.05538783  0.16635209  0.16616206
  C  1.18452347 -0.66560366 -0.25637436
  O  1.54913381 -0.73186492 -1.40822943
  N  1.79196425 -1.24987401  0.78507934
  C  2.87896120 -2.18334108  0.63464593
  C -1.19681512 -0.84464399  0.18066884
  O -2.13610405 -0.82400926 -0.56707707
  O -1.02637660 -1.76399267  1.13322448
  C -2.04548019 -2.75083980  1.23008355
  N  0.14767943  0.70698741  1.49214056
  C  0.19799647  1.96671328  1.43453499
  H  1.01526310  2.99636670 -0.22562187
  H -0.68299823  3.37467092  0.04085970
  H -1.38285294  1.36375448 -1.04713957
  H  0.26149618  1.24928743 -1.68701313
  H  1.35702414 -1.13593084  1.68954807
  H  3.68117878 -1.94319596  1.33232366
  H  3.25112118 -2.10869334 -0.38532499
  H  2.53797641 -3.20600905  0.81605495
  H -1.73352467 -3.44447107  2.00670216
  H -2.15789263 -3.26696753  0.27413773
  H -2.99642949 -2.28616320  1.49767321
  H  0.36447993  2.53283381  2.33648388
