39
opt_min/./Product_2247_opt.xyz
  C -0.89302312  1.41679306 -1.94232490
  O -1.53072537  1.27353926 -0.68369021
  C -1.28879233  0.13247934  0.07817536
  O -1.45713114 -1.06488685 -0.60667541
  C -2.65331210 -1.32898100 -1.33532163
  C -2.18719843  0.27390403  1.33735264
 Br -1.99088606  2.08262702  2.05693490
 Br -4.09310690  0.09697710  1.08675289
  C -1.60040571 -0.76123522  2.29037676
  C -2.18872486 -2.06997609  2.01225835
  N -2.64311450 -3.09256125  1.78724376
  N -0.18589137 -0.82577039  1.95953644
  C  0.11400611 -0.00345142  0.78428093
  C  0.69966827  1.33428537  1.27880156
  O  0.81729854  2.23691068  0.32607585
  C  1.37070621  3.50211331  0.68079771
  O  1.06842803  1.46895114  2.41917343
  C  1.28758701 -0.63172602  0.04050834
  C  1.29138929 -1.00931158 -1.29406827
  C  2.42924523 -1.55315122 -1.86716488
  C  3.58047311 -1.72590735 -1.12343349
  C  3.58704288 -1.35447628  0.20844861
  C  2.45467793 -0.80777734  0.78484382
  H -1.15883300  0.60317389 -2.62173389
  H -1.27439873  2.36097132 -2.32898135
  H  0.19005899  1.46954856 -1.82595521
  H -3.14024013 -0.40907518 -1.66985464
  H -2.33051395 -1.91902228 -2.19676713
  H -3.34933868 -1.92176262 -0.73884847
  H -1.79104732 -0.51555200  3.34476689
  H  0.41940975 -0.54456690  2.72785398
  H  2.39827533  3.54833074  0.31718255
  H  0.76011311  4.26456822  0.19954305
  H  1.35351009  3.62094904  1.76593528
  H  0.40891839 -0.90218753 -1.89742580
  H  2.40892037 -1.84040135 -2.90833379
  H  4.46554507 -2.14527198 -1.57753958
  H  4.47655141 -1.48611190  0.80523638
  H  2.48605986 -0.51926471  1.82418376
