64
opt_min/./Product_2948_opt.xyz
  C  0.81901153  3.14342989 -1.46903792
  O  0.52209237  2.74241399 -0.14293222
  C -0.78793275  2.26852937  0.09804405
  O -1.69940872  3.04302134 -0.64851597
  C -1.81589765  4.41124002 -0.30940623
  C -1.01161756  0.81840862 -0.31952045
  C -0.37301276 -0.29605934  0.06328714
  C  0.96192123 -0.50230951  0.71563254
 Br  0.73397226 -2.02962741  1.99272556
  C  2.02624774 -0.85486388 -0.31552331
  C  3.03506831 -1.77435868 -0.07380436
  C  4.04292219 -1.97739935 -1.00003695
  C  4.06412703 -1.25754728 -2.18000974
  C  3.06677505 -0.33032513 -2.42529783
  C  2.06148241 -0.12811805 -1.50042924
  C  1.59305721  0.62489159  1.54297135
  C  0.84610432  1.13142707  2.78076230
  C  0.09121342  2.43962604  2.55976129
  C -1.10317012  2.33047318  1.61966793
  C -1.20894539 -1.51931735 -0.31486079
  C -1.95944238 -1.98906677  0.96463721
  O -2.41702340 -0.92187942  1.62718877
  C -3.19276018 -1.20581667  2.78510396
  O -2.20796444 -3.11601597  1.29130766
  C -0.44629166 -2.63662180 -1.05572363
  C -0.90192658 -4.05262061 -0.89821290
  O  0.46248028 -2.34121520 -1.79211269
  N -2.28101911 -0.98457084 -1.14269517
  C -2.73859876 -1.69389336 -2.31592964
  C -2.21183810  0.47073414 -1.19357768
  C -3.59173541  1.02083119 -0.81223335
  C -1.80843983  0.93050529 -2.51850541
  N -1.41996829  1.23845636 -3.54988814
  H  0.49966711  2.40215086 -2.20508737
  H  1.90185136  3.25330300 -1.49636114
  H  0.35108659  4.09753563 -1.72199998
  H -0.91170051  4.79044533  0.17029131
  H -1.98437050  4.94961438 -1.24355718
  H -2.67594570  4.57665346  0.34860791
  H  3.04676868 -2.35538397  0.83658145
  H  4.81085671 -2.70789518 -0.79320675
  H  4.84586781 -1.42340355 -2.90600227
  H  3.06065524  0.23622778 -3.34470824
  H  1.27561826  0.57534684 -1.71631836
  H  2.56403769  0.23104268  1.85729776
  H  1.78402178  1.46611671  0.87815736
  H  1.58901758  1.32019922  3.55898244
  H  0.16397237  0.37091168  3.16513049
  H -0.29137511  2.77566852  3.52693889
  H  0.78327618  3.19614559  2.18976744
  H -1.74784321  3.19305767  1.78460418
  H -1.68227371  1.44103304  1.87323950
  H -4.19134961 -1.53824084  2.49542769
  H -3.25081528 -0.27972968  3.35229494
  H -2.71302224 -1.99139087  3.37150324
  H -0.47107805 -4.45072740  0.02002643
  H -0.52829767 -4.63277917 -1.74030112
  H -1.97960553 -4.13619147 -0.81662706
  H -1.93071303 -2.17402978 -2.87768022
  H -3.46763484 -2.45624774 -2.02391190
  H -3.22958884 -0.99091127 -2.98705540
  H -3.66027292  2.08884387 -0.98013398
  H -3.77767664  0.80072299  0.23537605
  H -4.34103211  0.51466052 -1.41738765
