58
opt_min/./Product_1880_opt.xyz
  C -4.49384400 -0.85615700  2.64793200
  N -3.81080110 -0.30294390  1.50733107
  C -2.47575913 -0.35219225  1.35872965
  O -1.72282175 -0.84313596  2.17605414
  C -1.98261325  0.23029695 -0.00143438
  O -2.81019762  1.30892874 -0.43219585
  C -3.16661725  2.36001287  0.44533522
  C -0.51510550  0.55196779  0.19394834
  C  0.63048323 -0.17379904  0.02831747
  C  0.86102555 -1.48869231 -0.69067428
  C  0.22759509 -2.61666299  0.16226770
  C  2.35594507 -1.84338594 -0.80760363
  C  0.36261915 -1.46892893 -2.17587702
  C -0.50483681 -0.31653259 -2.68359822
  C -1.99504100 -0.52312174 -2.45825586
  C -2.31663901 -0.88569839 -1.01613890
  C  1.67013297  0.57276126  0.75667417
  C  3.08500311  0.24281182  1.00911828
  C  3.41735127 -0.55920079  2.09580507
  C  4.74437308 -0.81145451  2.39162267
  C  5.74837661 -0.25690569  1.61467206
  C  5.42125970  0.56085327  0.54695150
  C  4.09475343  0.81733596  0.24802586
  N  1.23645229  1.64543872  1.31136532
  C -0.14839400  1.78884244  0.97351626
  C -0.13359695  3.13784342  0.23154911
  C  0.44373325  3.11710233 -1.15511431
  O -0.51132081  4.14539832  0.76713039
  H -3.73548255 -1.25246314  3.32147431
  H -5.06971935 -0.08390582  3.16130022
  H -5.16457149 -1.66169938  2.34414833
  H -4.36118921  0.09268398  0.76042384
  H -3.03132052  2.10275404  1.49571448
  H -4.22374378  2.57129187  0.26899425
  H -2.60051265  3.26507458  0.21888837
  H  0.99120499 -3.05951289  0.79821688
  H -0.17758374 -3.41109564 -0.46124634
  H -0.54438248 -2.24289432  0.82788325
  H  2.81768009 -2.00065079  0.16112536
  H  2.91371909 -1.07093759 -1.33189519
  H  2.44306016 -2.77158401 -1.37120790
  H -0.15096282 -2.41077460 -2.38702941
  H  1.25682290 -1.46356881 -2.80195094
  H -0.33568084 -0.21843115 -3.75968113
  H -0.19609356  0.61988122 -2.22656300
  H -2.53408625  0.38387009 -2.73367844
  H -2.34969023 -1.33654268 -3.09658400
  H -1.80377514 -1.79908938 -0.74297699
  H -3.39167776 -1.06616679 -0.93882823
  H  2.62847628 -0.98163631  2.70094119
  H  4.99695340 -1.44032430  3.23322734
  H  6.78440705 -0.45354521  1.84856230
  H  6.20228200  1.00658650 -0.05186322
  H  3.83886083  1.46579737 -0.57764894
  H -0.72533014  1.91003335  1.89206870
  H -0.37907208  3.05967608 -1.86816911
  H  0.97815056  4.04676018 -1.33342425
  H  1.10854599  2.27218418 -1.30461696
