42
opt_min/./Product_653_opt.xyz
  C -0.02841500  3.02069400  0.27377100
  C -1.18840796  3.00654217 -0.36886294
  C -2.05246700  2.01100882  0.37658125
  O -1.56114841  2.09674647  1.70271113
  C -0.18620860  2.00969825  1.38109283
  C -0.15680510  0.59911924  0.66284087
  C -1.50826078  0.61287746 -0.08653829
  C -2.32683219 -0.60163458  0.26654991
  C -1.74917802 -1.85314962  0.04708032
  C -2.45161646 -3.00927490  0.32353007
  C -3.73744481 -2.93772786  0.83179782
  C -4.31119135 -1.70100796  1.06178248
  C -3.61326257 -0.53853065  0.77980210
  N -1.14459038  0.70915408 -1.49912302
  C -1.96154490  0.02022322 -2.47246412
  N  0.24798388  0.34977297 -1.65342895
  N  0.81487634  0.35084855 -0.34779671
  C  2.14117986  0.06964901 -0.17940469
  C  2.73933635  0.14994398  1.08116662
  C  4.07688834 -0.15686862  1.23360860
  C  4.84846643 -0.52388282  0.14582497
  C  4.26604092 -0.59019907 -1.11000698
  C  2.92645795 -0.30614103 -1.27869017
  H  0.87614971  3.55836727  0.06861967
  H -1.48544156  3.49912354 -1.27210498
  H -3.12537170  2.16309027  0.34503372
  H  0.44277201  2.09722965  2.25975046
  H -0.12261831 -0.16528862  1.45194268
  H -0.74256372 -1.91172779 -0.34345398
  H -1.98962980 -3.96963157  0.14774142
  H -4.28240606 -3.84274117  1.05085240
  H -5.31089329 -1.63480213  1.46662395
  H -4.07686601  0.41495410  0.97824232
  H -3.00035169  0.28923312 -2.29370553
  H -1.65805659  0.36798579 -3.46096874
  H -1.85918650 -1.07201065 -2.44579777
  H  0.67491827  1.10659490 -2.21119429
  H  2.15133368  0.44180245  1.93737232
  H  4.52674478 -0.09368529  2.21388114
  H  5.89539699 -0.75728771  0.27049289
  H  4.85955221 -0.87999706 -1.96519766
  H  2.47007141 -0.36206921 -2.25442307
