48
opt_min/./Product_5316_opt.xyz
  C -0.96707100 -2.02455100  1.34511400
  C -0.60326520 -0.66744705  0.75791804
  C -0.82458105  0.42034611  1.80683404
  C  0.84299125 -0.66741205  0.17861575
  C  1.79689942  0.28019049  0.82225869
  C  2.89620491 -0.11126762  1.46218391
  C  3.87160840  0.76638106  2.08967465
  C  3.66975004  2.24788494  1.97379212
  C  4.91153036  0.25310391  2.74424556
  C  0.57438277 -0.22954674 -1.30082525
  C  1.76996610  0.27400807 -2.05912953
  O  1.44320654  1.32176565 -2.82617396
  C  2.49386919  1.85749000 -3.62380459
  O  2.86865214 -0.20262019 -2.00074098
  N -0.56118278  0.65466262 -1.13575130
  C -1.42496614 -0.32056093 -0.53145876
  C -2.85357071  0.06395562 -0.33523579
  C -3.20482059  1.40347295 -0.21797497
  C -4.52705543  1.75649943 -0.01419474
  C -5.50136702  0.77702545  0.06936599
  C -5.15294947 -0.55706962 -0.05396621
  C -3.83239287 -0.91780215 -0.25476144
  O -1.32871700 -1.49290896 -1.40834870
  C -0.08443119 -1.49897523 -1.88940402
  O  0.39128808 -2.34379568 -2.58410657
  H -0.25230517 -2.29106989  2.12160303
  H -1.96561482 -1.99452597  1.77947527
  H -0.94789137 -2.80066030  0.58097239
  H -1.84864154  0.37954888  2.17164021
  H -0.65122018  1.40503798  1.38335494
  H -0.14628882  0.26351746  2.64274027
  H  1.27527257 -1.67316958  0.19128273
  H  1.55475754  1.32567837  0.70674320
  H  3.11199007 -1.16953189  1.54376625
  H  2.73482243  2.54005038  2.45336895
  H  4.48548801  2.78405783  2.45374575
  H  3.62471859  2.53839882  0.92540272
  H  5.65293494  0.87416672  3.21670505
  H  5.05735007 -0.81120735  2.82560758
  H  2.81214292  1.12155763 -4.36451379
  H  3.34526211  2.12075653 -2.99297659
  H  2.08411822  2.73986481 -4.10974807
  H -0.90415695  1.04998089 -2.00771002
  H -2.43800820  2.15976941 -0.28619939
  H -4.79359596  2.79868437  0.07674131
  H -6.53388953  1.05239871  0.22684913
  H -5.91340413 -1.32187007  0.00546958
  H -3.55143101 -1.95338273 -0.36520282
