41
opt_min/./Product_4200_opt.xyz
  C -5.94107003 -0.19634545 -0.40198011
  C -4.45477704 -0.18382681 -0.16270039
  C -4.06781148  0.41422763  1.15258101
  C -3.64836477 -0.75882959 -1.06298302
  C -2.20960867 -0.94067838 -1.11526015
  C -1.23561104 -0.25878647 -0.51436434
  C  0.23528791 -0.54162263 -0.67833010
  C  0.62669693 -0.82997497 -2.13946915
  C  1.12719243  0.61035834 -0.14866606
  C  2.26574026 -0.11662916  0.61311789
  C  3.74459634  0.28883746  0.39729329
  N  3.95676713  1.38120275 -0.36048285
  C  5.28959426  1.89294107 -0.58667493
  O  4.64152499 -0.33515579  0.91915784
  C  2.02445381  0.10683498  2.03541878
  N  1.79443629  0.27363779  3.14283250
  N  2.07991467 -1.52780016  0.24425985
  C  2.70534855 -2.51814523  1.10065047
  N  0.62247029 -1.64017996  0.21256248
  H -6.25996940 -1.12772001 -0.86480785
  H -6.22289709  0.61843021 -1.07018328
  H -6.48253309 -0.06637573  0.53146145
  H -4.57156670  1.37107890  1.28648794
  H -3.00170197  0.55823025  1.25989269
  H -4.40062336 -0.24737688  1.95397927
  H -4.14609615 -1.20000516 -1.92387735
  H -1.92642904 -1.72725987 -1.80552226
  H -1.46420796  0.55253880  0.15734983
  H  1.68539852 -1.07668136 -2.18336353
  H  0.06123558 -1.66938966 -2.53464192
  H  0.42791850  0.03862001 -2.76319901
  H  1.46206510  1.21687664 -0.98594816
  H  0.57842075  1.23614391  0.55563696
  H  3.19228650  1.87980769 -0.78176324
  H  5.99542118  1.08568531 -0.39795992
  H  5.38426805  2.23889019 -1.61438516
  H  5.51049145  2.71823059  0.09416194
  H  2.79992789 -2.19811522  2.14230225
  H  2.11053352 -3.42932171  1.07187223
  H  3.70000527 -2.72627747  0.70716379
  H  0.37617893 -2.54630714 -0.17906765
