38
opt_min/./Product_3505_opt.xyz
  C  3.64124900 -1.23628500 -0.38576000
  C  2.50268416 -0.34069990 -0.00325316
  C  2.79731560  1.13276374 -0.09009922
  C  1.31194479 -0.82528785  0.33470285
  C  0.10382777 -0.01100878  0.69349430
  C -0.97996754 -0.07575528 -0.40661627
  C -1.49442522  1.27373341 -0.82628649
  C -1.76068101  1.42872216 -2.29677986
  C -1.69637667  2.27656855  0.01637880
  C -2.08735725 -1.00247086  0.22739920
  C -3.50260702 -0.42994957  0.17209268
  C -2.07390696 -2.38198570 -0.43347679
  N -1.72366761 -1.16739808  1.61863039
  C -0.60414685 -0.64749365  1.87101454
  C  0.02430397 -0.66961106  3.21731493
  H  3.39816738 -2.28613481 -0.23824137
  H  4.52442185 -0.98936659  0.20295051
  H  3.89171018 -1.07825010 -1.43615010
  H  2.29783483  1.56928399 -0.95615036
  H  3.86714607  1.30174253 -0.18779566
  H  2.44647115  1.66147498  0.79401790
  H  1.16377709 -1.89937619  0.34778784
  H  0.40145407  1.01250291  0.91113592
  H -0.57265912 -0.57472468 -1.28967696
  H -2.49432267  2.20886438 -2.48452585
  H -0.83604751  1.69806871 -2.81244940
  H -2.11991968  0.49662002 -2.72723013
  H -1.51667453  2.19683483  1.07451258
  H -2.07618702  3.22672811 -0.32463592
  H -3.81619913 -0.27103837 -0.85615390
  H -4.17987211 -1.13702054  0.64715120
  H -3.55405927  0.51342939  0.70945134
  H -1.07376016 -2.80998065 -0.41032582
  H -2.73987199 -3.05051122  0.10957144
  H -2.40478441 -2.31298053 -1.46859489
  H -0.59639190 -1.23451670  3.90881245
  H  1.01595387 -1.11695739  3.15914674
  H  0.13852830  0.34978960  3.58668279
