33
opt_min/./Product_3998_opt.xyz
  O  0.35296200  2.21442100  2.38858900
  C  0.44711881  2.42416617  1.04006186
  O  0.83514121  3.49073801  0.66787389
  C -0.23253268  1.40103955  0.16326809
  C -1.02421776  0.33931400  0.93325531
  C -0.21439110 -0.09900769  2.13855080
  O  0.34520821  0.89128606  2.86257039
  O -0.05293320 -1.20493284  2.55878689
  C -1.29625479 -0.72127940 -0.16384786
  C -1.49898699 -2.14444104  0.35102339
  C -2.54832625 -0.29891164 -0.96585414
  N -0.07949511 -0.67243274 -0.97465947
  C  0.69795922  0.51589338 -0.70796293
  C  1.90510433  0.15742145  0.17706499
  O  2.38410778 -1.04035670 -0.06851378
  C  3.47447850 -1.47279521  0.74182125
  O  2.35197356  0.93880989  0.98279858
  C  1.24241748  1.22107017 -1.95705203
  H -0.89632542  1.95246270 -0.50952503
  H -1.96232520  0.72581587  1.34838654
  H -1.82415400 -2.77944378 -0.46940124
  H -2.24974245 -2.16474000  1.13552509
  H -0.57000661 -2.53966632  0.74616608
  H -2.42173380 -0.54246424 -2.01871699
  H -2.75178341  0.76670787 -0.89115644
  H -3.42382657 -0.83238592 -0.60572284
  H -0.25705640 -0.84222649 -1.95398642
  H  4.18150831 -0.65551816  0.89415310
  H  3.09558037 -1.80534496  1.71009756
  H  3.94048265 -2.29895931  0.21139247
  H  1.20145220  0.55047015 -2.81232135
  H  2.27635718  1.52308318 -1.81167157
  H  0.66570366  2.11586178 -2.17705461
