53
opt_min/./Product_2276_opt.xyz
  C -2.97167673  2.52399099 -2.93115832
  N -2.67036699  1.87573908 -1.67709496
  C -1.62792306  1.04361917 -1.54967494
  O -0.83894674  0.81326182 -2.43590411
  C -1.47003116  0.43440523 -0.11762966
  C -2.80627082 -0.25114956  0.27771649
  O -3.77393581 -0.29761231 -0.45168489
  N -2.81996405 -0.70576043  1.54286949
  C -3.99277789 -1.30138578  2.13552192
  C -0.40812336 -0.61181231 -0.23206208
  C  0.94686838 -0.58780137 -0.22482653
  C  1.98597278  0.48812351 -0.02706757
  C  3.37894542 -0.14589201 -0.29559388
  O  3.98737371 -0.03937684 -1.31897746
  O  3.81755354 -0.80945157  0.77550823
  C  5.08257046 -1.45750407  0.66916476
  C  1.88782284  1.61394199 -1.07176484
  F  0.83967898  2.43453369 -0.90509475
  F  1.82886340  1.16549902 -2.31536231
  F  2.96416924  2.42065702 -0.98389089
  C  2.06289341  1.03500485  1.41561349
  C  1.03012732  2.02107387  1.95050982
  C -0.42824157  1.59707031  2.10816574
  C -1.34545941  1.62620290  0.87965006
  C  1.38044112 -1.95793604 -0.49974844
  N  0.43386706 -2.78693883 -0.66803874
  C -0.79788432 -2.04438231 -0.60829423
  C -1.42156369 -2.08457253 -2.03304680
  C -1.72336073 -2.79084196  0.21730758
  N -2.42074147 -3.47965633  0.80574594
  H -2.22483268  2.20888117 -3.65778690
  H -3.96493583  2.23702136 -3.27809492
  H -2.92717911  3.60881795 -2.81728350
  H -3.37428935  1.92095883 -0.95907725
  H -1.97211507 -0.70290957  2.08523035
  H -4.72196266 -1.45946393  1.34318171
  H -4.41551643 -0.63595340  2.89164712
  H -3.74001595 -2.25952272  2.58654378
  H  5.63245397 -1.24561635  1.58408517
  H  5.62393125 -1.08310875 -0.20068331
  H  4.92178599 -2.53254368  0.57241661
  H  2.10014682  0.16532532  2.07596309
  H  3.02677953  1.54789683  1.49514825
  H  1.06973639  2.95848232  1.39442051
  H  1.38042308  2.24037283  2.96504100
  H -0.85307071  2.37445485  2.75343110
  H -0.49801750  0.65694267  2.66106585
  H -1.12265623  2.54225239  0.33052694
  H -2.35572560  1.74690082  1.28640486
  H  2.39891141 -2.28842768 -0.58812600
  H -2.45436502 -1.74649700 -1.99473243
  H -1.38671153 -3.11094315 -2.38916226
  H -0.84605457 -1.44346304 -2.69470466
