46
opt_min/./Product_4778_opt.xyz
  C -0.12808600 -0.95914500  2.92264200
  C -0.32608383 -0.75737081  1.41905877
  C  0.04977920 -2.05014645  0.70041353
  C  0.49867606  0.48125954  0.94770015
  C  1.36095666  0.19855423 -0.24517406
  C  2.66690710 -0.04398768 -0.16102421
  C  3.54444628 -0.34373330 -1.28085903
  C  2.92439645 -0.55851131 -2.62833758
  C  4.86309811 -0.40281526 -1.10090527
  N -0.51296383  1.47445296  0.65892986
  C -0.41586162  2.70520598  0.07496626
  N  0.85905701  3.04854796 -0.28921308
  C  1.13225990  4.32857924 -0.88956091
  O -1.38042094  3.40556177 -0.14660918
  O -1.74736483  1.09833851  1.23163509
  C -1.79474673 -0.30884945  1.14462097
  C -2.36085385 -0.84476361 -0.14535380
  C -2.17214523 -0.20623876 -1.36248630
  C -2.68128642 -0.75284909 -2.52853923
  C -3.37890563 -1.94649520 -2.49192614
  C -3.58547309 -2.58576717 -1.28039059
  C -3.08269011 -2.03373091 -0.11683855
  H -0.36016836 -0.04242863  3.46023450
  H -0.78553373 -1.75311523  3.27074460
  H  0.89899704 -1.24996533  3.13225093
  H  1.09127096 -2.28404819  0.89093066
  H -0.56860383 -2.86151589  1.07750608
  H -0.10555713 -1.98231175 -0.37209321
  H  1.13074953  0.81194448  1.79047926
  H  0.82670709  0.18780431 -1.18390791
  H  3.15440723 -0.00896672  0.80667737
  H  3.67237208 -0.90369945 -3.33715274
  H  2.12687190 -1.29602860 -2.56967698
  H  2.50330579  0.37500207 -3.00136032
  H  5.32392672 -0.24221284 -0.14085044
  H  5.54037571 -0.61637583 -1.90893454
  H  1.63976114  2.48350492 -0.00409887
  H  1.72454402  4.95598624 -0.21742847
  H  0.17801162  4.81474654 -1.08234620
  H  1.66816069  4.20552209 -1.83306996
  H -2.44940073 -0.62879084  1.96352337
  H -1.65875492  0.74264265 -1.40723177
  H -2.53356680 -0.24479266 -3.46920484
  H -3.77203913 -2.37515219 -3.40207940
  H -4.14418079 -3.50902142 -1.24246497
  H -3.25757695 -2.53410824  0.82595858
