50
opt_min/./Product_5188_opt.xyz
  C -0.19117200  0.59919300  1.87188600
  C -0.25389800 -0.50326879  0.82361216
  C  0.27553642 -1.79842384  1.44681711
  C  0.56223992 -0.10100528 -0.43138553
  C  2.03813446 -0.19807591 -0.29957432
  C  2.84200023  0.86457714 -0.29417118
  C  4.29120943  0.83947315 -0.16611976
  C  4.97544485 -0.48562397 -0.00330629
  C  4.98243796  1.97764531 -0.19795917
  C -0.03181480 -1.05116186 -1.49092811
  C  0.13869543 -0.45651621 -2.88227817
  C  1.52904480 -0.59013920 -3.45597573
  O -0.75169212  0.09641610 -3.47248017
  O -1.38626173 -1.21854085 -1.14419299
  C -1.65796882 -0.73210812  0.17129185
  C -2.53803008 -1.73881486  0.92098771
  C -3.37459927 -2.63863011  0.06123186
  O -2.61702656 -1.73351185  2.12600945
  C -2.50718541  0.54019366  0.10588645
  C -3.16309806  1.02400552  1.23337202
  C -3.92181540  2.17830237  1.16367966
  C -4.04394619  2.86173501 -0.03327156
  C -3.41014620  2.37480132 -1.16152074
  C -2.65126199  1.21912970 -1.09733953
  H -0.56241706  1.54381212  1.48116675
  H -0.78339084  0.32538080  2.74193830
  H  0.84541600  0.73340435  2.18179486
  H  1.30844137 -1.66481587  1.76108743
  H  0.21773069 -2.63345540  0.74960676
  H -0.31385992 -2.05362447  2.32449522
  H  0.27615751  0.92677468 -0.69217798
  H  2.44118841 -1.19625249 -0.20611997
  H  2.40604617  1.85337564 -0.39037482
  H  6.04760595 -0.34776194  0.11080622
  H  4.59554884 -1.00292246  0.87648040
  H  4.79441049 -1.11586328 -0.87481057
  H  4.49774482  2.93223188 -0.31424427
  H  6.05457609  1.99502728 -0.10777328
  H  0.48161387 -2.02614340 -1.45949361
  H  1.46022064 -1.04178524 -4.44531479
  H  1.94274835  0.40946177 -3.58449820
  H  2.18654674 -1.17349355 -2.81950797
  H -4.38187748 -2.21882353  0.02337986
  H -3.44466762 -3.62168224  0.52510804
  H -2.97691811 -2.70066758 -0.94617967
  H -3.09247985  0.49201264  2.16881891
  H -4.42297259  2.53959638  2.04973695
  H -4.63765675  3.76407870 -0.08561592
  H -3.50503105  2.89317777 -2.10359435
  H -2.17723117  0.84125479 -1.98880954
