60
opt_min/./Product_5838_opt.xyz
  C -0.45381500  2.62759500  0.20445200
  C -0.14465909  1.16154169  0.54464018
  C  0.00613178  1.06001057  2.05886778
  C  1.16894761  0.78491960 -0.21989095
  C  2.41341894  0.63087609  0.59903715
  C  3.42275238 -0.19505697  0.33214365
  C  4.64268350 -0.30057385  1.11896083
  C  4.80468984  0.60493101  2.30413226
  C  5.57600564 -1.19326889  0.78809231
  C  0.77767247 -0.44325135 -1.06780314
  C  1.05381836 -1.76086676 -0.29191649
  C  1.39495725 -2.96866509 -1.12347891
  O  0.92406871 -1.81433710  0.90103673
  C  1.44639220 -0.43873185 -2.44512438
  C  0.54192390 -0.75579414 -3.60164668
  O  2.61354252 -0.16795387 -2.58875246
  O -0.61608584 -0.28462323 -1.27579356
  C -1.23711861  0.19994596 -0.08303893
  C -2.50342862  0.93349425 -0.51382100
  C -3.34766716  1.53180140  0.41417238
  C -4.50379507  2.17509381  0.01049492
  C -4.84584765  2.22526348 -1.32969522
  C -4.01964997  1.62094321 -2.26053419
  C -2.86040291  0.98263237 -1.85510501
  C -1.75688106 -1.01129617  0.70725204
  C -1.94446957 -2.19286329 -0.00638440
  C -2.47524908 -3.32654597  0.57723016
  C -2.86154778 -3.30717324  1.90449422
  C -2.73576113 -2.12884251  2.61454122
  C -2.20695187 -0.99351189  2.02162757
  H -1.33458093  2.99483700  0.72417634
  H -0.62280426  2.75427637 -0.86382585
  H  0.39768488  3.23665637  0.50331612
  H  0.79445481  1.72748552  2.39821981
  H  0.23959902  0.04404885  2.36283211
  H -0.90232468  1.39777037  2.55117883
  H  1.37136352  1.59181203 -0.94264512
  H  2.49731041  1.31369747  1.42907883
  H  3.37553295 -0.85592479 -0.52096976
  H  3.99594865  0.43793357  3.01516956
  H  5.74995528  0.41383502  2.80321562
  H  4.77675251  1.64798630  1.99151986
  H  6.48867287 -1.30280440  1.34934073
  H  5.45904929 -1.84337020 -0.06277603
  H  1.75615546 -3.76287129 -0.47476137
  H  0.49459990 -3.31717937 -1.62637853
  H  2.13748303 -2.73181183 -1.87993907
  H  0.00781503  0.16122329 -3.85339520
  H -0.19447073 -1.50982973 -3.34718741
  H  1.13295536 -1.05056231 -4.46434293
  H -3.11208654  1.50822929  1.46572282
  H -5.13709161  2.64142413  0.75143394
  H -5.74798803  2.72822074 -1.64263485
  H -4.27642150  1.64436237 -3.30951390
  H -2.22643185  0.50767305 -2.58676837
  H -1.68942271 -2.21911699 -1.05469639
  H -2.59152097 -4.22340959 -0.01468751
  H -3.27129626 -4.18960450  2.37107357
  H -3.05543987 -2.08305605  3.64577533
  H -2.16244352 -0.10330179  2.62150409
