45
opt_min/./Product_4878_opt.xyz
  C -1.62294486 -0.27333855 -1.70455805
  C -1.58935537  1.10700734 -2.28345071
  C -0.97452419  2.11552648 -1.67157854
  N -0.29942359  1.99805367 -0.47961164
  C -0.08998303  3.19720107  0.29284196
  C -0.13468017  0.70008832  0.08621792
  C -1.32047252 -0.25632442 -0.20069344
  C -2.52849301  0.22555747  0.60289388
  N -3.66585294 -0.50145897  0.46593784
  O -2.47301584  1.16067126  1.37255466
  C -0.74991255 -1.61217117  0.29893616
  C -0.89672656 -1.75158743  1.82997822
  C -1.35907136 -2.85474506 -0.36104572
  N  0.65679027 -1.54282589 -0.11839152
  C  1.07637548 -0.16137819 -0.39504814
  C  1.30894910  0.00788304 -1.82482781
  N  1.58603955  0.15036742 -2.92588182
  C  2.44032567  0.11497865  0.21859591
  C  3.44903158 -0.81643586 -0.02263840
  C  4.71387746 -0.63713659  0.50440910
  C  4.99331895  0.48012488  1.27390699
  C  4.00046160  1.41478196  1.50457991
  C  2.73166376  1.23638162  0.97697920
  H -0.88650239 -0.90064637 -2.21357650
  H -2.60378518 -0.71983607 -1.89646769
  H -2.05546002  1.25389401 -3.24294724
  H -0.98076941  3.11109192 -2.08603255
  H  0.76991692  3.76374277 -0.08408965
  H -0.97627180  3.83587442  0.24858455
  H  0.07087226  2.94899400  1.34066950
  H -0.03915199  0.79787386  1.17423970
  H -3.79415500 -1.12960522 -0.30886508
  H -4.49847229 -0.12846072  0.89736208
  H -1.05909835 -0.79369587  2.31825055
  H  0.00074114 -2.19829519  2.25880005
  H -1.73821631 -2.39651382  2.07475018
  H -0.98179105 -3.74085377  0.14500329
  H -1.06724271 -2.92068194 -1.40499826
  H -2.44252366 -2.85191805 -0.28484158
  H  1.26483210 -1.96723013  0.57216488
  H  3.23750795 -1.67905418 -0.63784614
  H  5.48520372 -1.36792377  0.30932472
  H  5.98107746  0.62404057  1.68370308
  H  4.20957317  2.29311279  2.09763361
  H  1.97839597  1.97853678  1.16466648
