49
opt_min/./Product_1856_opt.xyz
  C  6.24075416 -0.62590209  1.02913330
  N  4.91748188 -0.06054947  0.91626009
  C  3.84835054 -0.81472094  0.56873312
  O  3.92853753 -1.98250194  0.24032701
  C  2.55333429 -0.10737978  0.64814122
  C  2.12006106  1.12783013  0.35346631
  C  2.68026169  2.23944741 -0.43694736
  C  3.85946260  1.92716644 -1.32666331
  O  2.17612925  3.33825567 -0.40660373
  C  0.65729001  1.14164540  0.80536858
  C -0.08501533  0.34497711 -0.29763579
  C  0.43640871 -1.08130931 -0.01238941
  C  1.33276174 -0.81615431  1.22645772
  O  0.66309101  0.23177023  1.88736191
  C -0.82331490 -1.91148603  0.26967787
  C -1.10562191 -2.05597413  1.69183181
  N -1.37398793 -2.20280845  2.79379826
  N -1.85465347 -1.16922858 -0.43223687
  C -3.17590762 -1.75160198 -0.45506441
  C -1.63007916  0.23535170 -0.16498407
  C -2.15279299  0.76483916  1.19669923
  O -3.09568539 -0.04600633  1.66987517
  C -3.63618464  0.24189735  2.95361113
  O -1.80384098  1.78005413  1.72435224
  C -2.26985468  1.12574704 -1.23361149
  O -2.46916718  2.30128364 -1.10277673
  O -2.58067881  0.43803312 -2.32923907
  C -3.16432249  1.18977396 -3.38727893
  H  6.31974362 -1.44351648  0.31487538
  H  6.98467726  0.13484306  0.80220874
  H  6.42195460 -1.01946545  2.03240318
  H  4.76125346  0.85880712  1.29717546
  H  3.71836297  2.42905999 -2.28064328
  H  4.75879663  2.34720616 -0.87862435
  H  3.99583167  0.86228027 -1.47559573
  H  0.23306521  2.10425930  1.06350679
  H  0.17430602  0.70457539 -1.29424289
  H  1.00706202 -1.51543384 -0.83199282
  H  1.51411042 -1.66732393  1.87454122
  H -0.74807350 -2.92377991 -0.14776041
  H -3.45703417 -2.20772359  0.50004369
  H -3.20030064 -2.51368603 -1.23713969
  H -3.90782366 -0.98804972 -0.69627245
  H -3.29684328  1.22377676  3.28673725
  H -4.72145757  0.21964720  2.86883178
  H -3.29030654 -0.53107826  3.64049951
  H -3.35466137  0.48316983 -4.19032146
  H -2.48224022  1.97550484 -3.71707196
  H -4.09564050  1.65298612 -3.05437080
