45
opt_min/./Product_2159_opt.xyz
  C  0.20202009  4.40660715 -0.90862118
  N -0.00990759  2.99191517 -0.70103433
  C -1.10323065  2.39232766 -1.20245706
  O -2.01576715  3.00334271 -1.71816057
  C -1.20213187  0.87244323 -0.99116951
  C  0.03475729 -0.01109497 -1.27633726
 Br  1.57236327  0.83407944 -2.14112071
  C -0.52690243 -0.94916794 -2.41024789
  C -1.57192073 -1.85961052 -1.81144486
  C -2.63109404 -1.08491270 -1.62380387
  C -2.19565678  0.29098239 -2.07879419
  O -1.30088386 -0.01568882 -3.12957955
  C  0.35697253 -0.70055980  0.04324293
  C  1.35179543  0.06498779  0.96329431
  N  1.49906151 -0.53956025  2.15314488
  C  2.36921174  0.01786504  3.16786171
  O  1.87545932  1.12195091  0.67742787
  C  0.97280521 -2.08279960 -0.12353703
  O  0.68345077 -3.02342081  0.57283272
  O  1.90706158 -2.08350037 -1.05968672
  C  2.60927585 -3.30124298 -1.28900583
  N -0.94983663 -0.76995358  0.67616784
  C -1.61888735  0.51508587  0.46766342
  C -1.27923680  1.56348592  1.54652597
  C -3.06288064  0.36500926  0.58512326
  N -4.18767748  0.33743992  0.78394904
  H  0.56573927  4.60544807 -1.91916989
  H  0.92994292  4.76458867 -0.18564972
  H -0.74630468  4.92631717 -0.77599465
  H  0.79262982  2.46167968 -0.38675552
  H  0.24007639 -1.40108295 -3.03306387
  H -1.43014394 -2.90214567 -1.61055712
  H -3.59182995 -1.31787547 -1.21468297
  H -2.95518961  1.00424284 -2.38397040
  H  1.15700020 -1.48181505  2.27614754
  H  1.98019219  0.98408717  3.49351504
  H  3.37122845  0.17549219  2.76464969
  H  2.41569833 -0.65931379  4.01452034
  H  1.95392187 -4.15368336 -1.10299678
  H  2.93703852 -3.27843481 -2.32529230
  H  3.47369454 -3.35751320 -0.62535659
  H -0.95189337 -1.07636025  1.64061567
  H -1.91490348  2.43950023  1.43907043
  H -1.46436605  1.12603072  2.52828877
  H -0.24281207  1.87694990  1.49457354
