55
opt_min/./Product_5593_opt.xyz
  C -0.25245100 -0.11029600  1.95956700
  C -0.35079828 -0.77508522  0.57063652
  C -0.21881894 -2.29199196  0.66726443
  C  0.71484353 -0.19282212 -0.41481207
  C  2.08763585 -0.10554742  0.17027034
  C  2.98541307 -1.08396912  0.06198501
  C  4.32888382 -1.12057418  0.61519756
  C  4.89994693  0.07113625  1.33419049
  C  5.06120372 -2.22804463  0.47987648
  N  0.14721846  1.08919229 -0.78543732
  C  0.81480662  2.21442532 -1.18253241
  C  0.24427364  3.48574195 -1.05381376
  C  0.93085857  4.60694161 -1.47256786
  C  2.19184701  4.49406982 -2.03224402
  C  2.75440988  3.23797696 -2.19082405
  C  2.07462630  2.10747003 -1.78857144
  N -1.25231124  1.12685887 -0.51667043
  C -1.62459778 -0.24428942 -0.17656306
  C -1.90260744 -1.06200628 -1.46076599
  C -1.86820517 -0.32285626 -2.77206598
  O -2.14867074 -2.23993772 -1.39649404
  C -2.95350177 -0.24098495  0.54912185
  C -3.95061477  0.57666467  0.02059873
  C -5.20169731  0.63271194  0.60588696
  C -5.47853338 -0.13126422  1.72657457
  C -4.49488006 -0.94692863  2.25430714
  C -3.23925021 -1.00368460  1.67217671
  H -0.31062228 -0.85585549  2.74817599
  H  0.69179933  0.41362740  2.07904442
  H -1.05652822  0.60504386  2.12893866
  H -1.17364831 -2.75490455  0.90019880
  H  0.11853099 -2.71195567 -0.27821161
  H  0.51142027 -2.56097820  1.42889077
  H  0.74622449 -0.86193533 -1.29488635
  H  2.31751517  0.79942963  0.71288533
  H  2.71086845 -1.97512468 -0.49073711
  H  5.07503916 -0.17144394  2.38317098
  H  4.24586462  0.93503818  1.28721282
  H  5.85472448  0.34864770  0.88876225
  H  4.68568811 -3.10176987 -0.02545552
  H  6.06108808 -2.29753830  0.87335881
  H -0.74231622  3.59324381 -0.62883089
  H  0.47870775  5.58160378 -1.35765897
  H  2.72270724  5.37606889 -2.35750252
  H  3.72741659  3.13693480 -2.64966943
  H  2.51331682  1.13348887 -1.93845139
  H -1.44149605  1.74211661  0.27986670
  H -2.85258894 -0.40851233 -3.23369172
  H -1.15507025 -0.81738423 -3.43199462
  H -1.60495103  0.72076289 -2.65133044
  H -3.73552403  1.17614312 -0.85151161
  H -5.96217571  1.27230084  0.18256335
  H -6.45555671 -0.09491774  2.18518334
  H -4.70102255 -1.54735892  3.12835069
  H -2.49606314 -1.65027587  2.10540590
