63
opt_min/./Product_2760_opt.xyz
  C  1.56315200 -3.22664500  2.44088600
  O  1.22603284 -2.51117281  1.26126307
  C  0.28834710 -1.57084410  1.39173291
  O -0.27390839 -1.35121817  2.42423088
  C  0.09865105 -0.86266680  0.03169391
  C  0.25278742 -2.06623751 -0.91104953
  O  1.23382976 -2.36400404 -1.52311575
  O -0.83886383 -2.83976899 -0.83761539
  C -0.79947356 -4.09204046 -1.51127431
  C -1.19470959  0.00430929 -0.07062083
  C -1.40273616  0.46136242 -1.53759847
  C -1.61128399 -0.59842675 -2.57304342
  O -1.46347021  1.63011184 -1.82360161
  C -2.47216101 -0.74214860  0.34341215
  C -3.78285370 -0.10063605 -0.06422510
  O -2.46019146 -1.78650476  0.93298738
  C -0.84378675  1.26087768  0.81271677
  C -1.29564955  2.65860721  0.28441996
  N -2.61234909  2.92603331  0.34232273
  C -3.14116538  4.21627330 -0.03074339
  O -0.46299128  3.49880059  0.00489774
  C -1.34931793  1.20063041  2.27225938
  N  0.59108752  1.25016741  0.75684837
  C  1.19213464  0.24524065 -0.06891245
  C  1.36321139  0.76638031 -1.53625845
  O  1.40642850  0.04419456 -2.51535448
  N  1.44731711  2.09636989 -1.61986950
  C  1.61151869  2.76724621 -2.88554805
  C  2.54442897 -0.18362275  0.46694050
  C  3.48415054 -0.78235093 -0.36243201
  C  4.71099706 -1.17258885  0.14559925
  C  5.01474064 -0.97084624  1.48038580
  C  4.07880558 -0.38030727  2.31188129
  C  2.85097991  0.01133110  1.80969149
  H  0.66021274 -3.60680533  2.92241456
  H  2.21141406 -4.03882239  2.12386118
  H  2.09162807 -2.56950240  3.13477163
  H -1.60969992 -4.11852638 -2.24051363
  H  0.16322709 -4.21247552 -2.01019293
  H -0.94503169 -4.87695164 -0.76941812
  H -2.14959173 -1.45470109 -2.18154691
  H -0.62819299 -0.91473816 -2.92752727
  H -2.13823559 -0.16148472 -3.41957939
  H -4.31017744  0.22526012  0.83265797
  H -3.66066591  0.72816651 -0.75220805
  H -4.40556660 -0.86753853 -0.52258237
  H -3.25168222  2.23413882  0.68803503
  H -4.13446709  4.09808195 -0.45953246
  H -3.19646432  4.88639324  0.83185469
  H -2.47129100  4.65385115 -0.76890530
  H -2.25902088  0.61660944  2.36585087
  H -1.53260149  2.20707774  2.64584010
  H -0.59878760  0.73683291  2.90236664
  H  1.10911525  2.02972039  1.11471562
  H  1.30835309  2.68690406 -0.81090935
  H  1.03696233  3.69053413 -2.87451486
  H  1.24574397  2.11257108 -3.67567579
  H  2.66504100  2.99077136 -3.07284289
  H  3.24233382 -0.96427603 -1.39620081
  H  5.43259870 -1.63998033 -0.50800250
  H  5.97334289 -1.27586683  1.87421261
  H  4.30213728 -0.22615355  3.35838336
  H  2.12130724  0.45784376  2.46884075
