51
opt_min/./Product_1778_opt.xyz
  C  1.01704900 -0.78916900 -0.93512000
  C -0.42266939 -1.04432513 -0.45820858
  O -0.48143464 -2.01964157  0.54648595
  C -0.30389573 -3.37318703  0.19516073
  O -1.34885842 -1.28665032 -1.49398248
  C -0.94417405 -2.00666311 -2.64610589
  C -0.84368175  0.31018709  0.22824711
  C -1.71838171  1.05803490 -0.78880827
  O -2.90854734  1.15888280 -0.77755507
  O -0.95359782  1.65573768 -1.73328453
  C -1.67033399  2.35424422 -2.74696744
  C -1.64396500  0.07186631  1.49325585
  C -1.18665384  0.54046990  2.71507357
  C -1.93486444  0.32908970  3.86062938
  C -3.13821150 -0.35004610  3.79346344
  C -3.58657401 -0.83341478  2.57518172
  C -2.84223802 -0.62791514  1.42822428
  N  0.39146375  1.01754546  0.49788537
  C  1.54673270  0.27502325  0.04289673
  C  2.60828554  1.13197602 -0.67399386
  N  2.08217559  2.01142704 -1.54845294
  C  2.90542004  2.86952275 -2.36693730
  O  3.79483882  1.00490444 -0.48033539
  C  2.21767904 -0.34437878  1.27969827
  O  2.16454168  0.15090950  2.36882199
  O  2.87799174 -1.46124195  0.98195836
  C  3.61292809 -2.08748956  2.02707810
  H  1.62744349 -1.68781033 -0.88650612
  H  1.01896979 -0.41044871 -1.95773684
  H -0.25715419 -3.90402154  1.14478533
  H  0.62484078 -3.54941818 -0.35811389
  H -1.15423519 -3.74749957 -0.38513688
  H -1.80146410 -2.60421623 -2.95769510
  H -0.68828682 -1.30677021 -3.45380860
  H -0.09556309 -2.66471371 -2.46361730
  H -2.13297926  3.24987162 -2.33093380
  H -0.94230618  2.62040368 -3.51282240
  H -2.45180942  1.71384477 -3.15848453
  H -0.23604129  1.04662708  2.76610951
  H -1.57265107  0.69700728  4.80951933
  H -3.72168296 -0.51166117  4.68868206
  H -4.51927297 -1.37569377  2.51796320
  H -3.18481303 -1.01275442  0.48123774
  H  0.37767361  1.98827297  0.21595997
  H  1.08706683  2.00696885 -1.72655496
  H  2.79436189  2.62500488 -3.42561055
  H  2.63439281  3.91503558 -2.20920096
  H  3.94170935  2.71433134 -2.07168349
  H  3.23266551 -3.10185557  2.15271211
  H  3.49231732 -1.52339185  2.95299866
  H  4.66174435 -2.11295354  1.73246884
