39
opt_min/./Product_4956_opt.xyz
  C -0.96078093 -0.76026589 -1.24986713
  O -1.01152074 -1.16085993 -2.40075881
  C -1.54421192  0.48331329 -0.79277884
  O -2.32232433  1.26538751 -1.58317391
  C -2.50374711  1.00142856 -2.95666437
  C -1.36761021  0.97441149  0.48964831
  O -1.93577316  2.15887402  0.74079389
  C -1.63964501  2.85127450  1.93995852
  C -0.65855558  0.19887363  1.51455078
  O -0.85906279  0.30474446  2.70447163
  C  0.33817545 -0.79728109  0.96381074
  C  0.89426363 -1.64942147  2.11632037
  C -0.14584953 -1.61117501 -0.23681938
  C -0.90956877 -2.90349757  0.02332777
  N  1.15227669 -1.82772646 -0.93137967
  C  1.33743267 -2.67226846 -1.92258406
  N  1.51912895 -3.48074832 -2.71545573
  N  1.98835606 -0.79880331 -0.68674404
  C  1.54445169 -0.12640871  0.30936037
  C  2.07951477  1.16799286  0.75672924
  N  3.30957217  1.45049735  0.29614944
  C  3.98297188  2.69060185  0.58004414
  O  1.40542939  1.91341139  1.45102333
  H -3.10697114  0.10574571 -3.12023026
  H -1.55982161  0.89897672 -3.49154602
  H -3.04055219  1.87338794 -3.32836869
  H -0.56184804  2.94706506  2.09066088
  H -2.08883901  3.83363101  1.80223623
  H -2.07620041  2.35808431  2.80969097
  H  1.55011895 -2.43281418  1.74239523
  H  0.08273837 -2.08949492  2.69028781
  H  1.45546060 -1.00465129  2.78896011
  H -0.68643910 -3.62246459 -0.76209073
  H -1.97820867 -2.70527756  0.00550999
  H -0.65293714 -3.34032408  0.98186263
  H  3.75488904  0.77447031 -0.30352574
  H  4.97080734  2.50162133  0.99993348
  H  3.37861455  3.23948522  1.29881480
  H  4.09044034  3.28841912 -0.32781637
