39
opt_min/./Product_3826_opt.xyz
  C -2.15402200 -1.59701600  0.91880600
  C -2.73776786 -0.23490109  0.70586097
  C -4.02329799  0.01389783  1.44024621
  C -2.18666944  0.71605363 -0.03888677
  C -0.90336928  0.61509831 -0.81195935
  C  0.35310069  0.46219851  0.08235654
  C  1.11506885  1.76413171  0.17558734
  C  0.73713863  2.66104805  1.31760046
  C  2.02319107  2.10777318 -0.72618143
  N  1.07725925 -0.62005591 -0.56592154
  C  2.31422054 -1.11182335 -0.25147673
  O  2.90745769 -1.89331444 -0.96543164
  N  2.79692855 -0.70565798  0.95976772
  C  4.06501308 -1.20584835  1.43208732
  N  0.49120919 -0.97858626 -1.79179881
  N -0.86829296 -0.59017731 -1.64733583
  C -1.51715905 -0.45958065 -2.92293443
  H -1.50135109 -1.87814836  0.10060409
  H -2.95041135 -2.33049407  1.00849413
  H -1.58837141 -1.61359509  1.85075224
  H -4.30608412  1.06150831  1.40966132
  H -3.93713983 -0.29850634  2.47977184
  H -4.82156551 -0.57335114  0.98610302
  H -2.67597976  1.67536819 -0.10902481
  H -0.79589540  1.52804490 -1.43059130
  H  0.03971733  0.13719276  1.08355406
  H  0.34704188  2.08820097  2.15595847
  H -0.04085922  3.35723635  1.00236221
  H  1.59126804  3.24459097  1.65053586
  H  2.54426434  3.04608608 -0.67622006
  H  2.29712835  1.45995631 -1.54132919
  H  2.30128018 -0.03508627  1.51723586
  H  4.90003533 -0.73832152  0.90537800
  H  4.11225700 -2.27988824  1.25146978
  H  4.15949925 -1.00598683  2.49632867
  H  0.94741603 -0.46680658 -2.57204675
  H -2.59341890 -0.51911775 -2.76622723
  H -1.20978726 -1.29085911 -3.55254800
  H -1.28057053  0.49039467 -3.42923559
