35
opt_min/./Product_456_opt.xyz
  C -2.49459600  0.42281100  2.24877400
  O -1.88345880 -0.54318508  1.40967361
  C -1.19185354 -0.13843829  0.27282750
  C  0.22723158  0.47694483  0.50878751
 Cl  0.74430822  0.44524618  2.21443046
  C  0.01770790  1.94066947 -0.01578585
  C  0.02032048  1.77051061 -1.52492473
  C -1.14580251  1.20731364 -1.80595329
  C -1.86007257  1.07728131 -0.48109164
  O -1.34502083  2.16971924  0.26149512
  N  1.08592805 -0.32662105 -0.28078132
  C  2.38780444 -0.02142726 -0.53179016
  O  3.14319758 -0.65961514 -1.22125235
  O  2.72603221  1.10588504  0.13303213
  C  4.07552692  1.53400008  0.00282065
  N  0.37969970 -1.34568796 -1.02005259
  C  1.02089694 -2.64378000 -0.89457860
  N -1.00339526 -1.27988083 -0.60271845
  C -1.61073444 -2.51545929 -0.13750110
  H -3.21100369  1.04508387  1.71109199
  H -1.75618161  1.06678094  2.72924577
  H -3.01449316 -0.16763992  3.00109325
  H  0.66020757  2.69188585  0.42964311
  H  0.84242847  2.02359608 -2.16207242
  H -1.53231299  0.85976840 -2.74095489
  H -2.94462344  1.05869131 -0.49592069
  H  4.67983634  0.73464453 -0.42847457
  H  4.43490493  1.79141752  0.99796279
  H  4.10834383  2.41103723 -0.64613446
  H  0.97050630 -3.08631534  0.10489762
  H  2.06294337 -2.49392704 -1.16699102
  H  0.56765265 -3.30838509 -1.62554437
  H -2.66855944 -2.30258999 -0.00457580
  H -1.21240502 -2.89072846  0.80865486
  H -1.50172576 -3.26160273 -0.91945884
