36
opt_min/./Product_434_opt.xyz
  C  5.26218500  1.58484500  0.44162300
  O  4.32323148  0.59458120  0.04450070
  C  3.11280161  1.02233591 -0.31950794
  O  2.76444661  2.17921062 -0.32423920
  C  2.23700389 -0.08525285 -0.71506777
  C  2.35549878 -1.41536682 -0.65911737
  F  3.33257041 -2.17093660 -0.19082005
  C  1.03591531 -1.98924168 -1.14267525
  C  0.03881623 -1.74595330  0.01686914
  C -0.10402897 -0.20996440 -0.04195548
  C  0.81985496  0.11513097 -1.23978679
  O  0.64408629 -1.00936137 -2.08432470
  C -1.61443079 -0.00104848 -0.31023366
  C -2.17702326  1.18199651  0.48480785
  O -2.91540327  1.06464806  1.43290064
  N -1.70610507  2.37180041  0.04415167
  C -2.05883562  3.62151500  0.67618945
  O -2.24113263 -1.19176356  0.08314443
  C -1.38834183 -2.25079307 -0.30174667
  C -1.81072968 -3.52565446  0.42291155
  H  5.99547872  1.08157303  1.06733781
  H  5.74628007  2.01059659 -0.43983504
  H  4.75993656  2.38213434  0.99360753
  H  1.05305135 -2.98664007 -1.57145464
  H  0.39614128 -2.11905121  0.97524208
  H  0.20406030  0.29868742  0.87115391
  H  0.64236403  1.04543263 -1.76970629
  H -1.76680717  0.16645954 -1.39351439
  H -1.07559922  2.40932343 -0.73990591
  H -1.15940603  4.18919016  0.91557142
  H -2.70206819  4.21895970  0.02634350
  H -2.59979043  3.38274157  1.59040804
  H -1.45382608 -2.37818165 -1.39724661
  H -2.15775065 -4.28032317 -0.27597560
  H -2.62638721 -3.27262314  1.09512136
  H -0.99326726 -3.93897108  1.00727092
