46
opt_min/./Product_1054_opt.xyz
  C -3.78894200  2.57708700  1.47813900
  O -2.72662828  2.10088180  0.66216568
  C -2.06993569  1.00335155  1.08925889
  O -2.35079788  0.41605349  2.09148914
  C -0.97861720  0.68458613  0.07489950
  C -0.08793981 -0.56532655  0.39125952
  F -0.46901130 -1.21666547  1.54554668
  C -0.40031224 -1.47787996 -0.80655815
  C -1.86503642 -1.93771065 -0.67691607
  C -2.67863518 -0.70140299 -1.10119796
  C -1.58760828  0.35544499 -1.30320990
  C -0.48738554 -0.47752565 -1.95902603
  C  1.34316351  0.01102613  0.67876811
  C  2.02381183 -0.66050016  1.89389863
  C  2.14859056 -2.15665187  1.84061765
  O  2.50310986  0.00805625  2.76900013
  C  2.49868453 -0.04578105 -0.33706598
  C  3.55518005  0.83837005 -0.10071965
  C  4.66603886  0.88526854 -0.91970559
  C  4.77027905  0.02787442 -2.00170944
  C  3.76090007 -0.88893588 -2.22074047
  C  2.64775821 -0.93435795 -1.39530558
  N  0.98980742  1.37460306  1.03647426
  C  0.02941196  1.84600252  0.07944281
  H -4.15159130  1.77617360  2.12486825
  H -4.57756951  2.92155156  0.81191514
  H -3.43179458  3.40496486  2.09311036
  H  0.26928580 -2.32856557 -0.90012638
  H -2.04350702 -2.77928778 -1.34642591
  H -2.09692136 -2.25419612  0.33707063
  H -3.40784010 -0.40934906 -0.34868642
  H -3.21214648 -0.87658436 -2.03561976
  H -1.91848139  1.24453369 -1.83595976
  H  0.43214200  0.07656169 -2.13384003
  H -0.81340586 -0.93789505 -2.88902817
  H  1.35074342 -2.57907304  2.44886666
  H  2.06122303 -2.53929189  0.82947992
  H  3.09901959 -2.45443759  2.27742474
  H  3.53107472  1.49064601  0.75934922
  H  5.45587644  1.58868643 -0.70395283
  H  5.63255853  0.06136789 -2.64919619
  H  3.83239908 -1.58857100 -3.04015702
  H  1.91400382 -1.69017039 -1.60784372
  H  1.77178373  1.98923740  1.20541760
  H  0.44605728  2.00387764 -0.93237426
  H -0.41476993  2.78273610  0.41664547
