32
opt_min/./Product_3433_opt.xyz
  C -2.05475200  2.12696800  0.61305500
  C -1.27235517  0.82774787  0.75439549
  C  0.25787891  0.95748707  0.69556146
  C  0.74782874  1.97408743 -0.33317212
  C  0.64384564 -0.48749885  0.28109249
  C  2.04444046 -0.58388835 -0.31330778
  N  3.02668539 -0.54558235  0.61117094
  C  4.42512747 -0.55661005  0.25082436
  O  2.24904543 -0.67186187 -1.50401771
  N -0.34917249 -0.88699572 -0.69744198
  C -1.60020117 -0.21695442 -0.33659545
  C -2.57526615 -1.28681982  0.16994232
  C -2.87855096 -2.35871648 -0.83849268
  O -3.05915377 -1.26379739  1.27232095
  H -1.61845877  2.90164963  1.23993360
  H -2.06808445  2.47801665 -0.41696663
  H -3.08269935  1.97058728  0.93356384
  H -1.54208531  0.37525302  1.71481144
  H  0.67527477  1.22039318  1.67121983
  H  1.83565290  2.01484633 -0.32501489
  H  0.43030062  1.70365869 -1.33828323
  H  0.36749814  2.96685895 -0.10823442
  H  0.55669825 -1.15670882  1.14911421
  H  2.78863351 -0.44791274  1.58502673
  H  4.83644382  0.45777384  0.23492139
  H  4.98805043 -1.16418366  0.95912345
  H  4.50967189 -0.98143965 -0.74894203
  H -0.01475901 -0.63366486 -1.62305795
  H -2.06524006  0.24161385 -1.21634560
  H -3.11249301 -3.29286657 -0.33375212
  H -2.04358100 -2.49116143 -1.51932079
  H -3.75802219 -2.05246096 -1.40485511
