57
opt_min/./Product_2414_opt.xyz
  C -2.59954236 -0.71683178 -3.29716564
  N -2.42903635 -0.54670849 -1.87220714
  C -1.32307188  0.03520154 -1.35871101
  O -0.40752542  0.41964550 -2.04208966
  C -1.38848311  0.24382793  0.18355687
  C -2.37692344  1.44367586  0.14620148
  O -1.98813049  2.54462887 -0.17320603
  N -3.68231575  1.17928876  0.36452987
  C -4.68873190  2.21012836  0.25854686
  C -0.06669900  0.73440642  0.68232162
  C  1.19090712  0.43409349  0.33203390
  C  1.87074273 -0.76771129 -0.27661360
  C  2.55149233 -0.30221757 -1.58406555
  O  2.97523013 -1.10320712  0.56608728
  C  2.75935560 -1.71751276  1.81281697
  C  1.03572870 -2.02515692 -0.61170308
  C  0.09093723 -2.75293534  0.36187087
  C -1.38011108 -2.33615726  0.41052550
  C -1.77559725 -0.99029720  1.01750097
  C  2.05679459  1.50282101  1.04699861
  C  3.49158369  1.80495287  0.62248818
  O  3.50490865  2.92900510 -0.08584398
  C  4.76162855  3.36787257 -0.59267855
  O  4.45357661  1.15717410  0.91223000
  N  1.17208520  2.62824643  0.97075763
  C  0.05926918  1.95076583  1.60889145
  C -1.04722238  2.70416056  2.11507476
  N -1.86407724  3.26621525  2.68734179
  C  0.77244680  1.23962302  2.82721264
  O  0.26323149  0.79795628  3.81301264
  O  2.04044622  1.12285553  2.47140018
  H -3.02546715 -1.69800707 -3.50721484
  H -1.61868946 -0.63301352 -3.76086041
  H -3.24983772  0.05640561 -3.71275174
  H -3.22268613 -0.74726007 -1.28890747
  H -4.00039478  0.26690901  0.64221327
  H -5.14713618  2.39888118  1.23015105
  H -5.45815654  1.91710176 -0.45727418
  H -4.19326373  3.11621329 -0.08441223
  H  1.94927494  0.46539236 -2.05916792
  H  2.67372674 -1.13318948 -2.27161216
  H  3.53635273  0.08247950 -1.33961855
  H  1.85445745 -1.36705648  2.31374314
  H  3.62033111 -1.44669748  2.42273642
  H  2.72077895 -2.80937382  1.71225215
  H  1.82678601 -2.74562656 -0.84723443
  H  0.48558856 -1.83927659 -1.53298870
  H  0.51114488 -2.84275077  1.35951784
  H  0.03990980 -3.77093321 -0.04379697
  H -1.76001888 -2.40314523 -0.61100143
  H -1.90461834 -3.10298928  0.99009262
  H -1.30439059 -0.88030825  1.99782664
  H -2.84986479 -1.03940179  1.21029447
  H  5.07563363  4.25267678 -0.03743761
  H  4.61679518  3.61995638 -1.64182344
  H  5.50720511  2.57848095 -0.48292098
  H  1.50400042  3.44294316  1.48263237
