39
opt_min/./Product_984_opt.xyz
  C  4.40038905 -0.39494847  0.41481983
  O  3.00461544 -0.24815713  0.65719415
  C  2.18182987 -0.44296417 -0.36929647
  O  2.50841221 -0.81197855 -1.46345223
  C  0.74420942 -0.12353420  0.04720646
  C -0.28968353 -0.51423819 -1.03537855
  C -1.17827913 -1.52985139 -0.30993507
  C -0.32634626 -2.79499023 -0.11934236
  C  0.64836917 -2.40224230  1.01275804
  C  0.29794620 -0.92973483  1.27995180
  C -1.22239430 -0.97950231  1.11826449
  C -0.89185570  0.84052563 -1.49314879
  C -2.31450564  1.18912476 -0.97475865
  O -2.38934828  2.48823362 -0.75811929
  C -3.62842986  3.02631401 -0.30721611
  O -3.20540510  0.39521410 -0.84147883
  C -1.03509456  0.90099293 -2.93959690
  N -1.15948376  0.95071320 -4.07265148
  O  0.04350995  1.83197710 -1.10259069
  C  0.62560207  1.43501953  0.12371016
  C -0.17443661  1.89153725  1.26341857
  N -0.77569775  2.27823985  2.15360848
  C  1.90462693  2.13135031  0.25901199
  N  2.87436627  2.72385751  0.35913937
  H  4.80702525  0.56528530  0.09345249
  H  4.57185395 -1.14465774 -0.35896918
  H  4.84786903 -0.69624182  1.35822667
  H  0.22077048 -0.95859136 -1.89680219
  H -2.13773103 -1.69782488 -0.78958022
  H -0.95174549 -3.63750358  0.17068836
  H  0.20023555 -3.06498660 -1.03369532
  H  0.46013825 -2.98529777  1.91405707
  H  1.69021701 -2.55055005  0.73434277
  H  0.68535028 -0.53886746  2.21953156
  H -1.68036479 -1.68089906  1.81233363
  H -1.72499419 -0.02125300  1.21550616
  H -4.32744736  2.21908268 -0.08338521
  H -4.02886044  3.66358855 -1.09485613
  H -3.42169652  3.61452219  0.58528525
