26
opt_min/./Product_3933_opt.xyz
  C -1.92363911  0.28823187  0.46831956
  O -2.50388320  1.15232615  1.07735614
  C -2.15697546 -1.14099301  0.73337153
  C -1.39630556 -2.12206830  0.24488954
  C -0.35435720 -1.90746707 -0.77286166
  O  0.09099180 -2.80554020 -1.44229737
  C  0.10179804 -0.48020309 -0.96557643
  C -0.87536665  0.63522493 -0.58624936
  C  0.11881765  1.69899300  0.02319003
  C -0.23495255  3.07638782 -0.15484849
  N -0.52965259  4.16481097 -0.32830923
  C  0.32403019  1.15046730  1.46187503
  O  0.02915920  1.57579704  2.52251497
  O  1.01202701  0.00158118  1.23851263
  C  1.34432264 -0.00999006 -0.15037340
  C  2.66450099 -0.73979721 -0.49584884
  C  3.51171476 -1.14517129  0.66153722
  O  2.93262548 -0.90574809 -1.65007156
  O  1.39010397  1.34369399 -0.50889106
  H -2.95383986 -1.33937125  1.44012892
  H -1.57559373 -3.15693362  0.50722373
  H  0.44341649 -0.37821243 -2.00766402
  H -1.41650137  1.02307305 -1.45362356
  H  3.92562545 -2.13530335  0.47269786
  H  2.96337503 -1.12288419  1.59704760
  H  4.35196200 -0.45018607  0.71609797
