55
opt_min/./Product_2514_opt.xyz
  C -3.47106922  1.79566708 -2.73630821
  N -3.08471772  0.97417595 -1.61279011
  C -1.80553782  0.61437422 -1.42414805
  O -0.91008831  0.90123246 -2.18921704
  C -1.52984120 -0.35007680 -0.24826086
 Cl -1.66327004 -1.86579227 -1.26161537
  C -0.13328777 -0.17912809  0.25156614
  C  0.69933148 -1.09937651  0.74226381
  C  0.47550697 -2.52471383  1.18659761
  C  0.44547414 -3.45619490  0.07064756
  N  0.48034799 -4.20110377 -0.79513192
  C  1.63821017 -2.97281078  1.96061536
  N  2.48933053 -3.38755274  2.59669655
  C -0.73068540 -2.70861346  2.16638424
  C -2.11343377 -2.94989929  1.54835062
  C -3.05607457 -1.74683011  1.35746552
  C -2.46336437 -0.38501177  0.97376576
  C  2.07474710 -0.45592468  0.97494808
  C  3.20852666 -1.24408243  0.27631307
  N  2.84428085 -1.64150426 -0.96053812
  C  3.75773751 -2.33227989 -1.84109908
  O  4.29647711 -1.42343402  0.75991083
  C  2.29501145 -0.28753852  2.40130004
  N  2.36342778 -0.08090903  3.52229422
  N  1.96910236  0.87962904  0.38047074
  C  0.55467197  1.19353169  0.45486474
  C  0.09575707  2.40662194 -0.29927748
  C -1.14056853  2.95154771  0.03483377
  C -1.60627841  4.09152941 -0.59035753
  C -0.83128956  4.71540452 -1.55514617
  C  0.40921457  4.19511292 -1.87154949
  C  0.87643093  3.05193232 -1.24586081
  H -4.41913642  1.44973936 -3.14341151
  H -2.69198567  1.71939918 -3.49273873
  H -3.56127801  2.84170661 -2.43420512
  H -3.81499362  0.63041817 -1.01278483
  H -0.49251918 -3.60544658  2.74591001
  H -0.73322335 -1.86422743  2.85847536
  H -2.64426175 -3.63396616  2.21466309
  H -1.98501939 -3.48153823  0.60676295
  H -3.58914785 -1.57820291  2.29694978
  H -3.79853034 -2.03608761  0.61177994
  H -1.88851052 -0.00727151  1.82300893
  H -3.29942403  0.30469703  0.83774498
  H  1.90153625 -1.50662531 -1.29578941
  H  4.61575114 -2.64943172 -1.25081047
  H  3.26669732 -3.20327925 -2.27277100
  H  4.09603366 -1.67045595 -2.64090694
  H  2.31269248  0.85785809 -0.57495928
  H  0.37591922  1.42456371  1.52654098
  H -1.74745281  2.47352196  0.79269871
  H -2.56855916  4.49889172 -0.31701744
  H -1.18299636  5.61488106 -2.03747822
  H  1.01544490  4.67511014 -2.62303061
  H  1.85036250  2.67052549 -1.50425981
