53
opt_min/./Product_1975_opt.xyz
  C -0.36497416  2.84363204  3.44093886
  N -0.03849794  1.90293636  2.39105462
  C  0.57906447  2.36376817  1.28278852
  O  0.94350744  3.51188651  1.18756122
  C  0.97219019  1.32073277  0.17821677
  C  2.07720822  2.03901928 -0.61122041
  C -0.21148156  0.85674847 -0.75395543
  C -0.12184868  1.45678574 -2.17346654
  C -1.59534971  1.38935202 -0.31451780
  O -1.73668972  2.30931855  0.45929707
  N -2.64765456  0.83484216 -0.95251652
  C -4.00081761  1.28304450 -0.72263559
  C -0.12124086 -0.71240920 -0.80381147
  C  0.24767567 -1.15245895 -2.14889184
  N  0.61499193 -1.54050450 -3.16013171
  C -1.36014091 -1.46431281 -0.33736311
  C -2.09217691 -2.27413103 -1.19992770
  C -3.19821443 -2.96707292 -0.73742070
  C -3.58388884 -2.86366006  0.58722992
  C -2.84832836 -2.07373404  1.45527346
  C -1.74266537 -1.38366193  0.99714965
  N  1.04186463 -1.08914794 -0.00299748
  C  1.56127343  0.01264779  0.79704124
  C  3.13146864  0.00476791  0.74480280
  N  3.62232514 -0.71017372 -0.27585921
  C  5.03728116 -0.86528996 -0.50741473
  O  3.79421366  0.58909333  1.56918594
  C  1.29677612 -0.28389984  2.19551210
  N  1.13130786 -0.74708966  3.23075016
  H -0.95274013  3.66822606  3.03197087
  H -0.92864661  2.33250031  4.21543069
  H  0.55602280  3.24901741  3.85929970
  H -0.55174098  1.03994477  2.39269367
  H  2.50786351  1.41009101 -1.38695308
  H  1.68386682  2.94836299 -1.05490588
  H  2.86238930  2.34084921  0.07662092
  H -0.25075039  2.53629824 -2.11913410
  H  0.82674975  1.24587794 -2.65759206
  H -0.91306958  1.05535595 -2.80480747
  H -2.52026090  0.10362341 -1.63244914
  H -4.64808104  0.42517009 -0.54264909
  H -4.37348629  1.84808703 -1.58015823
  H -3.99137292  1.93538001  0.14900065
  H -1.80212916 -2.36718376 -2.23667687
  H -3.75587953 -3.59281921 -1.41734162
  H -4.44833048 -3.40179653  0.94424294
  H -3.13321968 -1.99752210  2.49313365
  H -1.16555280 -0.78881970  1.68858670
  H  0.88419942 -1.93301482  0.53762337
  H  2.97344234 -1.18054382 -0.89212773
  H  5.56172583 -0.25757286  0.22862512
  H  5.33362842 -1.90929804 -0.39232232
  H  5.29605941 -0.52519792 -1.51091438
