39
opt_min/./Product_5006_opt.xyz
  C  0.49739400 -1.23840100 -1.42777900
  C -0.79258855 -1.72035099 -2.00314467
  C -1.96919113 -1.31400253 -1.54503205
  N -2.11720873 -0.48679829 -0.45141263
  C -3.43788771 -0.12410130 -0.00742359
  C -1.01262699  0.02453598  0.25014065
  C  0.35457954 -0.65399556 -0.00841529
  C  0.64049061 -1.74019443  1.04470633
  N  0.82649425 -1.30549822  2.31345377
  O  0.63731978 -2.91331917  0.75890985
  C  1.26519210  0.61555535  0.03030772
  C  2.72149066  0.34611645 -0.32406383
  O  3.39646229  0.02137265  0.76895832
  C  4.77547533 -0.31116297  0.61813990
  O  3.16253707  0.38398812 -1.43599774
  O  1.17580897  1.26252856  1.31600324
  C -0.00942476  1.92005544  1.30843233
  O -0.45155924  2.52665979  2.23453164
  C -0.59939088  1.58473085 -0.05126653
  C -1.65313245  2.43428494 -0.73248415
  C -2.33561288  3.44650963  0.13574364
  O -1.90719545  2.26028701 -1.89408235
  O  0.59112851  1.47362877 -0.82397838
  H  1.21095189 -2.06514846 -1.38709453
  H  0.91282595 -0.47014119 -2.09035643
  H -0.73241931 -2.38495730 -2.84347794
  H -2.90066238 -1.63530797 -1.98145010
  H -3.41242338  0.15847634  1.04546461
  H -4.10581228 -0.97996154 -0.11590413
  H -3.84678637  0.71026688 -0.58625549
  H -1.25098616 -0.02059771  1.32661031
  H  1.12244021 -0.36241387  2.51248325
  H  1.10959998 -2.00820330  2.97783858
  H  4.88578676 -1.39067615  0.72082997
  H  5.31844409  0.19872234  1.41114308
  H  5.13032998  0.00831810 -0.36290088
  H -1.61803957  4.02806981  0.70435599
  H -2.97142121  2.92673652  0.85211438
  H -2.95172660  4.09656413 -0.47927231
