43
opt_min/./Product_4598_opt.xyz
  C  3.41837301 -0.45096768  2.15255265
  C  2.46031380 -0.06486272  1.06634174
  C  3.10468608  0.38180016 -0.21490717
  C  1.14686855 -0.13603284  1.24820079
  C  0.09377063  0.20362623  0.23603743
  C -1.08520092 -0.79879243  0.27990050
  C -1.09560369 -1.81517770 -0.83639986
  C  0.22961511 -2.42285004 -1.20925396
  C -2.20760544 -2.29580593 -1.36972894
  C -2.36161905  0.09555911  0.39514284
  C -2.98259434  0.39260283 -0.88516748
  N -3.46489298  0.78191978 -1.84722974
  C -3.32676514 -0.50291705  1.43790630
  C -4.73556906 -0.78299956  1.01211587
  O -2.92648344 -0.69808187  2.55678157
  N -1.91833808  1.39570505  0.86917549
  C -0.52853137  1.58905696  0.53908480
  C -0.40982438  2.51032105 -0.68422200
  O -1.34330127  3.44704836 -0.66922766
  C -1.39601033  4.32516092 -1.78808417
  O  0.44017427  2.39785421 -1.53059975
  H  4.11283381  0.36255481  2.35955750
  H  2.89737637 -0.70681656  3.07264907
  H  4.00915759 -1.31246896  1.83922713
  H  2.50297634  1.12325885 -0.73408356
  H  4.08349056  0.80999556 -0.00931108
  H  3.25630776 -0.46824294 -0.88210887
  H  0.76005270 -0.43023323  2.21528046
  H  0.52457278  0.24858109 -0.76414550
  H -1.00948975 -1.37174876  1.21482880
  H  0.27910044 -2.59197781 -2.28231363
  H  1.06800487 -1.80397212 -0.90897314
  H  0.33493196 -3.38832319 -0.71257105
  H -2.18207244 -3.05995590 -2.12792116
  H -3.19184407 -1.93883851 -1.12768336
  H -5.38578260 -0.79562663  1.88431688
  H -5.08701178 -0.06023760  0.28020511
  H -4.76904666 -1.77549164  0.55924784
  H -2.18202921  1.61923844  1.81723120
  H  0.00931202  2.08538455  1.35568169
  H -0.38615236  4.57062469 -2.12243262
  H -1.93386109  3.83707974 -2.60408965
  H -1.93143302  5.21206167 -1.46147688
