69
opt_min/./Product_2997_opt.xyz
  C -1.12732445 -2.90969804 -2.45931974
  O -0.69008253 -1.67860410 -1.91703840
  C -0.31374883 -1.66774017 -0.59566638
  F -1.48699978 -1.97432781  0.15063027
  C  0.04325770 -0.24327209 -0.24882971
  C  1.21519312  0.40024679 -0.25152496
  C  2.61759127  0.01293875 -0.65251686
  C  3.36295761  1.27581997 -1.15060314
  C  2.75146627  1.89889282 -2.38144461
  O  4.38797428  1.65091026 -0.65127403
  C  2.77079016 -0.90988226 -1.87637438
  C  4.19834799 -1.14690154 -2.30829620
  O  1.85250783 -1.37091334 -2.49849561
  C  3.33543347 -0.62712112  0.55560731
  C  3.05444814 -2.12110497  0.70757641
  C  1.60093291 -2.48349895  1.03638799
  C  0.68740228 -2.76279884 -0.16830374
  C  0.94367890  1.77165182  0.39055234
  C  0.97247707  1.65122665  1.95185993
  O  0.40715521  2.72218704  2.48673873
  C  0.29875058  2.74813279  3.90483420
  O  1.41560515  0.72827168  2.57817314
  C  1.78644202  2.92690823  0.16346628
  N  2.34871997  3.92282177  0.13124927
  N -0.40532721  2.01983378 -0.06708141
  C -1.10799033  0.72968895  0.02771419
  C -2.09870784  0.62517670 -1.12351277
  C -3.32466366 -0.00916372 -0.98301737
  C -4.18102425 -0.11249090 -2.06523501
  C -3.82430800  0.41527192 -3.29309774
  C -2.60042888  1.04629334 -3.43704970
  C -1.74099909  1.14684352 -2.35998565
  C -1.78953092  0.63789466  1.38147032
  C -2.79650753  1.56326196  1.65145600
  C -3.40847554  1.60270277  2.88939420
  C -3.02062630  0.71791020  3.88298927
  C -2.02294889 -0.20414975  3.62300737
  C -1.40904127 -0.24324662  2.38174887
  H -1.83497726 -3.40775552 -1.79143305
  H -1.62926464 -2.64837328 -3.38831789
  H -0.28511615 -3.57271936 -2.67512919
  H  2.42686691  1.13563294 -3.08482104
  H  1.87267197  2.48408082 -2.12066631
  H  3.47500025  2.56679248 -2.84448690
  H  4.52458941 -0.30149421 -2.91251675
  H  4.23718672 -2.03778277 -2.93226070
  H  4.88507211 -1.24563693 -1.47549939
  H  4.41010675 -0.46258929  0.45622403
  H  3.02232785 -0.11534251  1.46389693
  H  3.36461404 -2.66095108 -0.19037204
  H  3.68478700 -2.47646432  1.52635288
  H  1.62910191 -3.40003096  1.62963211
  H  1.18241932 -1.70669091  1.67470271
  H  0.06217570 -3.62614836  0.07422816
  H  1.28539400 -3.03561438 -1.03630981
  H  1.23187438  2.41113593  4.35925694
  H -0.51612164  2.09485432  4.22306836
  H  0.08920833  3.78012879  4.17331107
  H -0.87441581  2.77281263  0.42397978
  H -3.60627340 -0.43982265 -0.03427238
  H -5.13144832 -0.61259852 -1.94587099
  H -4.49495064  0.33072040 -4.13612704
  H -2.31119870  1.45479448 -4.39430047
  H -0.78423004  1.63203104 -2.46986832
  H -3.10823269  2.24870645  0.87509106
  H -4.18957905  2.32390450  3.07986884
  H -3.49599445  0.74786633  4.85247587
  H -1.71205052 -0.89863054  4.38946964
  H -0.63538346 -0.97018582  2.20065327
