30
opt_min/./Product_637_opt.xyz
  C -4.78866000 -1.68176400  0.32793400
  O -3.48253593 -1.19619280  0.60498360
  C -2.45721325 -2.00162299  0.28573214
  O -2.57716502 -3.11686266 -0.15903400
  C -1.18570655 -1.35576416  0.57285891
  C  0.05205084 -1.85739816  0.36124406
 Br  0.40455802 -3.54431265 -0.33351488
  N  1.03472316 -0.99861499  0.77916363
  C  2.39283749 -0.71700715  0.46548238
  O  2.82955298  0.38755494  0.66329395
  N  3.09716206 -1.77046397  0.01112432
  C  4.49222319 -1.63070367 -0.33863295
  O  0.38842587  0.09219551  1.41325068
  C -0.99379758  0.04936374  1.06647619
  C -1.29060489  1.06490914 -0.07355359
  N -0.88791389  2.30401427  0.23927937
  C -0.92794217  3.38849300 -0.71408399
  O -1.81015866  0.73557002 -1.11467385
  H -5.36658580 -0.84497812 -0.06370550
  H -4.73828614 -2.48945162 -0.40492256
  H -5.24101445 -2.04944728  1.25359772
  H  2.67856507 -2.67891366 -0.11976030
  H  4.79824947 -0.61466082 -0.09469837
  H  4.63773508 -1.80769024 -1.40643549
  H  5.09779327 -2.33550987  0.23184630
  H -1.56158274  0.30517655  1.96697772
  H -0.33054641  2.43532845  1.07128496
  H  0.07040065  3.60105005 -1.10832487
  H -1.58289497  3.08525617 -1.53133550
  H -1.32728961  4.28413465 -0.23921005
