86
opt_min/./Product_3207_opt.xyz
  C -3.63872700 -1.84750800 -3.13093400
  O -2.80767407 -1.80280589 -1.97231564
  C -3.29375696 -2.27714712 -0.83124120
  O -4.35442295 -2.82060030 -0.69960382
  C -2.21123493 -2.16276270  0.26074707
 Cl -3.07246951 -2.10868724  1.85942003
  C -1.57268512 -0.79511382  0.12946701
  C -0.35422590 -0.29862888 -0.15912524
  C  0.93555327 -1.10185989 -0.32769187
  C  1.37581502 -1.62922604  1.03453630
  C  0.77541109 -1.24588248  2.22892566
  C  1.24406627 -1.71631135  3.44521735
  C  2.33515904 -2.56300166  3.50131810
  C  2.96331496 -2.93009034  2.32308957
  C  2.49329494 -2.46432861  1.10956693
  C  2.09247374 -0.29121477 -0.94888792
  C  1.97874953  0.14526337 -2.26712961
  C  2.99976064  0.83041136 -2.89960289
  C  4.18795681  1.07995450 -2.23949821
  C  4.33983460  0.61416775 -0.94810545
  C  3.31147169 -0.06435052 -0.31606694
  C  0.62254748 -2.24076885 -1.36302344
  C  0.67554655 -3.69208055 -0.90934283
  C -0.17067879 -4.02688835  0.30871190
  C -1.63633476 -3.62314561  0.21350828
  C -0.43735532  1.22727722 -0.27448543
  C  0.31940090  2.09667283  0.73024585
  C -0.22083736  3.36647427  0.94414958
  C  0.34353886  4.23993922  1.85169725
  C  1.46429044  3.86502184  2.57543853
  C  2.00006985  2.60800588  2.37759284
  C  1.43129382  1.73140424  1.46568698
  C -0.23313698  1.72118530 -1.70780991
  C  0.53554620  2.83635172 -2.00807503
  C  0.59149923  3.31911982 -3.30469948
  C -0.12500120  2.70136231 -4.31316911
  C -0.89348444  1.58724002 -4.02024056
  C -0.94776711  1.10035373 -2.72807349
  O -1.81773403  1.52173006 -0.01013044
  C -2.54738190  0.37769443  0.34009816
  C -3.81473761  0.39592796 -0.56665281
  N -4.92089677 -0.15920273 -0.05817231
  C -6.17604162 -0.15848798 -0.77186539
  O -3.76695932  0.89760651 -1.67054833
  C -2.90328432  0.63480774  1.83314482
  O -3.99741095  0.60026638  2.33603021
  O -1.80261673  1.01404002  2.46719661
  C -1.90969980  1.43553902  3.81999182
  H -4.56488178 -2.37563478 -2.90196298
  H -3.84664412 -0.81650051 -3.42022011
  H -3.08730282 -2.36197696 -3.91723170
  H -0.06975296 -0.57818514  2.22830027
  H  0.74963188 -1.41094847  4.35561109
  H  2.70090188 -2.92461678  4.45054501
  H  3.82890071 -3.57586205  2.34640237
  H  3.01623998 -2.74281389  0.20793960
  H  1.09231932 -0.07779706 -2.83527871
  H  2.85846791  1.16133520 -3.91759335
  H  4.98875738  1.61320916 -2.72931439
  H  5.26834788  0.77158022 -0.41905838
  H  3.48656593 -0.39160889  0.69741642
  H  1.31175403 -2.14304453 -2.20228785
  H -0.37880657 -2.06538214 -1.75758552
  H  0.29991254 -4.28698691 -1.74874227
  H  1.69903748 -4.01789510 -0.73266932
  H -0.18817412 -5.11924941  0.37977888
  H  0.26031870 -3.65693985  1.23446882
  H -2.04357503 -4.10753346 -0.68010292
  H -2.11743183 -4.11383947  1.06106494
  H -1.09738851  3.65945394  0.38768408
  H -0.09339221  5.21782030  1.99505774
  H  1.90950073  4.54527289  3.28679843
  H  2.86730531  2.29182301  2.93912085
  H  1.86820939  0.76073015  1.35467400
  H  1.11137267  3.32433634 -1.23684098
  H  1.19550951  4.18797031 -3.52248311
  H -0.08678039  3.08544946 -5.32229525
  H -1.45623265  1.09531667 -4.80010548
  H -1.55328729  0.23657530 -2.50766948
  H -4.95211569 -0.50382501  0.88960719
  H -5.98479526  0.12765324 -1.80446319
  H -6.60973567 -1.15767307 -0.73382386
  H -6.86934600  0.55717379 -0.32562649
  H -2.94613831  1.36247988  4.15309050
  H -1.55995112  2.46633055  3.87657158
  H -1.27061922  0.79323673  4.42566838
