39
opt_min/./Product_5112_opt.xyz
  O -1.68157900 -1.58219100 -3.19943900
  C -1.06431189 -0.62756945 -3.08885969
  O -0.42533848  0.31660874 -2.99955536
  C -0.04206887 -1.87900341 -0.41912306
  C  1.14060774 -1.46129122 -0.83888826
  C  2.48773939 -3.29450833  1.39764062
  O  3.38275755 -3.23284201  0.68244690
  O  1.59982797 -3.39571190  2.10662488
  C  1.44631267 -0.12667903 -0.21856317
  C  2.66744188 -0.29033521  0.70804821
  N  3.84372756 -0.06495029  0.09840767
  C  5.11068817 -0.28395746  0.75779439
  O  2.56686823 -0.63153680  1.86858634
  O  0.28963592  0.21934735  0.50756409
  C -0.66158266 -0.84361052  0.47531962
  C -0.92917839 -1.42904990  1.88425972
  C -0.44484822 -0.57543452  3.00299519
  O -1.49252883 -2.48466895  2.00831724
  C -2.00228804 -0.36608532 -0.06345946
  C -2.20315590  0.97632557 -0.35062344
  C -3.41504147  1.40124684 -0.86613507
  C -4.43385250  0.49180200 -1.09064962
  C -4.24079462 -0.84571932 -0.78721120
  C -3.03052259 -1.27659937 -0.27503790
  H -0.55402936 -2.78819063 -0.66737381
  H  1.84994773 -1.97604196 -1.45957577
  H  1.64826481  0.65527973 -0.96589279
  H  3.86300881  0.16843541 -0.88149959
  H  5.53957688 -1.24593246  0.46896616
  H  4.92898822 -0.28762226  1.83091458
  H  5.80468571  0.51588871  0.50393134
  H -0.67788423  0.46851649  2.81428720
  H -0.86027085 -0.91470884  3.94712445
  H  0.64358175 -0.66556800  3.02393811
  H -1.40412701  1.67891798 -0.17272362
  H -3.56227749  2.44743344 -1.09042340
  H -5.37843849  0.82486822 -1.49469917
  H -5.03545117 -1.55816952 -0.95033868
  H -2.89041158 -2.31516177 -0.01968612
