39
opt_min/./Product_4088_opt.xyz
  C -0.68782500 -2.72250200 -0.27731900
  C -0.41348139 -1.32699676  0.29191343
  C  0.44308280 -1.50614055  1.54644348
  C -1.77340776 -0.65815799  0.61749000
  C -1.72488875  0.18627628  1.86074817
  O -2.14909091 -0.14769326  2.92860378
  C -2.02076438  0.20499366 -0.62705703
  C -3.02785454  1.33274651 -0.36786184
  C -2.58354590  2.72441520 -0.71372473
  O -4.12010382  1.07162255  0.06709846
  O -0.75954666  0.67437486 -1.00748486
  C  0.22850115 -0.33503082 -0.76533881
  C  0.55637145 -0.97633083 -2.11972611
  C  1.47315187  0.35327399 -0.21450492
  C  2.71235639 -0.27670283 -0.24457909
  C  3.83310260  0.34654481  0.27177412
  C  3.73973881  1.60913507  0.82670082
  C  2.51130420  2.24469446  0.85380934
  C  1.38910801  1.62435534  0.34148078
  H  0.23946974 -3.21590081 -0.55928817
  H -1.34179951 -2.68762161 -1.14639779
  H -1.16805499 -3.32701727  0.48949926
  H  1.36957207 -2.01825583  1.29204921
  H -0.09916717 -2.11601241  2.26908622
  H  0.69157251 -0.55699038  2.01553438
  H -2.55151767 -1.41204256  0.75807518
  H -1.16949205  1.13772352  1.73425532
  H -2.46634219 -0.42707800 -1.41700799
  H -2.72168071  3.37099636  0.15202225
  H -3.23097969  3.10356960 -1.50607467
  H -1.55247538  2.73900500 -1.05081893
  H -0.35577429 -1.29340582 -2.62207975
  H  1.04691357 -0.22874543 -2.74201628
  H  1.21432635 -1.83208064 -2.01841560
  H  2.81809890 -1.26514385 -0.66842852
  H  4.78608576 -0.16155622  0.23955516
  H  4.61771653  2.09303460  1.23311349
  H  2.42419164  3.23426042  1.27948595
  H  0.44110793  2.13774088  0.35739172
