41
opt_min/./Product_1060_opt.xyz
  C  3.55851395  2.67837192 -1.43765985
  O  2.48529335  2.15113874 -0.66645702
  C  2.49325030  0.83269447 -0.45800182
  O  3.35374389  0.10020793 -0.84886895
  C  1.22812585  0.44035218  0.31512398
  C  0.17733467 -0.21418012 -0.63213484
  F  0.62912228 -0.27006961 -1.93492950
  C -0.01634206 -1.60179013 -0.01580524
  C  1.30564267 -2.37186993 -0.18643348
  C  2.20518394 -1.80619068  0.92968541
  C  1.39204789 -0.60998856  1.43383183
  C -0.00258155 -1.24253256  1.47450845
  C -1.04558619  0.77131608 -0.57397708
  C -1.40067792  1.25679842 -1.90319790
  N -1.70203987  1.66606883 -2.92469029
  C -2.35272165  0.22769051 -0.01681494
  C -2.91521739  0.73276070  1.14618139
  C -4.12216181  0.23194898  1.60162370
  C -4.77613879 -0.76511964  0.89993790
  C -4.22628162 -1.25335325 -0.27388767
  C -3.02428591 -0.75331516 -0.73945154
  N -0.62329442  1.91724874  0.20920315
  C  0.51816458  1.71680165  0.72157656
  C  1.03080171  2.39444095  1.84759724
  N  1.43186071  2.77675694  2.84966255
  H  4.48776937  2.63264896 -0.86727257
  H  3.67304517  2.10401774 -2.35859630
  H  3.29299142  3.70940543 -1.65472025
  H -0.89410763 -2.13087613 -0.37791610
  H  1.73559869 -2.17827402 -1.16848146
  H  1.15346354 -3.44504640 -0.08795219
  H  2.30828202 -2.51757023  1.74997988
  H  3.19783132 -1.54929326  0.57549960
  H  1.75983917 -0.18282707  2.36690231
  H -0.79440239 -0.55792009  1.77201669
  H -0.03675277 -2.12165659  2.11430618
  H -2.41036494  1.51603063  1.69241355
  H -4.55251563  0.62924955  2.50871225
  H -5.71690164 -1.15293873  1.25823583
  H -4.74009887 -2.01756875 -0.83723416
  H -2.61204954 -1.11304620 -1.67121063
