49
opt_min/./Product_5352_opt.xyz
  C -1.11947500 -0.94072300  0.96297500
  C -0.50025954  0.21146068  0.17194786
  C -1.26472172  0.38907294 -1.14643130
  N -2.69560275  0.34480736 -1.02803335
  C -3.48893342  0.93381736 -2.07304650
  C -3.28023158 -0.15892190  0.08953452
  C -2.60557279 -0.74600364  1.09790791
  C -3.21229614 -1.27600309  2.32097891
  N -4.54932365 -1.03521745  2.51916775
  O -2.58919975 -1.94324540  3.12860340
  C -0.55256650 -0.67401544 -1.98587474
  C -1.15459580 -1.29615685 -3.19032241
  N  0.60451564 -0.94845560 -1.56726463
  C  0.90752668 -0.17139192 -0.36456438
  C  1.71003000 -0.99356653  0.62067392
  C  1.83731092 -2.36418839  0.44975176
  C  2.54743544 -3.12247911  1.36386644
  C  3.13586522 -2.51802100  2.46040067
  C  3.01696431 -1.14946475  2.63200953
  C  2.31100630 -0.39009915  1.71721546
  C  1.74965287  1.01759036 -0.80454256
  C  1.66342892  2.27790036 -0.22736310
  C  2.48142359  3.30786939 -0.65972300
  C  3.39989492  3.09534647 -1.67201176
  C  3.50024692  1.83952589 -2.24501199
  C  2.68612398  0.80981989 -1.81197953
  H -0.92572696 -1.88713699  0.44683851
  H -0.67253200 -1.02039933  1.95418989
  H -0.51530004  1.10806314  0.78762409
  H -0.98735279  1.35685179 -1.60210103
  H -4.44745773  1.26438878 -1.67237697
  H -3.68561560  0.22793674 -2.88720233
  H -2.97020409  1.80053354 -2.48962676
  H -4.35621839 -0.05481325  0.10705261
  H -5.03279908 -0.29202278  2.04872828
  H -4.91047405 -1.30197443  3.42201056
  H -1.59797427 -0.54038270 -3.83510358
  H -1.93993050 -1.98761068 -2.88247689
  H -0.39493046 -1.84830091 -3.73704439
  H  1.38883845 -2.83215882 -0.41338693
  H  2.63718487 -4.18944927  1.22123577
  H  3.68644140 -3.10753397  3.17886614
  H  3.47737727 -0.67101850  3.48438684
  H  2.22753328  0.67714407  1.85926964
  H  0.96221022  2.47519856  0.56954466
  H  2.39959614  4.28173203 -0.19825159
  H  4.03590513  3.90105256 -2.00811933
  H  4.21935051  1.65910233 -3.03076127
  H  2.76534194 -0.17132687 -2.25382772
