60
opt_min/./Product_5943_opt.xyz
  C  1.32881700  0.94878300 -0.44127600
  O  1.06527001  2.08139362 -0.78306986
  C  2.11240247  0.02866165 -1.27560623
  O  2.91794681  0.45857555 -2.27448592
  C  3.23150213  1.82848195 -2.41128580
  C  1.98859531 -1.33191680 -1.14440722
  O  2.74854199 -2.05910665 -1.99951922
  C  2.53106832 -3.44177002 -2.19837485
  C  1.07847507 -1.94402651 -0.16911968
  O  1.02923176 -3.14900215 -0.00445072
  C  0.22371198 -1.00942462  0.68038753
  C -0.07961953 -1.72930713  2.00176802
  C  0.89684865  0.36902577  0.90075440
  C  2.13495146  0.27742676  1.79553742
  C -0.31315724  1.18821973  1.42144964
  C -0.21658932  2.69593417  1.49537453
  C -1.33728339  3.46546796  1.19721793
  C -1.30135852  4.84467677  1.29636722
  C -0.14777577  5.48492085  1.71059959
  C  0.96041751  4.72792163  2.04445731
  C  0.92306526  3.34861739  1.94818782
  N -1.40782550  0.74919235  0.55908367
  C -1.12166291 -0.57014611  0.00862698
  C -1.01651033 -0.45100027 -1.51826019
  O -0.63647882 -1.58195686 -2.11208628
  C -0.54456325 -1.53987708 -3.53234127
  O -1.30583943  0.54972218 -2.11935243
  C -2.29229709 -1.51751472  0.24958306
  C -2.21066057 -2.86862503 -0.06745955
  C -3.29652064 -3.69977379  0.14290016
  C -4.47605494 -3.19372998  0.66222394
  C -4.56254502 -1.84872333  0.97442230
  C -3.47806499 -1.01436898  0.76776588
  H  4.02022090  1.86228006 -3.16199101
  H  3.58883960  2.27007865 -1.47893593
  H  2.36637014  2.40067341 -2.75549940
  H  3.12810060 -3.69308324 -3.07564709
  H  2.86936556 -4.02957068 -1.34307534
  H  1.48034195 -3.66401996 -2.39025017
  H -0.35730332 -2.75902994  1.79182369
  H -0.90344215 -1.25608954  2.52542634
  H  0.80082831 -1.74573549  2.63692141
  H  2.82912818  1.08968760  1.58748367
  H  1.85647896  0.32674924  2.84609567
  H  2.66698167 -0.65523181  1.61295854
  H -0.53642960  0.84292237  2.44419761
  H -2.25356111  2.98344109  0.89472162
  H -2.18150285  5.42095851  1.05095343
  H -0.11510354  6.56206941  1.78184361
  H  1.86344288  5.21385234  2.38612170
  H  1.79919590  2.79058285  2.23092942
  H -1.52209986  1.39920183 -0.21796643
  H  0.34856681 -0.98903183 -3.83523285
  H -1.42404489 -1.04874220 -3.95234120
  H -0.48675249 -2.57364406 -3.86444255
  H -1.30034779 -3.28028731 -0.47132320
  H -3.21967548 -4.74907736 -0.10140386
  H -5.32275489 -3.84486208  0.82186964
  H -5.47839917 -1.44397827  1.37961472
  H -3.53734363  0.03353316  1.01407647
