50
opt_min/./Product_2637_opt.xyz
  C -3.59385235  1.01552547  1.29598377
  C -2.12378271  0.91047037  0.97017715
  O -1.26933339  1.05307447  1.80263606
  C -1.78933875  0.74122308 -0.52440755
  C -2.28181451  2.06499651 -1.18423955
  C -2.14126890  3.31837517 -0.36691012
  O -2.75664895  2.06501776 -2.28873524
  C -0.28532407  0.69702325 -0.69381914
  C  0.66349022 -0.12421173 -0.20836237
  C  0.58789160 -1.44194330  0.51640695
 Br  0.68759084 -1.16667555  2.49019004
  C  1.82198544 -2.32375653  0.21097590
  F  1.91305954 -2.54043131 -1.11248650
  F  1.73409612 -3.53950074  0.77215923
  F  2.98845336 -1.84907446  0.63277134
  C -0.59802694 -2.36577383  0.15882181
  C -1.98589854 -2.02037987  0.69893513
  C -2.96845064 -1.59264109 -0.38428283
  C -2.46747246 -0.44435875 -1.25496483
  C  2.01402172  0.59107343 -0.40378452
  C  3.04713150 -0.07455097 -1.18017946
  N  3.86261869 -0.47159011 -1.87529239
  C  2.54161071  1.08551925  0.98090359
  O  1.96485962  1.93662722  1.59236173
  O  3.67692381  0.51256765  1.32846329
  C  4.23138355  0.90521691  2.57996777
  O  1.71594969  1.79238701 -1.09886460
  C  0.39175601  1.73568032 -1.56290854
  C  0.31433796  1.28997079 -3.03303510
  H -4.21094015  1.11727737  0.40916770
  H -3.90236617  0.13330989  1.85368917
  H -3.73903609  1.86394840  1.96175169
  H -2.01167253  4.17251999 -1.02924514
  H -3.07189671  3.47527053  0.17722422
  H -1.32836572  3.26272793  0.35168324
  H -0.34466763 -3.36063724  0.52515177
  H -0.62443064 -2.42493552 -0.93274429
  H -2.39728935 -2.89721859  1.20095425
  H -1.89041769 -1.24686827  1.45699346
  H -3.17207517 -2.44234209 -1.03935553
  H -3.91393007 -1.32739239  0.08986116
  H -3.30523182 -0.05744467 -1.83839075
  H -1.74653985 -0.82643583 -1.97842863
  H  4.19174261  1.99070236  2.68451232
  H  5.25624962  0.54636779  2.57588612
  H  3.66793543  0.44507859  3.39374113
  H -0.00546438  2.74789079 -1.47529975
  H  0.80267968  0.32427420 -3.15384236
  H  0.82303123  2.01581210 -3.65978997
  H -0.72312121  1.21683340 -3.34721336
