43
opt_min/./Product_5238_opt.xyz
  C  0.43778200  0.33669600  1.06425500
  O -0.21174713  0.44210056  2.07887994
  C -0.00684705  0.96755291 -0.26942846
  O  0.77901366  2.07025957 -0.62289657
  C  1.23528401  2.89460223  0.43746951
  C  0.05938492 -0.10957903 -1.38699068
  O -0.05135403  0.62373665 -2.58799948
  C -0.34369623 -0.06176675 -3.79326653
  C  1.31682827 -0.97016777 -1.36817094
  O  1.65827075 -1.60759067 -2.33789447
  C  2.13733693 -0.96567424 -0.13354137
  C  3.38040771 -1.78038092 -0.23962284
  C  1.71957695 -0.38470255  1.00973120
  C  2.43854146 -0.51607368  2.31684915
  C -1.26522085 -0.88182886 -1.06081065
  C -1.03535286 -1.90235578  0.04632566
  O -1.92541507 -1.78172723  1.01176729
  C -1.76885865 -2.61778655  2.15379812
  O -0.14183305 -2.71096388  0.02216423
  N -2.17689238  0.14902423 -0.64183386
  C -1.52943225  1.15845588 -0.22323099
  C -2.24081047  2.36042016  0.29931834
  C -3.61181458  2.53025511 -0.27879770
  O -1.74210169  3.11634166  1.09438276
  H  1.68156760  3.75731035 -0.05362882
  H  0.41524651  3.21734884  1.08209192
  H  1.99762540  2.38610371  1.03824708
  H  0.30884986 -0.92116726 -3.94671203
  H -0.16709230  0.67442370 -4.57542384
  H -1.39310544 -0.37435584 -3.83303072
  H  3.90234524 -1.51972026 -1.15878101
  H  4.03922392 -1.64709762  0.61082919
  H  3.09711930 -2.82971676 -0.32375787
  H  1.84162636 -0.06011357  3.10363386
  H  2.60531955 -1.56345339  2.56049469
  H  3.40597167 -0.01654092  2.27354961
  H -1.65502869 -1.41036580 -1.93489369
  H -2.74790088 -2.68097840  2.62171324
  H -1.05411997 -2.15842702  2.83892616
  H -1.40992540 -3.60435308  1.85626898
  H -4.14559209  1.58660855 -0.20458460
  H -4.14202329  3.32627035  0.23637904
  H -3.51890032  2.77378364 -1.33573913
