49
opt_min/./Product_5664_opt.xyz
  C -0.90032300  1.60222500 -1.62028200
  C -0.09506119  2.86333131 -1.70737609
  C  1.00088940  3.03920351 -0.96902938
  N  1.46594728  2.13286170 -0.06025990
  C  2.69462480  2.32930386  0.65638532
  C  0.76104171  0.91214577  0.15739666
  C -0.72979768  0.96854813 -0.23063348
  C -1.53258975  1.74544017  0.82722265
  N -2.82801053  1.93133630  0.51240189
  O -1.02067770  2.17765873  1.83797003
  C -1.04043465 -0.55289145 -0.26197923
  C -2.21420775 -0.94069254 -1.16155006
  O -1.99835419 -2.09194640 -1.76122317
  C -3.02720328 -2.58151123 -2.61490479
  O -3.22269324 -0.28362802 -1.27874150
  C -1.39370163 -1.03534249  1.16677099
  O -0.62190266 -1.59099812  1.89404614
  O -2.65642967 -0.74756421  1.46969344
  C -3.10056468 -1.04836185  2.79200111
  O  0.13824014 -1.19503620 -0.69685103
  C  1.25059445 -0.29392618 -0.67709655
  C  2.49313721 -0.96072685 -0.15417330
  C  3.64640394 -0.96221418 -0.93044550
  C  4.81189390 -1.53993688 -0.46049958
  C  4.83737283 -2.13032710  0.79130607
  C  3.68943735 -2.14377017  1.56403132
  C  2.52365073 -1.56098165  1.09704226
  H -0.56968181  0.88020673 -2.37962809
  H -1.95068393  1.81247822 -1.82267744
  H -0.42339037  3.62832113 -2.38918202
  H  1.57980980  3.94844028 -1.03865477
  H  2.96692539  3.38356012  0.63277627
  H  2.56316567  2.02818316  1.69826554
  H  3.51342049  1.73845824  0.22831465
  H  0.83385684  0.65041708  1.22257505
  H -3.27939572  1.35007494 -0.18159144
  H -3.40847455  2.41182171  1.18289467
  H -3.46097015 -1.76211752 -3.19182227
  H -2.55799249 -3.31122980 -3.27008596
  H -3.81114520 -3.05363081 -2.01970941
  H -4.12594357 -1.40482815  2.71308575
  H -2.45708000 -1.80804954  3.23890334
  H -3.06107296 -0.13567930  3.38895076
  H  1.44505781  0.04405004 -1.70730908
  H  3.63306463 -0.50132374 -1.90846416
  H  5.70150537 -1.53309314 -1.07391200
  H  5.74720284 -2.58298374  1.15914311
  H  3.69906434 -2.60946787  2.53851532
  H  1.63086804 -1.60186901  1.69876443
