60
opt_min/./Product_2520_opt.xyz
  C -2.11534600 -2.96168100  2.59845300
  O -1.33142414 -2.49085754  1.51047251
  C -1.46382823 -1.21943475  1.16793833
  O -2.20846286 -0.45423163  1.72745407
  C -0.51874848 -0.88502432  0.00271747
  O -0.49467768 -1.96793799 -0.87595224
  C -1.75584408 -2.40629839 -1.34924836
  C  0.95363631 -0.75671320  0.60553483
  O  0.95557115 -0.76281517  2.01018263
  C  0.49089187  0.32505572  2.77948803
  O  1.76329026 -1.79113210  0.19266536
  C  1.64178949 -3.05289164  0.83254484
  C  1.53045308  0.56719560 -0.02983364
  C  2.48760686  1.25250350  0.96712693
  C  2.43788302  2.75976524  1.09976757
  O  3.29356556  0.60573347  1.57916559
  C  2.44944179  0.20455232 -1.23597225
  O  2.18665905  0.49471340 -2.36962347
  O  3.57986789 -0.36242892 -0.85706524
  C  4.42774238 -0.80566674 -1.90754051
  N  0.36674373  1.33774374 -0.42385618
  C  0.53321700  2.43693123 -1.36780239
  C -0.80564863  0.48853265 -0.69018817
  C -0.97243067  0.30166527 -2.24176970
  N -1.86336031  1.13132364 -2.82394861
  C -2.06069944  1.07388629 -4.25519332
  O -0.31331959 -0.47263753 -2.89236866
  C -2.08554430  1.13886264 -0.11869134
  O -3.19446558  0.81181464 -0.50294101
  N -1.86459026  2.13575499  0.75261730
  C -2.94883387  2.80174866  1.43303009
  H -2.33594422 -2.14492068  3.28748287
  H -1.52970591 -3.73585768  3.08942383
  H -3.05188817 -3.37765217  2.22187003
  H -1.57713677 -2.79853094 -2.34875454
  H -2.48084569 -1.58981977 -1.40535760
  H -2.15524625 -3.19820043 -0.70672113
  H  0.80138684  1.28675924  2.36933158
  H  0.95943622  0.19408937  3.75394633
  H -0.59469780  0.32907455  2.89207073
  H  0.68166217 -3.51696349  0.60560268
  H  2.45167846 -3.64392412  0.41006295
  H  1.77275172 -2.95691123  1.91067877
  H  1.42280809  3.14509795  1.11325384
  H  2.97254600  3.20434857  0.26218850
  H  2.95880212  3.03800552  2.01324649
  H  5.26999376 -1.29468583 -1.42603316
  H  3.88897460 -1.50312119 -2.55056237
  H  4.76413691  0.04272334 -2.50904703
  H  0.49186114  2.12195971 -2.41140170
  H -0.25469351  3.17217126 -1.18468812
  H  1.49600632  2.91077447 -1.21811894
  H -2.37588517  1.81640924 -2.29767541
  H -2.76263017  1.84726843 -4.55187988
  H -1.10786134  1.21672384 -4.76929629
  H -2.45193325  0.09595168 -4.54112521
  H -0.91177355  2.32554696  1.01732389
  H -2.60286473  3.18489853  2.38936928
  H -3.34103399  3.62516071  0.83008026
  H -3.74738979  2.07817507  1.59365180
