37
opt_min/./Product_4361_opt.xyz
  C -1.75063400 -0.21464300 -0.10668800
  C -0.74774027  0.28440477 -1.15698870
  C  0.60113462 -0.46606733 -1.15096477
  N  0.51534297 -1.85843029 -0.82297118
  C  1.60924171 -2.72432494 -1.19925388
  C -0.63907355 -2.39598978 -0.37596679
  C -1.75173043 -1.71329939 -0.03455414
  C -2.89912987 -2.48867752  0.43462395
  N -3.97412574 -1.78089829  0.89140800
  O -2.92593678 -3.70918357  0.41414743
  C  1.41588150  0.47687635 -0.25994431
  C  2.75759236  0.20626514  0.31563180
  N  3.19115797  1.21156342  1.10550263
  C  4.47264452  1.17805384  1.76373299
  O  3.39896295 -0.79837128  0.08009186
  N  0.87051612  1.63367860 -0.16945102
  N -0.32475887  1.63927544 -0.78461122
  C -1.12077086  2.74991187 -0.88726331
  C -0.47615283  4.00859176 -0.36849603
  O -2.22412045  2.67966855 -1.37909624
  H -2.73264422  0.17790165 -0.37418076
  H -1.46594241  0.20757152  0.86654011
  H -1.20887240  0.29953686 -2.14452657
  H  1.06978764 -0.38522642 -2.14942766
  H  2.27717508 -2.89758021 -0.35326344
  H  1.22324007 -3.67961157 -1.55513955
  H  2.19432104 -2.25999048 -1.99167800
  H -0.65461813 -3.47317302 -0.29503327
  H -3.90396160 -0.80632376  1.11712189
  H -4.72487141 -2.30285487  1.30750196
  H  2.59799947  2.01893628  1.21711678
  H  5.04421898  0.35247767  1.34110205
  H  5.00483464  2.11507790  1.60203849
  H  4.35570863  1.00987470  2.83742796
  H -0.13286837  3.86026847  0.65204719
  H  0.38578108  4.25836457 -0.98328072
  H -1.19919377  4.81846073 -0.40965867
