57
opt_min/./Product_2388_opt.xyz
  C -3.60364500  3.26188400 -2.06382600
  N -2.52932067  2.33370935 -1.79360468
  C -1.71160900  2.53317113 -0.74795221
  O -1.65376741  3.56515478 -0.10591203
  C -0.80360420  1.39087610 -0.39781766
  C  0.52429417  1.25298039 -0.52226551
  C  1.55045539  2.18006582 -1.05940387
  C  1.24961970  3.65160958 -1.03498570
  O  2.60131073  1.75471689 -1.48491310
  C  1.00093900  0.00078331  0.22106859
  C  1.49275355 -1.11832885 -0.68053697
  C  1.52221831 -1.01370837 -2.06624029
  C  1.94559061 -2.08229227 -2.83750633
  C  2.33879674 -3.26751658 -2.23888160
  C  2.31464261 -3.38041968 -0.85893806
  C  1.89747907 -2.31229051 -0.08511333
  C  2.06998474  0.41669801  1.22241093
  C  1.67530852  1.01928577  2.41002426
  C  2.62053572  1.43821213  3.32821455
  C  3.96894195  1.26919747  3.06268338
  C  4.36609838  0.68463300  1.87247022
  C  3.42289090  0.26119235  0.95291351
  N -0.22035094 -0.37116662  0.93344570
  C -1.37850595  0.17909132  0.29779696
  C -2.07594283 -0.72377998 -0.78365862
  N -1.40014937 -1.83619870 -1.09316940
  C -1.88111118 -2.79420167 -2.05786146
  O -3.12523446 -0.40837752 -1.30346471
  C -2.49061330  0.56067714  1.27570407
  O -3.45438005  1.20837353  0.98356847
  O -2.25884241  0.04846047  2.48349273
  C -3.23293647  0.35212135  3.47503874
  H -3.31478162  4.23466013 -1.67065103
  H -4.52320242  2.93887634 -1.57281862
  H -3.76594136  3.32670326 -3.13882700
  H -2.68697200  1.38425236 -2.10321772
  H  2.15182760  4.18521360 -0.74387806
  H  0.43304264  3.90260539 -0.36925279
  H  0.99446626  3.96869559 -2.04628758
  H  1.22106216 -0.09456379 -2.54296578
  H  1.97390710 -1.98836245 -3.91297587
  H  2.66840057 -4.09755961 -2.84564362
  H  2.62954082 -4.29574009 -0.38014914
  H  1.89663105 -2.39349677  0.99337468
  H  0.62250482  1.15020991  2.60873467
  H  2.30486158  1.90434831  4.25001311
  H  4.70872861  1.59762218  3.77795770
  H  5.41665825  0.56038853  1.65514727
  H  3.73837250 -0.17452819  0.01766913
  H -0.27847921 -1.29352315  1.33345140
  H -0.48787653 -2.00120485 -0.69189629
  H -2.81612089 -2.41801483 -2.46922870
  H -2.05914733 -3.75921295 -1.58035876
  H -1.14961711 -2.91922686 -2.85722249
  H -2.85716627 -0.06454291  4.40565866
  H -4.19246858 -0.09671046  3.21082042
  H -3.36128489  1.43266944  3.55803553
