50
opt_min/./Product_5852_opt.xyz
  C -1.46788500  0.17558100  0.87531900
  O -2.48929573  0.78224360  1.11014069
  C -0.58344794  0.61986299 -0.29495110
  O -1.30856862  1.24173604 -1.30358665
  C -2.32128094  0.46574667 -1.91576938
  C  0.47552661 -0.42389313 -0.78960073
  O  0.47203199 -0.32696551 -2.18456770
  C  1.26785718 -1.20597648 -2.96497448
  C  0.33794966 -1.81687519 -0.20311436
  O  0.72795836 -2.80681134 -0.78412659
  C -0.19642298 -1.89898333  1.17164609
  C  0.12964893 -3.14806875  1.92312669
  C -1.00847570 -0.95448241  1.68676970
  C -1.59627132 -1.06503353  3.05278916
  C  1.81533279  0.21921456 -0.15037501
  C  2.96554690 -0.66994722  0.18077781
  C  2.99163114 -1.28090966  1.42970978
  C  4.02609577 -2.13471011  1.76453266
  C  5.04589700 -2.37895440  0.86073471
  C  5.04008902 -1.74467672 -0.36937529
  C  4.00760394 -0.88907132 -0.71212699
  C  2.01195548  1.41252004 -1.11677115
  O  2.78170433  1.55356149 -2.01209593
  O  1.09591357  2.30875963 -0.71743043
  C  0.37964805  1.69654697  0.33981275
  C -0.30438333  2.68830304  1.27823764
  O -0.68180809  3.76839688  0.63967551
  C -1.41824135  4.73797721  1.38387204
  O -0.48126081  2.43632477  2.43858874
  O  1.31143188  0.90236970  0.99334822
  H -1.91656725 -0.45419438 -2.34335114
  H -3.12520486  0.22814323 -1.21269258
  H -2.70997755  1.09662717 -2.71222033
  H  2.24823304 -1.37179682 -2.52353771
  H  0.76898734 -2.16641504 -3.10831804
  H  1.37822417 -0.69901482 -3.92416801
  H  0.74674482 -3.79655675  1.30617473
  H -0.78521522 -3.67411351  2.19454870
  H  0.66158000 -2.91535124  2.84460352
  H -2.13172859 -0.15049239  3.29334260
  H -2.29244356 -1.90370593  3.09975241
  H -0.81539413 -1.23545935  3.79076782
  H  2.20420359 -1.06197427  2.13380040
  H  4.03607369 -2.60891937  2.73463119
  H  5.84871060 -3.05288368  1.11913416
  H  5.84579096 -1.91115499 -1.06797430
  H  4.02510620 -0.37293838 -1.65921035
  H -1.11325960  4.72272890  2.43136733
  H -2.48291599  4.50999465  1.31116643
  H -1.20701558  5.70296413  0.92836678
