39
opt_min/./Product_687_opt.xyz
  C  2.35322137 -2.30758892  1.39787629
  N  1.70382786 -1.30704219  0.57985910
  C  1.99646444  0.00093839  0.74360046
  O  2.76450876  0.39416291  1.59126064
  C  1.27165621  0.96294350 -0.20605488
  C -0.29267727  0.94565378 -0.37205055
  C -1.04897026 -0.06659214  0.43185905
  C -0.72259839 -0.29062783  1.77195888
  C -1.43046218 -1.20791614  2.52242000
  C -2.48640964 -1.90756532  1.96147863
  C -2.84331196 -1.66411771  0.64735077
  C -2.13635625 -0.74403550 -0.10871371
  C -0.37696575  0.76279061 -1.92824614
  C  0.09254546 -0.64004980 -2.25473588
  C  1.41345224 -0.60440050 -2.12192009
  C  1.72622749  0.81681597 -1.71125130
  O  0.71734748  1.54879076 -2.37109321
  C -0.64595520  2.42729576  0.01664789
  C -1.57410827  2.64966684  1.21777461
  C -1.17787766  3.18306108 -1.10100023
  N -1.60634965  3.82362160 -1.94511205
  N  0.66043563  3.05498275  0.30853801
  N  1.60013024  2.31070403  0.19671467
  H  1.88154448 -3.27040261  1.22634962
  H  3.41653831 -2.36496331  1.15765017
  H  2.26067170 -2.03475055  2.45002632
  H  1.04075383 -1.60092341 -0.11764181
  H  0.08082700  0.26434739  2.23200962
  H -1.16145947 -1.37442716  3.55467157
  H -3.03768077 -2.62634337  2.54825535
  H -3.68269575 -2.18225908  0.20864001
  H -2.44579092 -0.55057157 -1.12437161
  H -1.29765721  1.09572941 -2.39961929
  H -0.54491443 -1.46601328 -2.49994176
  H  2.14322665 -1.37156666 -2.28897094
  H  2.71755938  1.21270975 -1.90550714
  H -0.99138605  2.67992456  2.13498485
  H -2.08817679  3.60226923  1.10989322
  H -2.31763746  1.85936044  1.28210617
