41
opt_min/./Product_4175_opt.xyz
  C  0.65168225 -0.44698330 -1.69378587
  C  0.66513457  0.49772541 -0.47387034
  C  0.49442298  1.94033474 -0.93740218
  C -0.41417933  0.06451921  0.54120736
  C -1.79502312 -0.08881156 -0.00825367
  C -2.71008640 -0.94152997  0.44899430
  C -4.06585907 -1.08483999 -0.05990391
  C -4.55434101 -0.12577440 -1.10600193
  C -4.84020070 -2.07371389  0.38561389
  C  0.21303604 -1.20333927  1.16820971
  C -0.13693492 -2.41986278  0.46562507
  N -0.32710804 -3.41458575 -0.06873931
  N  1.66559488 -0.99651019  1.11570887
  C  1.94117117  0.24259743  0.38292619
  C  3.19961167  0.15827427 -0.47027555
  O  4.08981505 -0.68597741  0.05733155
  C  5.33301736 -0.80814151 -0.62174952
  O  3.40196486  0.80560027 -1.46350186
  C  2.24435027  1.32797342  1.43722086
  H  0.64836300  0.12383576 -2.61843401
  H  1.52429174 -1.09604639 -1.72128481
  H -0.23260127 -1.08182026 -1.68562433
  H  1.40228156  2.27048954 -1.43543340
  H -0.32800459  2.00685291 -1.64610380
  H  0.27337445  2.61019609 -0.10931092
  H -0.44115614  0.82878308  1.32906050
  H -2.02714615  0.57632021 -0.82648575
  H -2.46164812 -1.61469468  1.25924617
  H -4.23794980  0.89059024 -0.88387327
  H -5.63931632 -0.14833645 -1.16302183
  H -4.15462325 -0.40388289 -2.08104651
  H -4.49121366 -2.78102562  1.11878126
  H -5.84580190 -2.21382894  0.02761120
  H -0.10366363 -1.32832780  2.21395346
  H  2.13556140 -1.79312089  0.70223291
  H  6.04373968 -1.19687063  0.10323028
  H  5.23440189 -1.50042244 -1.46048036
  H  5.65252893  0.16484547 -0.99920624
  H  1.61841826  1.17218047  2.31074093
  H  2.08863912  2.32663232  1.04426749
  H  3.28024207  1.24137584  1.75711823
