44
opt_min/./Product_5392_opt.xyz
  C -0.30608400 -1.19662000 -1.56574100
  O  0.56213503 -0.78075906 -2.28686262
  C -1.54414324 -1.79146602 -2.11900647
  C -2.66048942 -1.99568745 -1.41731576
  C -2.74859654 -1.70920210  0.02719150
  O -3.60926955 -2.17458458  0.73175225
  C -1.60728658 -0.88405233  0.58567728
  C -0.24029362 -1.22622393 -0.03817754
  C  0.62047604 -0.08568092  0.55881779
  C  0.96891299 -0.37271485  2.04926122
  C  1.86340960 -1.53659877  2.38072930
  O  0.58022298  0.38620612  2.89765568
  C  1.89460102  0.24274847 -0.20401803
  C  2.10302518  1.54274556 -0.64190436
  C  3.26338530  1.87312561 -1.31826944
  C  4.22944183  0.91186787 -1.55887701
  C  4.02217950 -0.38732613 -1.12767186
  C  2.86350365 -0.72315121 -0.45255685
  O -0.24882458  1.03467217  0.56304151
  C -1.60337607  0.66041234  0.42238850
  C -2.48237991  1.32157138  1.51999014
  C -1.82203919  2.39980853  2.31090468
  O -3.61936964  0.95793691  1.66721042
  C -2.12533274  1.22208820 -0.92227108
  C -3.55698856  0.92082105 -1.27656221
  O -1.42051102  1.93987227 -1.57694965
  H -1.49873404 -2.01884107 -3.17472697
  H -3.53484144 -2.44019185 -1.87038616
  H -1.56194065 -1.07274620  1.66420039
  H  0.07872172 -2.22320090  0.27219539
  H  1.68007681 -1.82338043  3.41408827
  H  2.89710134 -1.20787283  2.30383566
  H  1.71967606 -2.39389568  1.73319237
  H  1.34672300  2.28959012 -0.47104983
  H  3.41095883  2.88420380 -1.66454216
  H  5.13467539  1.16669711 -2.08711877
  H  4.76293520 -1.14752671 -1.32351481
  H  2.71221527 -1.74746247 -0.15455688
  H -0.90758169  2.73794719  1.84088201
  H -1.58287855  1.99738345  3.29399247
  H -2.52271584  3.21994182  2.45020201
  H -4.07336145  1.87282358 -1.39118982
  H -3.58832917  0.42026563 -2.24145881
  H -4.06655750  0.33223934 -0.52264387
