44
opt_min/./Product_1370_opt.xyz
  C -2.09587800  3.84653800 -1.16635200
  O -1.77458953  2.60310420 -0.54733292
  C -1.99182252  1.49422139 -1.24675587
  O -2.53474697  1.44342455 -2.31325092
  C -1.49161222  0.25002029 -0.46484404
  C -1.81856869  0.55366137  0.99875121
  O -1.05563911  1.03575058  1.78528678
  O -3.09861771  0.26536492  1.25486668
  C -3.58478851  0.54377608  2.56229678
  C -0.01736378  0.20153443 -0.71317929
  C  0.99104089 -0.62190429 -0.31746835
  C  1.11752830 -1.78932417  0.58473026
 Cl  0.63297775 -1.24024390  2.24861717
  C  0.38884137 -3.09701683  0.24460995
  C -0.79132638 -3.10182961 -0.72944185
  C -2.04616673 -2.31003379 -0.33416896
  C -2.22672582 -0.96944369 -1.04435561
  C  2.21840286 -0.03607372 -0.96274158
  C  3.36864699  0.26980451  0.02903347
  N  3.62144086  1.57461459  0.14740768
  C  4.65335386  2.07429386  1.02923475
  O  3.95120943 -0.62186774  0.59729855
  N  1.72789865  1.10043528 -1.68404559
  N  0.49537202  1.19867003 -1.53642140
  H -1.27907585  4.53158273 -0.94558840
  H -3.03246683  4.22765252 -0.75402833
  H -2.19488830  3.70355046 -2.24370411
  H -2.78368493  0.96313033  3.17363254
  H -3.93938006 -0.39109908  2.99783192
  H -4.41004938  1.25455685  2.48335448
  H  2.18384422 -2.00791127  0.69465578
  H  0.04285452 -3.51813036  1.19094012
  H  1.13655647 -3.78885382 -0.16035524
  H -1.08574985 -4.15643717 -0.76125756
  H -0.47164946 -2.82141924 -1.73621905
  H -2.89737140 -2.90983878 -0.67075123
  H -2.11760300 -2.21626970  0.74979526
  H -3.29314257 -0.72298345 -1.03533639
  H -1.92666395 -1.06471340 -2.09183384
  H  2.64261019 -0.74029363 -1.69083731
  H  3.06400436  2.23894465 -0.37225310
  H  4.23120407  2.34918641  1.99916543
  H  5.38563240  1.28238487  1.18181267
  H  5.13273296  2.94416638  0.58335900
