50
opt_min/./Product_1990_opt.xyz
  C -1.44737700 -3.80517100  1.26352100
  C -1.63637154 -2.34702998  1.10644934
  C -2.71797444 -1.60778020  0.87135829
 Br -4.48001376 -2.14805016  0.56068028
  C -2.25209714 -0.16672122  0.77484069
  C -1.54260676 -0.04928497 -0.60088439
  C -0.30433042 -0.93662563 -0.35460945
  C -0.51896168 -1.31035963  1.14203735
  O -1.16157830 -0.16834953  1.67668909
  C  0.91960938 -0.03064755 -0.63706132
  C  1.36549683 -0.22227054 -2.10155844
  C  2.04299799 -0.38000665  0.32745829
  C  2.34215963  0.42618702  1.41970955
  C  3.33891291  0.07846619  2.31434678
  C  4.05301031 -1.09407252  2.14513554
  C  3.74324975 -1.92293468  1.08199234
  C  2.74838730 -1.57153094  0.18708658
  N  0.37963940  1.30157156 -0.35993329
  C  1.24009173  2.43995713 -0.65161026
  C -0.97822341  1.36342781 -0.89701488
  C -1.79447943  2.41231948 -0.09734437
  N -1.28818329  2.67509686  1.11533586
  C -1.92946800  3.57399749  2.04291246
  O -2.79193505  2.94034708 -0.54561031
  C -1.11896904  1.69359142 -2.39784250
  H -1.03278486 -4.02273340  2.24753504
  H -0.74622698 -4.17817773  0.51749065
  H -2.39719926 -4.32324242  1.15142780
  H -2.99917384  0.58439530  1.01001643
  H -2.19277661 -0.38906589 -1.40609912
  H -0.27364604 -1.83284079 -0.97279844
  H  0.36444629 -1.57149025  1.71486706
  H  2.13120211 -0.98782540 -2.17897637
  H  1.78847918  0.69762146 -2.49666966
  H  0.52802645 -0.51089781 -2.73057392
  H  1.77898989  1.32712421  1.58907984
  H  3.55360602  0.72796557  3.15025652
  H  4.83240239 -1.36748855  2.84011267
  H  4.27521229 -2.85330549  0.94681788
  H  2.51631816 -2.25393834 -0.61714797
  H  1.34216148  3.05867497  0.24527692
  H  0.83787429  3.07645564 -1.43880718
  H  2.23863109  2.11680683 -0.94089908
  H -0.54715463  2.07587588  1.44856064
  H -2.40237640  4.37437823  1.47486741
  H -1.18408816  3.98794263  2.71876664
  H -2.70069119  3.06540211  2.62866931
  H -1.86962115  2.47505598 -2.50877029
  H -1.45657548  0.83084488 -2.96664978
  H -0.19059962  2.04098620 -2.83938961
