24
opt_min/./Product_8_opt.xyz
  C -0.84601000  2.53562300 -0.18577100
  C -1.00758441  1.10126121  0.14972981
  C -0.10556194  0.11273499  0.10579879
  C  1.31686358  0.27873847 -0.24585908
  O  1.76698414  1.31425966 -0.70388135
  N  2.10231502 -0.80007572 -0.00504391
  C  3.50854940 -0.79293812 -0.32710596
  C -0.76449905 -1.19207552  0.49834108
  C -0.66443732 -2.29198229 -0.56987587
  O -2.13896338 -0.86008129  0.68989759
  C -2.31646772  0.54063042  0.61685786
  H -0.98199346  2.67259167 -1.25792893
  H  0.16566122  2.85641829  0.04240662
  H -1.57343920  3.14474439  0.34628813
  H  1.69919364 -1.65196554  0.34264885
  H  4.04184827 -1.46611373  0.34218511
  H  3.67958257 -1.10587984 -1.36191883
  H  3.88391569  0.22444676 -0.21259615
  H -0.36048045 -1.56248897  1.45918685
  H -0.40230856 -1.86314626 -1.53489425
  H  0.06407249 -3.05556432 -0.30581505
  H -1.64178296 -2.76204429 -0.65562777
  H -2.58266548  0.94325254  1.60650894
  H -3.13793354  0.75086609 -0.07583896
