46
opt_min/./Product_5009_opt.xyz
  C  3.66175516 -1.40543861 -1.96319905
  C  2.78813730 -0.75240750 -0.93629457
  C  3.52099926 -0.15008742  0.22255583
  C  1.46448164 -0.77009644 -1.05893780
  C  0.48134201 -0.19530237 -0.08443978
  C -0.79888006  0.32796177 -0.76393483
  C -0.76889551  1.82800758 -0.98933814
  C -2.08001749  2.53744731 -1.15288944
  C  0.37077684  2.48835665 -1.12383726
  C -1.95127894 -0.23728827  0.11939515
  C -3.14602654 -0.71296591 -0.70921351
  C -3.45720308 -2.17543850 -0.60018658
  O -3.78177626  0.03347873 -1.41163396
  C -2.30231098  0.75049523  1.26557981
  C -3.75190316  0.86531879  1.62904482
  O -1.41046688  1.28163294  1.87217950
  O -1.41679017 -1.37433928  0.79437973
  C -0.01692314 -1.23859037  0.94583657
  C  0.60518083 -2.53845834  0.74156680
  N  1.09874507 -3.56220068  0.62180653
  C  0.38033045 -0.86839733  2.40728828
  C -0.47168359 -1.52664134  3.44752225
  O  1.33474141 -0.17820148  2.63098927
  H  3.07624835 -1.81612932 -2.78141075
  H  4.37949563 -0.69066143 -2.36247006
  H  4.22379202 -2.21612223 -1.49877441
  H  3.02322135  0.73365972  0.61408812
  H  3.57976056 -0.87223827  1.03692633
  H  4.53569696  0.11674058 -0.06582460
  H  1.02598092 -1.25961661 -1.92014292
  H  0.94441614  0.60476750  0.49796305
  H -0.90689992 -0.14417873 -1.75102846
  H -2.51217264  2.76853562 -0.17955518
  H -1.93325301  3.47781397 -1.67870575
  H -2.79052650  1.92932984 -1.70377745
  H  0.36499913  3.54582848 -1.32317689
  H  1.34124296  2.03119855 -1.05972268
  H -3.60756635 -2.45131627  0.44013214
  H -2.61042324 -2.75229270 -0.96723027
  H -4.34299563 -2.40408700 -1.18746514
  H -4.35066100  1.11740017  0.75773197
  H -3.88031645  1.61475150  2.40705651
  H -4.09414552 -0.10064869  2.00124404
  H -0.39586738 -2.60798971  3.33667907
  H -1.51461021 -1.25317552  3.30352732
  H -0.14076478 -1.22500986  4.43811113
