47
opt_min/./Product_5640_opt.xyz
  C -0.48871400  1.12300300 -1.16290800
  O  0.08052557  2.08746997 -1.61728394
  C  0.25813903 -0.19892671 -0.99365673
  O  1.21589594 -0.23702651 -2.01960684
  C  2.29744525 -1.15127425 -1.92877092
  C -0.63373257 -1.47997746 -0.94782283
  O -0.33080942 -2.39508620 -1.96828134
  C -0.83792744 -2.07001513 -3.24866998
  C -2.14955462 -1.26952996 -0.84199564
  O -2.87807947 -2.23307882 -0.91023355
  C -2.66537097  0.08761726 -0.59678106
  C -4.10487261  0.11408971 -0.20748483
  C -1.89519715  1.18967246 -0.72357667
  C -2.42021407  2.57431910 -0.51169072
  C -0.19181271 -2.09396028  0.44612995
  C -0.38021653 -3.57431592  0.63724965
  O  1.13050369 -1.61889363  0.62399503
  C  0.88059244 -0.25730343  0.45693706
  C  2.02749328  0.62419571  0.84918351
  C  2.62744890  1.53124236 -0.01367981
  C  3.68428131  2.30436867  0.43815318
  C  4.14432582  2.17845237  1.73698840
  C  3.54246802  1.27565135  2.59821544
  C  2.48670105  0.50054072  2.15789254
  O -0.23851848 -0.00904470  1.36162362
  C -0.93380763 -1.15048720  1.40569965
  O -1.93183259 -1.33441777  2.03188687
  H  2.81158505 -1.04653593 -2.88247098
  H  1.95530182 -2.17843790 -1.80412601
  H  2.97885999 -0.88955021 -1.11563076
  H -0.43315688 -2.83089130 -3.91234012
  H -0.49964747 -1.08212991 -3.57288475
  H -1.93029591 -2.11410286 -3.27034865
  H -4.70922486 -0.27125041 -1.02836919
  H -4.44394798  1.10613776  0.06282948
  H -4.24527668 -0.56224390  0.63520163
  H -1.64240580  3.29495747 -0.74959957
  H -2.71952917  2.70528143  0.52682166
  H -3.28383832  2.76461817 -1.14596121
  H -1.31742513 -3.74753567  1.16106557
  H  0.44746333 -3.96008163  1.22546733
  H -0.40585899 -4.07257754 -0.32757856
  H  2.27021002  1.64856892 -1.02357083
  H  4.14814016  3.00958492 -0.23461773
  H  4.97015111  2.78443454  2.07960744
  H  3.89364653  1.17433945  3.61400408
  H  2.01096940 -0.20619672  2.82011358
