41
opt_min/./Product_4462_opt.xyz
  C -0.13721800  0.94990000 -1.50116900
  C -0.44609505  0.27184606 -0.16470849
  C -0.56132454  1.31705461  0.93380117
  C  0.60606134 -0.82407383  0.16018227
  C  2.04031422 -0.49608534 -0.08581646
  C  2.98710141 -0.68439613  0.83069365
  C  4.40838227 -0.41835297  0.66869334
  C  4.94006631 -0.08646295 -0.69353733
  C  5.21184984 -0.45162066  1.73181047
  O  0.22734702 -1.89700152 -0.67847237
  N -1.19271301 -2.00214206 -0.48626601
  C -1.70857868 -0.65076730 -0.29468311
  C -2.63246825 -0.24898709 -1.45319497
  O -3.15197542  0.95305155 -1.28721155
  C -4.08770603  1.41416502 -2.25761391
  O -2.83170730 -0.97435249 -2.39362800
  C -2.55470150 -0.62244364  0.99482421
  O -3.36398252  0.22572862  1.25998601
  O -2.24576771 -1.63394462  1.79381127
  C -2.95573128 -1.70606047  3.02240542
  H -0.01653588  0.20992742 -2.29279766
  H  0.79197202  1.51202061 -1.41428801
  H -0.92591118  1.64812320 -1.76918983
  H  0.31247818  1.96721161  0.91137903
  H -0.62710134  0.85283525  1.91685702
  H -1.45629989  1.91912179  0.78709365
  H  0.46932522 -1.12523964  1.21342309
  H  2.27801166 -0.14112028 -1.07530633
  H  2.70205256 -1.04205994  1.81322827
  H  4.81535446  0.98173316 -0.88455604
  H  6.00066309 -0.32007542 -0.75834365
  H  4.40507175 -0.63362752 -1.46622943
  H  6.26792132 -0.26103174  1.64686142
  H  4.84337891 -0.67002516  2.71979116
  H -1.55284342 -2.40183306 -1.35775924
  H -4.01253663  0.80874943 -3.16376465
  H -5.09093841  1.33694876 -1.83711680
  H -3.84777589  2.45569497 -2.47023041
  H -3.00078393 -0.72330884  3.49674586
  H -3.97287869 -2.06523607  2.84854043
  H -2.40952261 -2.41007737  3.64758760
