40
opt_min/./Product_1953_opt.xyz
  C -2.55371100  2.37011400  0.78992900
  O -2.13536336  1.00603999  0.70163375
  C -1.35106396  0.64915282 -0.39492506
  O -1.84072860  1.13596784 -1.61324503
  C -3.18707926  0.83141404 -1.94918678
  C  0.12707706  1.15933482 -0.31559661
 Br  0.54704996  1.68975127  1.50576273
 Br  0.40879541  2.72450914 -1.40984276
  C  1.00060789 -0.00463774 -0.80069371
  C  2.36617586 -0.03672999 -0.15841836
  C  2.62938447 -0.79282150  0.97467211
  C  3.88813615 -0.76990607  1.54970606
  C  4.88948211  0.01397544  1.00525924
  C  4.63046032  0.77488295 -0.12205758
  C  3.37784219  0.74422784 -0.70629437
  N  0.19395148 -1.16221294 -0.53481817
  C  0.63981690 -2.48705559 -0.87142575
  C -1.20434867 -0.89617584 -0.41001124
  C -1.89100410 -1.53837583  0.80858955
  C -1.14060666 -1.56387376  2.10146230
  O -2.98350364 -2.02691127  0.66830313
  H -2.02275744  2.86416577  1.60538430
  H -3.62066386  2.36759549  1.01809956
  H -2.37549600  2.90771403 -0.14146569
  H -3.28743145  1.12763443 -2.99007381
  H -3.39778880 -0.23379743 -1.83872538
  H -3.88452187  1.39731445 -1.32770398
  H  1.15894546  0.13144549 -1.89458211
  H  1.85038843 -1.39059720  1.41636563
  H  4.08266320 -1.36316381  2.43022727
  H  5.86776810  0.03251370  1.45987596
  H  5.40256549  1.39555371 -0.55155122
  H  3.18233408  1.33401834 -1.59096801
  H -0.06962847 -2.96351234 -1.55684648
  H  1.60837232 -2.42396840 -1.36259493
  H  0.73695649 -3.11816442  0.01713228
  H -1.76294985 -1.28783910 -1.28620236
  H -0.35023245 -0.82402456  2.12980993
  H -1.83567187 -1.40655723  2.92058854
  H -0.71171169 -2.56029902  2.21334493
