58
opt_min/./Product_2442_opt.xyz
  C  0.06293127  1.67079729 -2.60042198
  O  0.76378789  2.04877605 -1.42605708
  C  0.66680563  1.34890786 -0.21892948
  C -0.76340952  1.16293073  0.42369329
  C -1.75635488  1.94922403 -0.28254016
  N -2.53853373  2.63869497 -0.75272357
  C -0.57807173  2.03647196  1.73322225
  C  0.47430297  1.48020211  2.66888501
  C  1.63660749  1.74964108  2.09554726
  C  1.27514634  2.40868709  0.79011080
  O  0.11094711  3.12905007  1.15295826
  C -1.09776484 -0.34496965  0.36361334
  C -1.74020328 -1.12816354  1.55221797
  C -1.72233768 -0.66297865  2.98078790
  O -2.11320198 -2.24995629  1.31131147
  C -2.10412140 -0.57249513 -0.77620964
  C -1.74777169 -1.03017404 -2.03447688
  C -2.71595305 -1.20427685 -3.01106788
  C -4.04272324 -0.92853048 -2.74090056
  C -4.40633923 -0.47827725 -1.48258725
  C -3.44446962 -0.30739004 -0.50689520
  N  0.20982263 -0.97737082  0.19058494
  C  0.27719271 -2.41265974 -0.02154659
  C  1.27812435 -0.09414749 -0.22835667
  C  2.51806808 -0.19594919  0.68296771
  N  2.48692902 -1.17472949  1.59562631
  C  3.57305419 -1.41039111  2.51358002
  O  3.49613353  0.51476020  0.51058417
  C  1.85661593 -0.43307254 -1.64493201
  O  1.41332343 -1.33707981 -2.32938835
  N  2.85878487  0.35710225 -2.02735937
  C  3.50811025  0.20632410 -3.30629241
  H  0.16235717  0.61666498 -2.84039773
  H  0.53251673  2.25934541 -3.38704584
  H -0.99531629  1.92480464 -2.54058840
  H -1.51869873  2.35987095  2.17541358
  H  0.29896122  1.06260130  3.63893649
  H  2.63167770  1.60570633  2.45895679
  H  2.00844180  3.04988946  0.31633932
  H -1.57773216  0.39508022  3.11018459
  H -2.65369862 -0.97718458  3.45021373
  H -0.92122642 -1.19439565  3.49518433
  H -0.72215858 -1.26729343 -2.26665447
  H -2.42149233 -1.56273833 -3.98621754
  H -4.79384687 -1.06538132 -3.50466425
  H -5.44005919 -0.26285980 -1.25846593
  H -3.73584856  0.04606239  0.47371152
  H -0.56624458 -2.76507906 -0.61525991
  H  0.24563129 -2.95680314  0.93223260
  H  1.19252921 -2.67046043 -0.54347022
  H  1.63003778 -1.68331054  1.72403863
  H  4.47985159 -0.99540869  2.07858876
  H  3.69636176 -2.47944126  2.66931526
  H  3.39205213 -0.92388231  3.47522103
  H  3.22124392  1.04150135 -1.37693893
  H  2.82694746 -0.31253242 -3.97937943
  H  3.75230916  1.18794270 -3.70719404
  H  4.42407595 -0.38202990 -3.21149221
