54
opt_min/./Product_1798_opt.xyz
  C -2.92715603 -1.44609889 -0.28995999
  C -1.83072955 -1.57099666  0.78441265
  C -1.89699377 -3.03137357  1.25671001
  C -0.51017591 -1.19489746  0.13165639
  C -0.09957968  0.02062549 -0.25231020
  C -0.74885115  1.39784791 -0.30984703
  C  0.27907320  2.41708570 -0.52504177
  N  0.98827377  3.30721284 -0.63008022
  C -1.56290783  1.42623473 -1.52032186
  N -2.23675681  1.44149104 -2.44256458
  C -1.57693757  2.01243412  0.85904605
  C -2.99654939  1.47858823  1.06607877
  C -3.11462217  0.35428270  2.09170224
  C -2.00890504 -0.69405480  2.05359823
  C  1.26265094 -0.05095399 -0.93402912
  C  1.12507745  0.45131523 -2.29430610
  N  1.03885425  0.81710416 -3.37423564
  C  2.36485876  0.69831034 -0.17955820
  C  3.43854298  1.26264983 -0.84933911
  C  4.46648116  1.85117467 -0.13352364
  C  4.43064651  1.87149556  1.24929131
  C  3.36539509  1.29618926  1.92173506
  C  2.33822446  0.70722911  1.20957327
  N  1.59685141 -1.45715271 -0.87421403
  C  2.50894494 -2.04021240 -1.82768534
  C  0.53197396 -2.23754272 -0.27199771
  C  1.15611945 -3.07003868  0.86186889
  C -0.09935658 -3.10325068 -1.26351740
  N -0.56915055 -3.73922852 -2.09041516
  H -2.85032325 -0.53890143 -0.87589953
  H -2.83126609 -2.27685594 -0.98607322
  H -3.91313353 -1.49916554  0.16242214
  H -1.21695724 -3.23138970  2.07811844
  H -2.90952142 -3.21545424  1.61304361
  H -1.70759903 -3.72996983  0.44498321
  H -0.98833261  1.95496364  1.77603939
  H -1.67068039  3.07330287  0.60659222
  H -3.40678779  1.17720465  0.10385571
  H -3.62072196  2.30446612  1.41472578
  H -3.08114421  0.79828246  3.09089388
  H -4.09243046 -0.11705683  1.99082210
  H -2.19259344 -1.36334388  2.89668166
  H -1.05937110 -0.19865808  2.26847951
  H  3.46587083  1.25736619 -1.92851857
  H  5.29636894  2.29609239 -0.66052554
  H  5.23214367  2.33657854  1.80227917
  H  3.33357428  1.30601786  3.00096871
  H  1.50866993  0.25434697  1.73528375
  H  2.68864516 -1.35644107 -2.65704565
  H  2.10914572 -2.96721748 -2.24209507
  H  3.47367392 -2.25393564 -1.35070522
  H  0.56937716 -3.94090912  1.13057463
  H  2.13078022 -3.41540010  0.52402679
  H  1.30240845 -2.43713792  1.73420022
