48
opt_min/./Product_2076_opt.xyz
  C -5.63106926  1.57382887  3.01465827
  C -4.46498760  0.88599570  2.39831126
  O -3.87468041  0.14135732  3.00146863
  C -4.02921707  0.98577186  0.91003211
  C -4.53218157  2.24322553  0.18635038
  F -4.22673246  3.39344415  0.82579278
  F -5.86454207  2.26442628  0.03129961
  F -4.02463350  2.36753819 -1.03947927
  C -2.51638093  0.97392892  0.94025331
  C -1.56192519  0.13606137  0.52201113
  C -1.45300578 -0.98599585 -0.46134540
  C -2.46368530 -2.13080131 -0.33077265
  C -3.66659159 -1.96147793 -1.25707441
  C -4.29074233 -0.57206812 -1.16128464
  C -4.71015683 -0.25029643  0.27768023
  C -0.24467470  0.55489144  1.16923791
  C  0.31183880 -0.60198069  2.08121258
  O  1.27077197 -0.30741529  2.93447733
  C  1.84552321  0.97912416  3.09697669
  O -0.11341085 -1.71655831  1.99696422
  C  0.75887479  0.86060320  0.16150093
  N  1.56634385  1.09391694 -0.61360022
  O -0.52764306  1.67684377  1.98842961
  C -1.84307691  2.13012063  1.67577643
  C -2.47493633  2.60933886  2.88448911
  N -2.93617998  3.05226189  3.83210281
  C -1.55449915  3.30098562  0.65643356
  C -1.35711914  4.64104848  1.27890638
  O -1.39477896  3.03013587 -0.49875323
  H -6.54386323  1.32782801  2.47544443
  H -5.71986108  1.24553976  4.04772339
  H -5.50522599  2.65301155  2.99877898
  H -0.45013616 -1.40292771 -0.36546608
  H -1.51809693 -0.55072153 -1.46387972
  H -2.76640192 -2.21857561  0.71178775
  H -1.96101423 -3.06327657 -0.58800347
  H -4.41489189 -2.71839656 -1.01464634
  H -3.35006669 -2.12770677 -2.28871806
  H -5.16090435 -0.52421216 -1.81738823
  H -3.57861322  0.16564297 -1.52561221
  H -5.78857796 -0.08538586  0.32504430
  H -4.48979074 -1.10034499  0.92232262
  H  2.76558400  0.81012559  3.65450465
  H  1.17901399  1.62507440  3.67043697
  H  2.07819258  1.44731279  2.13942411
  H -0.95332183  5.33285068  0.54415470
  H -0.68747225  4.55760509  2.13306454
  H -2.31588420  5.00976927  1.64177661
