30
opt_min/./Product_200_opt.xyz
  C -4.30940800  1.42655200  0.45687800
  O -3.42254772  0.35141246  0.18600069
  C -2.39576579  0.62090012 -0.61043388
  O -2.21513833  1.66836039 -1.18338281
  C -1.50256844 -0.54060212 -0.76593859
  C -1.64524428 -1.84085859 -0.50328574
  F -2.60762830 -2.50177596  0.11686929
  C -0.38877214 -2.52341419 -1.01557080
  C  0.73529837 -2.12115045 -0.01252865
  C  0.98816051 -0.65259459 -0.41144025
  C -0.15412315 -0.46487161 -1.46209259
  O -0.08415543 -1.71549772 -2.13605947
  C  0.93996657  0.10468189  0.94308713
  C  0.14393061  1.40928465  0.94456626
  C  0.87297718  2.59634093  0.38331241
  O -0.98613507  1.46572645  1.34880701
  N  0.41338184 -0.82727936  1.91673624
  C  0.31270501 -1.97985723  1.42486235
  H -3.73847931  2.34230244  0.61943332
  H -4.86054812  1.14980334  1.35202866
  H -4.99143063  1.57197898 -0.38437759
  H -0.46004350 -3.57419683 -1.27880596
  H  1.60670327 -2.76951745 -0.10324992
  H  1.92783942 -0.48992718 -0.93970262
  H -0.03769799  0.37559893 -2.14116684
  H  1.97078725  0.31966218  1.24674090
  H  0.77254095  2.56672852 -0.70208976
  H  1.92867116  2.58247352  0.63731168
  H  0.40500054  3.51223503  0.73583543
  H -0.05699533 -2.80515443  2.01071950
