51
opt_min/./Product_5618_opt.xyz
  C -1.58040800 -0.52091300 -1.68961800
  C -1.08736291 -0.14472777 -3.05306475
  C -0.14889036  0.78144958 -3.21169822
  N  0.37341061  1.54851654 -2.18175077
  C  1.66888426  2.15302508 -2.40452912
  C  0.04426426  1.19493021 -0.84125908
  C -1.39064764  0.65907854 -0.72500155
  C -2.51767983  1.65670121 -1.02705274
  N -2.19505091  2.97196070 -0.95978396
  O -3.64622171  1.29351674 -1.25360490
  C -1.42581902  0.18100303  0.75249876
  C -1.80459996  1.31157872  1.72444376
  C -2.45217502 -0.93053715  0.93301457
  O -3.63192578 -0.75130953  1.04086135
  O -1.89295132 -2.15341731  0.97213252
  C -2.80854455 -3.24231737  0.99510740
  N -0.05568484 -0.24457945  1.03106163
  C  0.87587869  0.11180765 -0.03671518
  C  1.39941632 -1.03678071 -0.91978721
  N  1.57014058 -2.20531455 -0.24998127
  C  2.13626944 -3.36581346 -0.89681122
  O  1.66190855 -0.91952628 -2.09183394
  C  2.14274401  0.74616809  0.57775549
  O  3.18022116  0.88611886 -0.03534071
  N  1.97291438  1.13300899  1.85479868
  C  2.99961462  1.76436438  2.63691917
  H -1.05385927 -1.41623451 -1.33790338
  H -2.64900154 -0.75356070 -1.72572125
  H -1.49934676 -0.67193337 -3.89479410
  H  0.22854689  1.05619684 -4.18297550
  H  1.85862203  2.89663458 -1.62990625
  H  2.47452577  1.41521929 -2.37996966
  H  1.65879283  2.64662411 -3.37560139
  H  0.17687521  2.10678942 -0.23235028
  H -2.91932394  3.62306174 -1.21795892
  H -1.24753196  3.28933337 -1.05053236
  H -1.10777643  2.13943334  1.62814478
  H -1.75846452  0.93780025  2.74574063
  H -2.81430826  1.64898910  1.51587998
  H -2.21265149 -4.14002798  0.85475992
  H -3.33089768 -3.27591632  1.95347479
  H -3.54321212 -3.12291406  0.19800474
  H -0.01431617 -1.22250030  1.28492016
  H  1.52642305 -2.22344132  0.75552929
  H  1.48339726 -4.22921750 -0.75865429
  H  3.12683077 -3.58934530 -0.49651079
  H  2.21851252 -3.13460152 -1.95722237
  H  1.06978374  0.91141899  2.25520397
  H  2.69863503  2.77226588  2.93464490
  H  3.22446999  1.18015974  3.53054823
  H  3.89112308  1.83443449  2.01395275
