57
opt_min/./Product_2459_opt.xyz
  C  3.42286100 -3.37423200  2.38672200
  O  2.68776135 -2.57726839  1.47014263
  C  3.09535442 -1.31631336  1.26732284
  O  4.04704198 -0.81576375  1.81569323
  C  2.19886246 -0.64871218  0.32026330
  C  2.18763067  0.62478056 -0.13452197
  C  3.16791006  1.68677946 -0.05978159
  C  4.53192518  1.38615995 -0.10780586
  C  5.47304521  2.39582201 -0.07681494
  C  5.07791797  3.72110922  0.00799698
  C  3.72897549  4.03274415  0.04712276
  C  2.78330215  3.02705929  0.00250898
  C  0.84669093  0.72761748 -0.86305570
  C -0.21055225  0.75047923  0.30859595
  C -0.23592697 -0.74946922  0.66433783
  C  0.92233693 -1.28085710 -0.20554785
  O  0.70902876 -0.56387519 -1.41061651
  C -1.64151334 -1.22366045  0.19571797
  C -1.54323963 -2.03068654 -1.13555865
  C -1.98204053 -1.37232030 -2.41058837
  O -1.09894305 -3.14731044 -1.12418959
  C -2.14860180 -2.20916700  1.27600990
  O -1.59045641 -3.22990594  1.56112308
  O -3.25339680 -1.76856915  1.86887786
  C -3.79608291 -2.58726706  2.89805431
  N -2.41547936 -0.02168158  0.17793803
  C -3.79399882  0.04148411 -0.22815880
  N -1.55930017  1.11470608 -0.01310728
  C -2.04617630  2.39595586 -0.06674314
  N -1.07143188  3.33906946 -0.24988773
  C -1.38950680  4.74499560 -0.25222492
  O -3.22148323  2.69255947 -0.01263167
  H  4.26368568 -2.80417424  2.78777282
  H  3.78169895 -4.25625257  1.85604566
  H  2.75320334 -3.67589549  3.19224606
  H  4.84108655  0.35696188 -0.18007926
  H  6.52258215  2.14589093 -0.11752080
  H  5.81789146  4.50654781  0.04148093
  H  3.41290157  5.06342352  0.11210881
  H  1.73690022  3.29076439  0.04581065
  H  0.74537827  1.48394924 -1.63658783
  H  0.17405352  1.35839994  1.13943357
  H -0.10543514 -0.94759051  1.72601868
  H  0.94146913 -2.35506443 -0.35707706
  H -2.56844438 -2.08669192 -2.98692317
  H -2.53427235 -0.45444883 -2.26998848
  H -1.07901530 -1.15350212 -2.97922543
  H -2.99445412 -3.06278855  3.46635971
  H -4.43013892 -3.36148348  2.46143074
  H -4.38727365 -1.93100494  3.53217682
  H -4.16988183 -0.97544127 -0.31697863
  H -3.93843205  0.56411296 -1.17832464
  H -4.37443949  0.56980226  0.53054110
  H -0.10488506  3.07527861 -0.30531343
  H -0.86002040  5.24893923 -1.06151994
  H -2.46384529  4.83666717 -0.40382262
  H -1.12615198  5.21544364  0.70030003
