26
opt_min/./Product_3400_opt.xyz
  O -2.34206500  0.33709300  2.40165000
  C -1.71888612  1.17152824  1.93083272
  O -1.09759836  2.01603990  1.47259579
  C  0.69602241 -0.63367662  0.68871630
  C  1.85718758 -0.10446545  0.35168763
  C  1.34252231  2.98946997  0.45540942
  O  0.97622921  2.96373741 -0.62731422
  O  1.71386895  3.05777768  1.53402821
  C  2.09603451 -0.30776866 -1.11965493
  C  3.46330076 -0.89617157 -1.44963924
  O  1.06848810 -1.20187102 -1.51934327
  C  0.03679009 -1.23403426 -0.53139266
  C -1.15269976 -0.37680956 -0.99404598
  C -0.40101715 -2.68243121 -0.31075724
  H  0.24160037 -0.68183478  1.66096451
  H  2.56695246  0.39732702  0.98153816
  H  1.97486381  0.65525410 -1.65091629
  H  4.24233904 -0.16054758 -1.26724463
  H  3.48354800 -1.18859448 -2.49549482
  H  3.64877499 -1.77545940 -0.83755290
  H -1.99147864 -0.49288674 -0.31252907
  H -0.86854074  0.67218215 -1.04380307
  H -1.45564431 -0.70184444 -1.98605952
  H  0.46345956 -3.29288838 -0.06314094
  H -1.12270892 -2.73707467  0.49986844
  H -0.85212983 -3.07075878 -1.21962317
