30
opt_min/./Product_337_opt.xyz
  C -2.36793189  2.91539447  0.94696126
  N -1.66197629  1.68313033  0.66402680
  C -1.36211992  1.34582798 -0.61089869
  O -1.70541140  1.98036060 -1.57897505
  C -0.56525580  0.09095491 -0.73093259
  C -0.78892112 -1.17424352 -0.32225462
  C -1.96715247 -1.77222638  0.37890631
  C -3.28114298 -1.10750699  0.07803046
  O -1.83451543 -2.71401125  1.11415129
  N  0.27069480 -1.98335985 -0.66959699
  C  0.38408074 -3.29152765 -0.62038068
  N  0.51063912 -4.42950101 -0.56957566
  O  1.23073882 -1.23293140 -1.40965360
  C  0.78874360  0.11697753 -1.42611676
  C  1.71453232  1.03580845 -0.58677214
  O  2.47219522  0.30607897  0.21182036
  C  3.39326157  0.98782597  1.06001410
  O  1.66300726  2.23109018 -0.63257551
  C  0.70846228  0.60309337 -2.80114674
  N  0.65300787  0.89823859 -3.90084623
  H -3.44402046  2.77695645  0.81645526
  H -2.16260699  3.23036387  1.96548642
  H -2.03646465  3.68251737  0.24604350
  H -1.26454175  1.16694092  1.43109607
  H -3.45964502 -0.32409470  0.81392806
  H -3.28875509 -0.65704580 -0.91010630
  H -4.08283461 -1.83668689  0.16944557
  H  4.40283358  0.79808754  0.69508816
  H  3.18700001  2.05933870  1.05431616
  H  3.27930239  0.57726543  2.06201981
