34
opt_min/./Product_444_opt.xyz
  C -0.13595300 -2.31190900 -1.99825300
  O  0.46646572 -1.23416272 -1.30285440
  C -0.36729175 -0.38516536 -0.61850891
  F -1.21584917  0.19601831 -1.57292774
  C  0.43677188  0.72008507  0.00308217
  C -0.01914186  1.94023309  0.46399315
  N  1.02651274  2.58396341  1.04490228
  N  2.04827974  1.85974805  1.00574766
  N  1.75369612  0.69209353  0.39867097
  C  2.79858434 -0.27686614  0.32064031
  O  3.89389575  0.28055279  0.79512054
  C  5.07717183 -0.50903545  0.81536402
  O  2.67762625 -1.39366586 -0.07482685
  C -1.34628021  2.64270179  0.41957164
  F -1.30807830  3.54854933 -0.61202152
  F -1.44448418  3.41099954  1.54516975
  C -2.62658134  1.83009363  0.27057557
  C -2.86729024  0.75203831  1.32949086
  C -1.73689515 -0.23581719  1.62864870
  C -1.23293847 -1.08318392  0.45733421
  H  0.66680518 -2.74431877 -2.59028055
  H -0.93389647 -1.96073501 -2.65796954
  H -0.52924241 -3.06788217 -1.31273555
  H  5.38139845 -0.63780234  1.85417902
  H  4.89780904 -1.48025078  0.35138940
  H  5.84752163  0.03560940  0.27052584
  H -3.43842365  2.56008545  0.33728363
  H -2.64997757  1.41687252 -0.73402307
  H -3.11342046  1.24550874  2.27305022
  H -3.74756178  0.18792233  1.01275728
  H -0.90485438  0.28322176  2.10800195
  H -2.13201651 -0.93935381  2.36725244
  H -2.07912178 -1.55398169 -0.04682782
  H -0.58787078 -1.86851081  0.86236652
