47
opt_min/./Product_1738_opt.xyz
 Cl -0.23603908  0.26594891 -2.63827211
  C -0.18328660  0.82809949 -0.95502626
  C  0.67544107 -0.03547097  0.04665748
  C  1.20602740 -1.39808670 -0.36519542
  C  2.43951971 -1.83416041  0.11479034
  C  2.91737832 -3.09453231 -0.19064960
  C  2.17136396 -3.95528016 -0.97621754
  C  0.93497455 -3.54391650 -1.43533489
  C  0.45137100 -2.28402275 -1.12663911
  C  1.79138109  0.96387326  0.43080483
  C  2.68891443  1.18288290 -0.79673769
  C  1.85195634  2.12928278 -1.67718949
  C  0.52344573  2.20801249 -0.91515176
  C  1.04272927  2.28971202  0.51732341
  C -0.31271480 -0.24654420  1.24580208
  C -0.91785570 -1.57745615  1.27339642
  N -1.53457070 -2.53388388  1.38348588
  C  0.33356526 -0.09776286  2.54112948
  N  0.81104614 -0.00744311  3.57455311
  N -1.35600897  0.76678443  1.08071292
  C -1.61783045  0.90170603 -0.34248922
  C -2.63074526 -0.19422697 -0.78881301
  C -3.99678572 -0.05231472 -0.16933284
  O -2.37625100 -1.08751460 -1.54407304
  C -2.29344253  2.23884512 -0.71353814
  C -2.51838591  3.21339329  0.40889727
  O -2.66956371  2.43400174 -1.83816378
  H  3.04432759 -1.19731736  0.74100185
  H  3.87793775 -3.40319780  0.19433977
  H  2.54634284 -4.93876818 -1.21605609
  H  0.32806247 -4.20611594 -2.03341846
  H -0.52774179 -2.01818432 -1.48366604
  H  2.33285178  0.68638062  1.33248175
  H  3.63391489  1.63714457 -0.50075899
  H  2.90690118  0.24818141 -1.30996179
  H  1.73678438  1.76309813 -2.69306614
  H  2.29456318  3.12406656 -1.72526791
  H -0.11742885  3.01601528 -1.26156285
  H  0.28161348  2.31113891  1.29221511
  H  1.71655862  3.13334260  0.65719351
  H -2.18053406  0.55042407  1.63305791
  H -4.67098913  0.28884021 -0.95540173
  H -4.03976924  0.65325303  0.65460336
  H -4.34196531 -1.03279691  0.15477261
  H -1.64176251  3.28864538  1.04310673
  H -3.34938419  2.87304475  1.02431109
  H -2.77495610  4.18417748 -0.00800992
