49
opt_min/./Product_1203_opt.xyz
  C  1.12236700  0.79173300 -2.18891300
  C  0.62297939  0.82651655 -0.74537824
  C -0.92385359  0.89096347 -0.65016027
  C -1.15746030  2.08097951  0.28465295
  C -0.85340183  3.34497016 -0.53531007
  C  0.68689549  3.34423164 -0.62608267
  C  1.07411194  2.04424916  0.08531835
  C  0.05087510  2.02614724  1.22204616
  C -1.31949408 -0.51987647 -0.13472112
  C -1.84819144 -1.38379223 -1.30525612
  N -2.39254245 -2.54410937 -0.91496518
  C -2.91417059 -3.49193683 -1.87200641
  O -1.70666157 -1.06298612 -2.46421619
  C -2.33489108 -0.45548041  0.98842206
  O -3.53007624 -0.45118405  0.83457298
  O -1.73737155 -0.39291748  2.17814208
  C -2.57417441 -0.29036354  3.32176752
  N -0.10534341 -1.15548726  0.31136701
  C  0.91872526 -0.46450989  0.00258661
  C  2.23474473 -0.90033179  0.46305379
  C  2.28466942 -1.73072760  1.58569104
  C  3.49382511 -2.16475000  2.08950292
  C  4.67978119 -1.78038233  1.48329148
  C  4.64145099 -0.95896318  0.36985230
  C  3.43176537 -0.51877131 -0.13698311
  H  2.17000484  1.07386161 -2.25892909
  H  0.98914429 -0.20426034 -2.60595879
  H  0.54416199  1.48029170 -2.80007602
  H -1.39745835  1.03722683 -1.62111549
  H -2.13675133  2.09551432  0.76258403
  H -1.32333967  3.30122040 -1.51723587
  H -1.22017293  4.23606670 -0.02576971
  H  1.04988753  3.40055352 -1.64954964
  H  1.10812638  4.19082677 -0.08085247
  H  2.12273750  1.99008207  0.37758596
  H  0.09038041  1.12503510  1.82967577
  H  0.11744900  2.90404172  1.86325876
  H -2.47864871 -2.75126597  0.06551595
  H -2.26644140 -3.49455422 -2.74851269
  H -3.92105783 -3.20956714 -2.19075447
  H -2.94120035 -4.48219107 -1.42464486
  H -2.78279108 -1.28717554  3.71484233
  H -2.02804800  0.29551230  4.05826056
  H -3.51459875  0.19701718  3.05747127
  H  1.35391362 -2.01831837  2.04933158
  H  3.51865117 -2.80481876  2.95962717
  H  5.62595589 -2.11992922  1.87749175
  H  5.56140776 -0.65734868 -0.11089774
  H  3.43465967  0.11232475 -1.00954478
