37
opt_min/./Product_663_opt.xyz
  N  1.39313706 -2.54940896  1.92373001
  C  1.18075806 -1.59793460  1.31468546
  C  0.94405923 -0.43156346  0.58874433
  C -0.25340152  0.14367930  0.25803298
  C -1.58866677 -0.30014076  0.61325770
  C -1.84242400 -0.82288863  1.88213155
  C -3.11353193 -1.24692749  2.21558614
  C -4.14165943 -1.16507005  1.29063877
  C -3.89446119 -0.65819562  0.02554630
  C -2.62781930 -0.22364554 -0.31358138
  C  0.09339621  1.30295984 -0.55963507
  C -0.84947218  2.34734389 -1.05385009
  C -0.44586593  2.93269498 -2.37130577
  O -1.81817163  2.67829733 -0.41591276
  N  1.36192498  1.42768561 -0.74800306
  C  2.03477598  0.37527419 -0.06418572
  C  2.79377985 -0.57218290 -1.01959183
  O  3.64332129 -1.29419927 -0.30090010
  C  4.43771734 -2.26869619 -0.97618267
  O  2.57924303 -0.67074110 -2.18932015
  C  3.10324780  1.04164594  0.85990851
  C  2.81072027  0.94252129  2.32292942
  O  4.05124538  1.58715252  0.38439659
  H -1.04491159 -0.87728887  2.60839522
  H -3.30279763 -1.64147127  3.20258473
  H -5.13483891 -1.49632311  1.55526914
  H -4.69186293 -0.59810384 -0.69972210
  H -2.43516166  0.15647169 -1.30547353
  H  0.59861195  3.23069595 -2.31308194
  H -1.08266126  3.77494978 -2.62652060
  H -0.51732967  2.16660869 -3.14241398
  H  4.18282920 -3.24743506 -0.57037050
  H  5.48341307 -2.04038370 -0.77533461
  H  4.24026579 -2.23692188 -2.04810077
  H  2.82108509 -0.10257431  2.62921956
  H  3.56031060  1.49530759  2.88365155
  H  1.82054480  1.34734670  2.52866889
