58
opt_min/./Product_2427_opt.xyz
  C  4.01334283  1.10134006 -1.44544938
  N  2.68227621  0.53253669 -1.43224570
  C  1.98813893  0.47098860 -0.27979107
  O  2.46505414  0.85403194  0.76917147
  C  0.52432530  0.03145597 -0.42029362
  C -0.17392266 -0.76853177  0.75171160
  C  0.53209821 -1.65577019  1.83980687
  C  1.99964592 -1.55696266  2.12406512
  O -0.14452825 -2.51261625  2.34231059
  C -1.02727123 -1.80476526 -0.04802779
  C -0.10238920 -2.93322094 -0.53172252
  C  0.82867501 -2.20002196 -1.51342916
  C  0.16704357 -0.82093615 -1.65191106
  C -1.30593179 -1.12775346 -1.38393868
  C -0.99899939  0.30855988  1.51213290
  C -0.17912284  0.77116143  2.74142172
  N  0.11408583  2.08546279  2.81051782
  C  0.93116506  2.61305383  3.87813095
  O  0.16152048 -0.01903961  3.59115363
  C -2.35226805 -0.24773481  2.04675888
  O -2.45664605 -0.88536622  3.06201229
  N -3.40083814  0.06263119  1.25361897
  C -4.73442479 -0.39549837  1.56362478
  N -1.26991730  1.32472840  0.52513995
  C -0.22943558  1.40835031 -0.47216393
  C  0.62427992  2.57054883 -0.24270484
  N  1.14262104  3.57060520 -0.03569920
  C -0.88764558  1.82826791 -1.80862677
  O -2.02958395  2.18967269 -1.88070489
  O -0.01374348  1.86933973 -2.81077651
  C -0.49879257  2.37236323 -4.05346041
  H  4.71972802  0.42519563 -0.96020455
  H  4.01116937  2.04248296 -0.89307578
  H  4.32114984  1.27586525 -2.47181437
  H  2.26061394  0.29072293 -2.31086617
  H  2.18578856 -2.05940858  3.06897317
  H  2.54109754 -2.07757064  1.33290838
  H  2.35271216 -0.53518940  2.17190363
  H -1.88644697 -2.15690085  0.51400607
  H  0.43414836 -3.44267617  0.26152221
  H -0.70284300 -3.68224577 -1.04986619
  H  1.84494633 -2.11145922 -1.12888711
  H  0.87773064 -2.70575062 -2.47787628
  H  0.37765259 -0.34390367 -2.60744470
  H -1.72123765 -1.82031618 -2.11469778
  H -1.95372234 -0.26000803 -1.32243469
  H -0.05327414  2.71218911  2.04170281
  H  1.23983853  1.77591585  4.50163845
  H  0.35863144  3.32137749  4.47988196
  H  1.80967912  3.10951009  3.46586461
  H -3.27721961  0.64723855  0.44054521
  H -5.26469285 -0.63311991  0.64313899
  H -4.65210164 -1.28532779  2.18655613
  H -5.29511778  0.36248574  2.11739539
  H -1.59905239  2.21170140  0.88476980
  H -1.08478835  1.60415710 -4.56144695
  H  0.37822143  2.63313397 -4.63959404
  H -1.12664396  3.24759009 -3.88312469
