45
opt_min/./Product_4808_opt.xyz
  C -2.11934522 -2.94850687  1.17232991
  C -1.75697469 -1.86766072  0.20121264
  C -2.49105617 -1.90386636 -1.11158676
  C -0.84408401 -0.94919951  0.49887261
  C -0.45446616  0.20121043 -0.37563889
  C -1.10137096  1.48909361  0.18924710
  C -1.84255930  2.36388343 -0.79511784
  C -3.10853121  2.96333725 -0.26641833
  C -1.38350187  2.61472691 -2.01160182
  C  0.11679722  2.22160209  0.71775430
  C -0.03273942  3.40378865  1.47499678
  N -0.20399557  4.33690680  2.11785156
  N  1.23850687  1.70121353  0.45851904
  C  1.08574428  0.51664060 -0.34339766
  C  1.62627107  0.84936071 -1.75465205
  C  1.56452416 -0.26483723 -2.76797801
  O  2.10902397  1.91803378 -2.01436988
  C  2.01345837 -0.56802046  0.17673463
  C  3.13018665 -0.18413328  0.91002275
  C  4.02383937 -1.13062580  1.37794833
  C  3.81772791 -2.47301513  1.11070955
  C  2.71469622 -2.85968537  0.37052461
  C  1.81886170 -1.91604484 -0.10152335
  H -1.53126447 -2.87581487  2.08292302
  H -1.95135926 -3.92738659  0.72378055
  H -3.17620798 -2.88013773  1.43003812
  H -1.80419767 -2.06126224 -1.94308759
  H -3.02147170 -0.96959704 -1.28918872
  H -3.21573855 -2.71366310 -1.11800291
  H -0.36663247 -0.96520840  1.47014665
  H -0.79416903  0.03785241 -1.39799952
  H -1.76878973  1.24524538  1.02229148
  H -3.57421091  3.60493864 -1.00939776
  H -3.81224564  2.17846074  0.01227920
  H -2.89779643  3.55694809  0.62318607
  H -1.92827515  3.25916538 -2.68027081
  H -0.45697803  2.21601035 -2.38621915
  H  0.78864252 -0.99236604 -2.56193025
  H  2.52921651 -0.77103316 -2.75617086
  H  1.42737010  0.16372017 -3.75865220
  H  3.28760622  0.86361658  1.11113149
  H  4.88412647 -0.81589937  1.94920441
  H  4.51443965 -3.21412297  1.47362598
  H  2.54748437 -3.90445750  0.15318280
  H  0.96465866 -2.24508962 -0.67052343
