46
opt_min/./Product_5235_opt.xyz
  C -0.95507200 -1.47618700  1.38099800
  C -0.05567400 -2.46965053  2.04033679
  C  1.14136535 -2.73077690  1.53000633
  N  1.63548864 -2.13373208  0.38433728
  C  2.91586954 -2.56957184 -0.11157773
  C  0.80624377 -1.29176097 -0.40020978
  C -0.72166580 -1.49206464 -0.13709632
  C -1.21217720 -2.79957605 -0.74394872
  N -1.07013854 -2.90537714 -2.09297935
  O -1.63461939 -3.72185173 -0.08757527
  C -1.29896863 -0.20910469 -0.77503099
  C -2.57553207  0.27029015 -0.12233158
  C -2.66817092  1.53277299  0.44200294
  C -3.85466732  1.95279461  1.01850892
  C -4.95685087  1.11750880  1.02931827
  C -4.87352156 -0.14085173  0.45502530
  C -3.68961710 -0.56145357 -0.12095147
  O -0.26082947  0.75442037 -0.70893609
  N  0.89979513  0.13296833 -0.14652728
  C  1.88507113  0.96747385  0.31720523
  C  1.53422041  2.09240061  1.07030118
  C  2.50688448  2.93922048  1.55718757
  C  3.84790958  2.68311179  1.31755351
  C  4.20208519  1.58416896  0.55360358
  C  3.23473110  0.74352092  0.03789117
  H -0.73376052 -0.46955439  1.75228312
  H -1.99905721 -1.69688475  1.59834363
  H -0.41265265 -2.99350715  2.90798913
  H  1.80914492 -3.45014131  1.97539759
  H  3.07268917 -3.61864251  0.14531695
  H  3.73910821 -1.98943598  0.31632051
  H  2.94755601 -2.48317085 -1.19927028
  H  1.01605569 -1.49832791 -1.47312517
  H -1.45407392 -3.73780803 -2.51276274
  H -0.94865462 -2.11254952 -2.69832292
  H -1.52055426 -0.35617741 -1.84756768
  H -1.80716590  2.18223442  0.41771119
  H -3.91460835  2.93731018  1.45834084
  H -5.88213121  1.44412335  1.48008535
  H -5.73213947 -0.79520343  0.45609006
  H -3.62236685 -1.54529183 -0.56418869
  H  0.49007918  2.28966804  1.25754808
  H  2.21905371  3.80194324  2.14029513
  H  4.60703328  3.34138890  1.71154880
  H  5.24254027  1.39043961  0.33353348
  H  3.51995581 -0.07549551 -0.60028716
