36
opt_min/./Product_4731_opt.xyz
  C -1.07778300  2.09250700  1.46528600
  O -1.98579105  2.33880026  2.22389991
  C -0.65192850  3.03643365  0.41793354
  C  0.55518161  3.00972419 -0.15025549
  C  1.58269027  2.02189432  0.21053333
  O  2.74745438  2.13099676 -0.07811123
  C  1.08865540  0.77260065  0.92820823
  C -0.32660714  0.78063979  1.52660536
  C -1.02983289 -0.34542147  0.68274708
  C -2.29922858 -0.94632607  1.26070925
  C -3.52695935 -0.10661592  1.15903512
  O -2.28306470 -2.05285095  1.73877886
  C -1.10419993  0.31378366 -0.72555670
  O -2.05119764  0.79790068 -1.27062586
  O  0.13497049  0.28636754 -1.19978562
  C  0.95326768 -0.33356323 -0.15359618
  C  2.25396772 -0.88565343 -0.74649728
  N  2.96403420 -1.56030583  0.17927255
  C  4.22602140 -2.18893305 -0.13495294
  O  2.57918987 -0.72215603 -1.89339081
  N  0.08752900 -1.27402850  0.49384920
  C -0.21714835 -2.49182086 -0.24363804
  H -1.38321741  3.79202843  0.16440495
  H  0.85498023  3.73562630 -0.89344017
  H  1.83730785  0.48674742  1.67044439
  H -0.31322338  0.42537191  2.56183140
  H -4.37203987 -0.66015034  1.56019709
  H -3.69805316  0.14062312  0.11084639
  H -3.41298154  0.83015996  1.70021688
  H  2.56098626 -1.73865204  1.08579880
  H  4.17142009 -3.26661228  0.02397783
  H  5.02032692 -1.77431494  0.48743934
  H  4.44522876 -1.98127969 -1.18041051
  H -0.68698562 -3.19249373  0.44180963
  H -0.88812902 -2.31158781 -1.09141945
  H  0.71041502 -2.91294552 -0.62499203
