38
opt_min/./Product_404_opt.xyz
  F -0.06924700  0.97956100  1.70545100
  C  0.15563276  0.34402655  0.48956406
  C -0.12386332 -1.17020108  0.54845227
  C  1.18807796 -1.75750600 -0.00001306
  C  2.23671006 -1.60671930  1.10862845
  C  2.49184827 -0.08795901  1.15747427
  C  1.61072494  0.45024998  0.02211194
  C  1.65114392 -0.69030660 -0.99382304
  C -1.44993949 -1.31212910 -0.27069557
  C -1.45167154 -2.35271309 -1.42219993
  C -2.76695572 -3.02914452 -1.65519639
  O -0.47896712 -2.55752936 -2.08895876
  C -2.58836049 -1.62998178  0.72130959
  C -3.71629012 -0.64403689  0.75981862
  O -2.51079602 -2.58083657  1.45481470
  N -1.68393311 -0.04801307 -0.91073647
  C -0.85940460  0.83709007 -0.53012551
  C -0.89645782  2.21422945 -1.10234078
  C -0.60706364  3.34628120 -0.15549939
  O -1.15559610  2.38323496 -2.26745617
  H -0.29852389 -1.54112891  1.56062032
  H  1.09607746 -2.76829828 -0.38412236
  H  1.89341057 -2.00333132  2.06450891
  H  3.14449837 -2.14488084  0.83313388
  H  2.20013179  0.34784100  2.11315266
  H  3.53993100  0.15147326  0.97989967
  H  1.88108621  1.44506530 -0.32597866
  H  2.65350630 -0.87950067 -1.37360618
  H  0.97428383 -0.55851553 -1.83619769
  H -3.57648330 -2.30254676 -1.66548024
  H -2.73783101 -3.57104166 -2.59754081
  H -2.95178590 -3.73409778 -0.84455322
  H -3.90904061 -0.22540414 -0.22362864
  H -4.60334928 -1.10490264  1.18813492
  H -3.40805454  0.16932331  1.42020025
  H -0.06892116  3.03184953  0.72955253
  H -0.05075281  4.12003884 -0.68254374
  H -1.56035157  3.77993350  0.14837941
