39
opt_min/./Product_3557_opt.xyz
  C  1.58935932 -1.46100000  1.08424751
  C  1.00693469 -1.01096688 -0.25984744
  C  1.70680865 -1.82686733 -1.34877350
  C -0.55592723 -1.09932369 -0.27862140
  C -1.06848711 -1.36366997 -1.70410247
  C -1.08611969 -2.28753128  0.53751463
  C -1.02690572  0.30098289  0.28007016
  C -2.05863982  0.99643130 -0.62652658
  C -1.65349970  0.22296835  1.68227951
  N  0.21202407  1.07584679  0.40576304
  C  0.13010313  2.51233624  0.48052492
  C  1.24862276  0.51282599 -0.44027717
  C  2.64595848  1.00674155 -0.03756547
  C  1.08025417  0.92896037 -1.82918182
  N  0.95258388  1.35782778 -2.88407334
  H  1.16713084 -0.88995367  1.90697374
  H  2.66857104 -1.33205593  1.09391975
  H  1.38559355 -2.51598008  1.24642619
  H  1.40661930 -1.53256215 -2.35104851
  H  2.78394043 -1.68626459 -1.27135538
  H  1.50004891 -2.88795762 -1.22193244
  H -2.15594915 -1.37577141 -1.71520208
  H -0.73247672 -0.62050706 -2.41980679
  H -0.73164537 -2.34139358 -2.03818492
  H -0.83994546 -2.23781663  1.59149224
  H -2.16805013 -2.34071352  0.44106277
  H -0.67273978 -3.21278724  0.13817939
  H -2.35764940  1.94173121 -0.17883853
  H -1.64999963  1.20214515 -1.61160727
  H -2.95189226  0.38793170 -0.73247117
  H -0.95364462 -0.18372105  2.40654631
  H -1.92723348  1.22223756  2.01348893
  H -2.55221096 -0.38598688  1.67466191
  H  1.06044047  2.89943925  0.89537589
  H -0.67501222  2.79206596  1.15758804
  H -0.04759531  2.99929897 -0.49062695
  H  2.78206067  2.04232206 -0.34324419
  H  3.40938165  0.41049107 -0.53365425
  H  2.77276905  0.93528771  1.03889736
