39
opt_min/./Product_4114_opt.xyz
  C -0.13951600 -1.19883000 -1.72817500
  C -0.12872023  0.30718079 -1.44006265
  C -1.53043679  0.85741572 -1.12469849
  C -2.63017800  0.53100673 -2.12780571
  C -1.71407281  0.35608705  0.34772568
  C -2.46103175 -0.97878636  0.50545624
  C -1.77183436 -2.02197464  1.34784111
  O -3.55978744 -1.14435239  0.04423221
  C -2.54677286  1.42721713  1.08117794
  C -1.75940249  2.26248660  2.05710921
  O -3.71470150  1.58576641  0.85963102
  O -0.39570976  0.25561722  0.87293523
  C  0.55242944  0.66816369 -0.11009145
  C  1.89542166  0.05787390  0.21479923
  C  2.31744618  0.09918950  1.53822989
  C  3.54548775 -0.42001469  1.90347554
  C  4.37711168 -0.97342733  0.94507239
  C  3.97199035 -1.00009543 -0.37790568
  C  2.73697804 -0.49066190 -0.74223228
  H  0.32973479 -1.74426787 -0.91351113
  H  0.39693452 -1.42755781 -2.64511081
  H -1.15687858 -1.56231330 -1.84084670
  H  0.32322449  0.85819286 -2.26551540
  H -1.44944747  1.94981454 -1.07360098
  H -3.12170276 -0.41314838 -1.91851577
  H -3.39615499  1.30154128 -2.09653727
  H -2.21121437  0.49599873 -3.13108053
  H -1.47221483 -2.84605955  0.70325598
  H -2.49049044 -2.41201064  2.06700767
  H -0.90221603 -1.62347559  1.85792180
  H -1.07229059  2.90672420  1.51134292
  H -2.44279195  2.87779501  2.63713878
  H -1.17262600  1.62253910  2.70921971
  H  0.67286577  1.76357889 -0.05640754
  H  1.66702064  0.52505542  2.28656174
  H  3.85866004 -0.39001265  2.93731363
  H  5.33971220 -1.37332793  1.22480857
  H  4.61858958 -1.41869826 -1.13500914
  H  2.44662664 -0.49552994 -1.77991778
