52
opt_min/./Product_1840_opt.xyz
  C  4.97954300  1.17344100  1.18201000
  C  3.72070065  1.50505472  0.42017444
  O  3.43162469  2.64126651  0.11086816
  C  2.85377754  0.38376044  0.05959076
  C  2.77357640 -0.89811947  0.46623000
  C  3.59407363 -1.73306122  1.37216690
  C  1.51332341 -1.42121868 -0.21329877
  C  0.37615111 -0.79865252  0.65594866
  C  0.40068619  0.65222389  0.13137008
  C  1.63395891  0.58778485 -0.82614423
  O  1.46481494 -0.68948568 -1.41096104
  N -0.82614520  0.80538864 -0.59301753
  C -1.42463296  1.99719397 -0.89544424
  C -0.75061144  3.20283634 -0.65661974
  C -1.34504865  4.41022277 -0.95977347
  C -2.61190742  4.46207668 -1.51480666
  C -3.27798982  3.27667834 -1.77438985
  C -2.69578781  2.06104601 -1.48208100
  N -1.40714154 -0.47725016 -0.82768132
  C -1.04161048 -1.29308718  0.32162240
  C -1.02356197 -2.78891435 -0.00247063
  N -1.18766865 -3.05082038 -1.30055494
  C -1.17367247 -4.38589979 -1.84793880
  O -0.84371409 -3.62564881  0.86544000
  C -1.99881669 -1.01618080  1.50981014
  O -2.91697080 -0.23271649  1.38701495
  N -1.73580933 -1.71544721  2.62001719
  C -2.52705012 -1.52036296  3.81904895
  H  5.55346560  0.41415739  0.65822362
  H  5.57483924  2.07692568  1.29136233
  H  4.72387959  0.79207913  2.16787997
  H  3.18215843 -2.73775753  1.43493398
  H  3.63161619 -1.30940104  2.37603254
  H  4.61673586 -1.79497258  1.00153031
  H  1.45425433 -2.49048141 -0.39729523
  H  0.60522273 -0.90178231  1.71549660
  H  0.48974832  1.41566533  0.90754611
  H  1.69423739  1.37905533 -1.56580097
  H  0.24703701  3.19925465 -0.24672840
  H -0.80649791  5.32598222 -0.76321005
  H -3.06806751  5.41136931 -1.75064068
  H -4.26346849  3.29791064 -2.21668647
  H -3.24390584  1.15861039 -1.70516351
  H -2.41935934 -0.37227050 -0.89921506
  H -1.23058051 -2.26257080 -1.93469382
  H -1.21006014 -5.08981152 -1.01758526
  H -0.26333396 -4.55861917 -2.42612743
  H -2.03913878 -4.53497563 -2.49324516
  H -1.04321685 -2.45052867  2.61477735
  H -2.13162562 -2.14107385  4.61716064
  H -3.57086414 -1.78302125  3.63448381
  H -2.49373084 -0.46987187  4.11260048
