34
opt_min/./Product_4043_opt.xyz
  C  0.31797500 -1.66155601  2.42817499
  O  0.65149402 -2.75929486  2.80968122
  C -0.63284061 -0.83143627  3.19733029
  C -1.11156327  0.32821082  2.74245554
  C -0.75574150  0.79394930  1.38402112
  O -1.56583474  1.30410699  0.64893279
  C  0.67104018  0.45765830  0.99506304
  C  0.87121502 -1.05096154  1.16317337
  C  0.22833899 -1.61284689 -0.16731574
  C -1.12219591 -2.30356472  0.03600688
  C  1.14289088 -2.57640439 -0.76345358
  N  1.85002657 -3.31904744 -1.26688574
  N  0.11435233 -0.47464134 -1.08819271
  C  0.86865084  0.64103158 -0.52163584
  C  0.39218486  2.02727513 -0.97408861
  N -0.15079021  2.04594494 -2.20496900
  C -0.56757009  3.26881104 -2.84505996
  O  0.56173563  3.01084761 -0.28618856
  C  2.34261560  0.53789342 -0.93907392
  H -0.93665853 -1.24516559  4.14964923
  H -1.85644371  0.89948387  3.27539587
  H  1.35160547  1.05415212  1.60420787
  H  1.93987726 -1.29014471  1.14473434
  H -1.85043081 -1.59725485  0.43401796
  H -1.02757356 -3.14022212  0.72366942
  H -1.48319608 -2.67948169 -0.91905599
  H -0.86193786 -0.22136663 -1.20491981
  H -0.15661141  1.19694716 -2.74758154
  H -0.59576071  4.04414480 -2.08212206
  H  0.13608058  3.56223185 -3.62817173
  H -1.55888572  3.14772770 -3.28127494
  H  2.45240472  0.85601523 -1.97301234
  H  2.70140977 -0.48529145 -0.86660551
  H  2.95668592  1.18073898 -0.31389626
