39
opt_min/./Product_3934_opt.xyz
  C  0.32459400 -2.25792000  0.17105900
  C -0.36353211 -1.07809415 -0.52052807
  C -0.86846285 -1.51821459 -1.90033102
  C -1.50817662 -0.42421609  0.35208164
  C -2.88104362 -1.05514169  0.15415064
  C -1.16370179 -0.38685727  1.84898330
  N -1.49495539  0.96457298 -0.12796336
  C -2.26854271  1.96590127  0.32643338
  C -1.95934762  3.33195499 -0.25623417
  O -3.15976896  1.78687689  1.13876574
  N -0.42452902  1.10074779 -1.07082107
  N  0.49560801  0.08485094 -0.74255813
  C  1.74490469  0.38403988 -0.23028607
  C  2.84699606 -0.40901890 -0.56387310
  C  4.10434653 -0.09650598 -0.08717323
  C  4.30395656  1.02345122  0.70416600
  C  3.22474263  1.83169492  1.01834259
  C  1.96001296  1.51713136  0.56443479
  H  1.39417962 -2.09308228  0.24406359
  H  0.16023583 -3.16520043 -0.40228601
  H -0.04710866 -2.41957413  1.17421589
  H -1.30122332 -0.67939936 -2.43608367
  H -0.02834158 -1.90050391 -2.47496323
  H -1.60881273 -2.30740628 -1.80976556
  H -3.23830226 -0.89034078 -0.85859076
  H -2.82935783 -2.12141792  0.35263945
  H -3.58769852 -0.58931367  0.83470882
  H -0.12878975 -0.09048661  2.01102762
  H -1.33961693 -1.34623065  2.32643322
  H -1.81742021  0.33888025  2.32660874
  H -0.95858346  3.65911422  0.02467066
  H -2.04125343  3.31634794 -1.33978024
  H -2.67512383  4.03994243  0.15111962
  H  0.01484442  2.02017676 -1.00711210
  H  2.71279805 -1.25959571 -1.21387978
  H  4.94194856 -0.72632024 -0.34998797
  H  5.29170595  1.26320426  1.06550070
  H  3.36280406  2.70984163  1.63179769
  H  1.12792379  2.15103453  0.84261876
