51
opt_min/./Product_5630_opt.xyz
  C -1.32615000 -1.28382600  1.61059500
  C -1.01709852 -2.75077684  1.55987008
  C -0.17641435 -3.22937784  0.64259198
  N  0.38765175 -2.46670216 -0.33718740
  C  1.36419284 -2.99038467 -1.24752360
  C  0.04588839 -1.09343073 -0.47566805
  C -1.28909438 -0.70917247  0.18830826
  C -2.44315212 -1.27937407 -0.64433081
  N -3.68412076 -1.08726900 -0.12353709
  O -2.28031694 -1.82477789 -1.71116552
  C -1.21124981  0.84615901  0.14810603
  C -1.60495637  1.39134929 -1.23575092
  C -2.03456536  1.47509878  1.28478349
  C -3.32738048  2.15941640  0.91225774
  O -1.66062563  1.42635434  2.42793722
  N  0.19612401  1.08637093  0.46761955
  C  0.71002533  2.41304183  0.24540934
  C  1.03381975 -0.04840300  0.11565331
  C  2.15492597  0.33407500 -0.85307548
  O  1.74648664  0.34220062 -2.12573674
  C  2.71348787  0.69394495 -3.10853638
  O  3.26774542  0.63495014 -0.50850666
  C  1.78564242 -0.57272088  1.36335981
  O  2.25539380 -1.67512636  1.45577920
  O  1.87001164  0.37355486  2.28497484
  C  2.54703387  0.06637392  3.49637396
  H -0.58177902 -0.75615717  2.21523468
  H -2.28920003 -1.10836790  2.09484026
  H -1.45035735 -3.39465317  2.30450150
  H  0.08387780 -4.27588326  0.60902501
  H  2.35338769 -2.56225941 -1.04612431
  H  1.42749802 -4.06863213 -1.13282621
  H  1.08158017 -2.75971265 -2.27959918
  H -0.04265696 -0.88539524 -1.54893732
  H -4.44254163 -1.59156881 -0.55194869
  H -3.80414076 -0.80969683  0.83511473
  H -2.58925232  1.04463515 -1.53338458
  H -0.89182771  1.04626413 -1.98019035
  H -1.59850610  2.47745670 -1.24542793
  H -3.88943316  2.37135478  1.81923936
  H -3.92213371  1.55422046  0.23536826
  H -3.10448724  3.10215908  0.41899783
  H  0.88044188  2.65698262 -0.81321555
  H  1.65081228  2.51089430  0.78494855
  H  0.00509599  3.13069928  0.66230867
  H  3.40037580  1.44203203 -2.70883996
  H  3.27828311 -0.19310070 -3.40032898
  H  2.16333202  1.08587346 -3.96082250
  H  2.88296638 -0.97212752  3.48275048
  H  1.85141530  0.23086957  4.31872170
  H  3.40110999  0.73696950  3.58793108
