54
opt_min/./Product_1998_opt.xyz
  C -3.05417940  1.69548908  0.40791419
  C -2.15129208  0.59781807  0.93230881
  O -2.27032592  0.17694108  2.05076584
  C -1.03413779  0.12627048 -0.00849954
  C -0.39186106 -1.24809875  0.38577577
  C -0.97235855 -1.89499218  1.55423852
  N -1.38849452 -2.52801889  2.41170237
  C -0.70735070 -2.14359090 -0.83115090
  C -2.21763463 -2.41649256 -0.87958463
  C -2.80530908 -1.04958718 -1.28675585
  C -1.55700857 -0.15659565 -1.43228498
  C -0.56986171 -1.18019796 -2.00448040
  C  1.09134327 -0.88873386  0.76926838
  C  1.44275051 -1.66326143  2.07382983
  C  1.36093309 -0.87650141  3.34135036
  O  1.78944791 -2.81361667  2.00504925
  C  2.30331852 -1.14050040 -0.13265895
  C  2.43792895 -2.03556233 -1.18311442
  C  3.63962530 -2.14135474 -1.86822644
  C  4.72911807 -1.36949505 -1.51802344
  C  4.61598508 -0.48981170 -0.45515357
  C  3.42215769 -0.38595390  0.22943954
  O  1.03150775  0.49991602  1.05441554
  C  0.12861060  1.16546048  0.20148408
  C -0.30597349  2.37339550  1.06225695
  O -0.70279577  3.41818820  0.32931229
  C -1.07578239  4.59847431  1.03438418
  O -0.25758835  2.37573262  2.25903881
  C  0.82769421  1.68864288 -1.06284976
  H -2.67705113  2.16822716 -0.49188919
  H -4.03913888  1.27712281  0.20367551
  H -3.18809062  2.43189847  1.19773767
  H -0.12202254 -3.05857715 -0.83933455
  H -2.41936670 -3.17490509 -1.63663451
  H -2.61548766 -2.77369409  0.06783453
  H -3.33833842 -1.10849246 -2.23600096
  H -3.50180042 -0.68920917 -0.53505801
  H -1.71415201  0.73724618 -2.03265067
  H  0.43877481 -0.82119484 -2.17582727
  H -0.94338746 -1.61691109 -2.93092138
  H  2.32508059 -0.39457957  3.50071819
  H  0.60027198 -0.10364421  3.28081309
  H  1.16798171 -1.55182135  4.17074918
  H  1.64069656 -2.69097579 -1.47785450
  H  3.71595785 -2.84486199 -2.68461959
  H  5.66105906 -1.46032510 -2.05612744
  H  5.46111810  0.11010621 -0.15107615
  H  3.33747778  0.30635685  1.05306597
  H -1.94142561  5.01776319  0.52469367
  H -0.24693780  5.30707323  1.00799016
  H -1.31427379  4.35466708  2.07086634
  H  0.33118239  2.58050855 -1.43049841
  H  1.85058340  1.93903285 -0.78856964
  H  0.86484683  0.95732551 -1.85824648
