30
opt_min/./Product_3840_opt.xyz
  C -1.36071950  0.66724841 -1.24609433
  O -1.39242433  1.42481255 -2.18767128
  C -2.20343157  0.86999836 -0.05125508
  C -2.27565739  0.00355967  0.96253039
  C -1.54997373 -1.28113565  0.98054583
  O -1.51613364 -1.98610100  1.95881649
  C -0.93791154 -1.70687361 -0.34256938
  C -0.47360319 -0.55079994 -1.22762888
  C  0.95810439 -0.27440679 -0.68135271
  C  0.85761414  0.62999604  0.55915635
  O  0.53793031  1.88187439  0.22123370
  C  0.42238754  2.83864345  1.26826458
  O  1.03717863  0.25637869  1.68428393
  C  1.86877033  0.37936416 -1.71242715
  N  1.44614353 -1.56220113 -0.23606722
  C  0.35516014 -2.52480396 -0.13107916
  C  0.47372553 -3.54874030 -1.14800397
  N  0.61386656 -4.30538600 -1.99406862
  H -2.75965016  1.79863082 -0.04225210
  H -2.86567295  0.20516455  1.84646096
  H -1.69940096 -2.31533085 -0.84536662
  H -0.35908812 -0.89289791 -2.26468847
  H -0.63254260  3.01066317  1.48620995
  H  0.92694199  2.46808464  2.16251535
  H  0.88466582  3.75736352  0.91293648
  H  1.42331827  1.30390729 -2.07078220
  H  2.01661735 -0.28972042 -2.55966438
  H  2.83641990  0.59854104 -1.26563996
  H  2.23164611 -1.91054912 -0.76742283
  H  0.35108144 -2.99290186  0.86455102
