47
opt_min/./Product_1759_opt.xyz
  C  2.45537986 -0.10101932  3.32950411
  O  1.59088981 -0.15019534  2.20057865
  C  1.87506247  0.61761828  1.15739926
  O  2.85937649  1.29054014  1.04270560
  C  0.74551735  0.56650209  0.12533609
  C  0.25144348 -0.85041134 -0.32004242
  C  1.10996558 -2.02122188  0.16965026
  F  0.89931666 -2.43776697  1.42547493
  F  2.42788125 -1.79792905  0.10631777
  F  0.87324307 -3.11144170 -0.59433332
  C  0.32361812 -0.75374671 -1.87450785
  C  1.76979504 -0.78732915 -2.38418346
  C  2.35678665  0.51780123 -1.81796183
  C  1.13252655  1.22560485 -1.21628681
  C  0.00540508  0.72603825 -2.12036297
  C -1.22796901 -0.94901013  0.19535993
  C -2.24945724 -1.52098539 -0.79600365
  C -1.42149930 -1.70138502  1.55382237
  C -1.70411424 -3.17894918  1.51405304
  O -1.47141522 -1.06160366  2.56620638
  O -1.62551106  0.39397798  0.42818527
  C -0.52935973  1.20805622  0.77031891
  C -0.82072834  2.68732493  0.36136611
  C -2.26670928  3.02323275  0.17783105
  O  0.06557351  3.49460450  0.31020200
  C -0.41965602  1.39537295  2.22232447
  N -0.39677101  1.67230013  3.33106237
  H  3.44513617  0.24451545  3.02795616
  H  2.49536016 -1.11049744  3.73249240
  H  2.02253920  0.58271802  4.06153048
  H -0.30460803 -1.48948280 -2.36953871
  H  2.32940536 -1.67459112 -2.10692133
  H  1.74112769 -0.75957413 -3.47468742
  H  2.78780200  1.13569165 -2.60373151
  H  3.13099297  0.34229253 -1.07631128
  H  1.27413530  2.29789284 -1.12999018
  H -0.98553302  1.03379403 -1.79731523
  H  0.14329142  1.00966612 -3.16106252
  H -1.97034148 -2.51264898 -1.13720317
  H -3.21136027 -1.57422532 -0.29038395
  H -2.36225401 -0.86383894 -1.65359129
  H -1.34580799 -3.66946239  0.61645142
  H -1.24695126 -3.63748050  2.38834227
  H -2.78105012 -3.31806538  1.60137412
  H -2.85665807  2.15261053 -0.08760116
  H -2.36132131  3.81065957 -0.56634664
  H -2.63404236  3.41513231  1.12695103
