43
opt_min/./Product_4435_opt.xyz
  C -0.03442100 -1.56679300  1.19744800
  C -0.74540473 -1.06584961 -0.06230692
  C -0.99283920 -2.24292223 -0.99941261
  C  0.10404723  0.03007470 -0.77237917
  C  1.58843268 -0.04585125 -0.60215406
  C  2.24613001  0.57896015  0.37275995
  C  3.68557168  0.56520466  0.57912261
  C  4.53919779 -0.19332153 -0.39320218
  C  4.21761103  1.22444815  1.60748349
  C -0.52042878  1.28670252 -0.22418172
  C  0.09422090  2.61090449 -0.49398887
  O  0.04114517  3.41361742  0.56267960
  C  0.59356706  4.71669119  0.43296867
  O  0.59357977  2.89670897 -1.55657977
  N -1.62913617  1.14426261  0.36295718
  C -2.03305475 -0.24896893  0.34737443
  C -3.18850676 -0.33307312 -0.66237787
  C -2.55210259 -0.61529854  1.74331437
  C -3.33974517 -1.90041874  1.85242283
  O -2.35674348  0.08283953  2.70158111
  H -0.59477476 -2.37314715  1.66421071
  H  0.08303818 -0.76324480  1.91985326
  H  0.95252106 -1.94717320  0.94422736
  H -1.46929610 -1.93492560 -1.92579895
  H -1.60780957 -3.00741611 -0.52978576
  H -0.03673347 -2.70009563 -1.24665379
  H -0.11902360  0.00995139 -1.84815366
  H  2.10903494 -0.64218661 -1.33698961
  H  1.69021651  1.16301937  1.09727371
  H  5.58740685 -0.12055760 -0.11755832
  H  4.25620980 -1.24463414 -0.41203820
  H  4.41218826  0.21107069 -1.39649992
  H  3.61121701  1.77329573  2.30882687
  H  5.27843844  1.24095538  1.79132954
  H -0.22290037  5.43724573  0.36185915
  H  1.18582748  4.91724849  1.32442297
  H  1.21782620  4.77091436 -0.46160081
  H -3.98763513  0.32698131 -0.33370211
  H -2.85205202  0.01090434 -1.63701655
  H -3.57521129 -1.34102812 -0.75453291
  H -3.18939906 -2.32896863  2.84037456
  H -4.39608025 -1.65145276  1.76278786
  H -3.07942575 -2.62120281  1.08597095
