39
opt_min/./Product_4318_opt.xyz
  C -2.79303709  0.27826863 -0.54077758
  C -2.89267794 -1.14140268 -0.08029393
  C -1.80964468 -1.91731963 -0.07007565
  N -0.53923544 -1.49335782 -0.37065081
  C  0.37921984 -2.46493227 -0.92021612
  C -0.23370948 -0.09600170 -0.57595820
  C -1.40264904  0.83788686 -0.19642085
  C -1.27933657  2.12288993 -1.03447511
  N -1.95601614  3.20456425 -0.60543120
  O -0.71044137  2.11834346 -2.10752259
  C -1.23539197  0.91404400  1.34913820
  C -1.71215281  2.11234681  1.99936476
  N -2.09457648  3.02358461  2.57984325
  N  0.18093937  0.73430608  1.63547146
  C  0.88020420  0.42635847  0.39887693
  C  1.97558934 -0.59777281  0.71378599
  N  2.90229861 -0.75035485 -0.25200255
  C  4.05016757 -1.60969953 -0.08789565
  O  2.00101659 -1.21177906  1.76237422
  C  1.53600213  1.72142895 -0.11551766
  H -2.94572920  0.33978783 -1.62506137
  H -3.55919318  0.90336771 -0.07303665
  H -3.85281820 -1.52411224  0.21634002
  H -1.87028972 -2.95729087  0.21527505
  H  1.12191821 -2.78176875 -0.18397347
  H -0.17007131 -3.34512304 -1.24879989
  H  0.89766255 -2.04592557 -1.78531670
  H  0.06081535  0.08378715 -1.61984422
  H -1.89319135  4.03738802 -1.16716107
  H -2.37284733  3.27809661  0.30464643
  H -1.84768426  0.09017981  1.76223212
  H  0.34867163  0.00813642  2.32627356
  H  2.85846125 -0.17679089 -1.07695093
  H  4.26052202 -2.13191816 -1.01969206
  H  4.93023800 -1.03679734  0.21329759
  H  3.82242770 -2.33056394  0.69427652
  H  1.68200132  1.71059787 -1.19260976
  H  0.89720729  2.56856954  0.12145806
  H  2.48666277  1.87846032  0.38659120
