36
opt_min/./Product_140_opt.xyz
  C -1.14386700 -1.83136600  1.22506800
  C -0.69003189 -0.50544771  0.60470222
  C -0.06472342  0.31582203  1.73238776
  C  0.28349199 -0.67952194 -0.62828086
  C  0.63502460 -2.13881200 -0.94573365
  C  1.53653929  0.17115991 -0.52829048
  C  1.47661729  1.51344071 -0.88877234
  C  2.59383196  2.32188103 -0.80502061
  C  3.79728212  1.80365809 -0.35706584
  C  3.86633709  0.47141312  0.00470416
  C  2.74696666 -0.33949086 -0.08000051
  O -0.45977979 -0.17251003 -1.75794300
  N -1.83084201 -0.20304350 -1.47485298
  C -1.93094992  0.16002857 -0.06523731
  C -2.12140227  1.68863530 -0.01121969
  C -3.28583642  2.12277293 -0.85996441
  O -1.44884716  2.46108473  0.61460092
  H -0.29129445 -2.39251611  1.60130357
  H -1.80253042 -1.62317699  2.06788281
  H -1.68367224 -2.46541830  0.52175335
  H -0.81898015  0.53103221  2.48800983
  H  0.33404600  1.26077206  1.38415121
  H  0.74304227 -0.25658429  2.18657480
  H  1.26510439 -2.14830847 -1.83318104
  H  1.15970756 -2.61839383 -0.12563081
  H -0.26445340 -2.70752448 -1.16886879
  H  0.54452092  1.92419279 -1.24579468
  H  2.52402421  3.36084407 -1.09021667
  H  4.67096404  2.43521588 -0.28537689
  H  4.80071641  0.05050500  0.35119809
  H  2.83572755 -1.36993139  0.22539240
  H -2.16043398 -1.16385631 -1.61887938
  H -2.84901611 -0.27200011  0.34737809
  H -4.19984062  1.64052775 -0.52261050
  H -3.39469099  3.20474512 -0.81200625
  H -3.09862885  1.80715860 -1.88389999
