47
opt_min/./Product_4660_opt.xyz
  C  5.44710576  1.08906245  0.55817975
  C  4.28165237  0.45317934 -0.13412818
  C  4.60088908 -0.16069405 -1.46422157
  C  3.07580173  0.40167255  0.44841858
  C  1.89014466 -0.22810847 -0.07692955
  C  0.72503714 -0.21576928  0.57327400
  C -0.55994968 -0.83445365  0.11022325
  C -0.31654741 -2.05454011 -0.78134889
  C -1.42720900 -1.27371707  1.30350223
  C -2.88461310 -1.13066098  0.82096852
  C -3.72269027 -0.34440983  1.86374661
  O -5.02230518 -0.46596183  1.62112147
  C -5.91040263  0.19452993  2.51295768
  O -3.26191734  0.29472410  2.77169390
  C -3.50850604 -2.43480921  0.67027371
  N -3.99787835 -3.46504496  0.58986405
  N -2.78404362 -0.49460507 -0.48595024
  C -3.96753143  0.14090769 -1.00538383
  C -1.50371173  0.19278407 -0.59741053
  C -1.15224812  0.40540964 -2.07078554
  C -1.47823685  1.55162401  0.11523131
  H  6.17914721  0.32371619  0.83335378
  H  5.13383122  1.60014991  1.46461422
  H  5.94845973  1.79812942 -0.09746710
  H  5.05542389 -1.14536569 -1.32122412
  H  5.31625020  0.45763961 -2.00745115
  H  3.71692192 -0.28339383 -2.08052781
  H  2.95276105  0.87579648  1.41689390
  H  1.96694526 -0.73291246 -1.02765913
  H  0.67678026  0.29720655  1.52510653
  H -1.26956559 -2.50104576 -1.06101429
  H  0.22587727 -1.80259372 -1.68665416
  H  0.26660424 -2.79336725 -0.23476713
  H -1.20495239 -2.29947314  1.58944886
  H -1.27962052 -0.61959195  2.16320682
  H -5.67832877 -0.07765409  3.54465958
  H -5.83069598  1.28020216  2.40991334
  H -6.90851506 -0.14136617  2.24122958
  H -4.80671172 -0.54264106 -0.89255679
  H -4.21702097  1.09382826 -0.51305396
  H -3.81943071  0.32540696 -2.06878710
  H -1.41420667 -0.46497967 -2.66424924
  H -1.68532105  1.26604983 -2.47081268
  H -0.08571490  0.59847778 -2.15763408
  H -1.81687171  1.47002391  1.14608924
  H -2.11860470  2.26162136 -0.40467377
  H -0.46277734  1.94589653  0.11152407
