31
opt_min/./Product_208_opt.xyz
  C  4.07636200 -0.20383500  0.79973600
  N  2.69102258 -0.06546507  0.41898706
  C  1.73096853 -0.84422472  0.96476492
  O  1.95320418 -1.70541353  1.79025582
  C  0.36764059 -0.54581114  0.46224712
  C -0.08189103  0.42234512 -0.35514140
  O  0.61847527  1.35934082 -1.01652336
  C  0.00133832  2.62315176 -1.22747356
  C -1.62293520  0.24540491 -0.33310067
  C -2.48202089  0.80830717 -1.46501107
  C -2.27008615  0.04763681 -2.73803442
  O -3.24075625  1.72269403 -1.31277698
  O -1.99948414  0.72891402  0.98398616
  C -1.53862991 -0.20632298  1.83539047
  O -1.60682210 -0.16911647  3.02020488
  C -0.88763331 -1.28761963  0.91554356
  C -0.79595724 -2.68008022  1.46402551
  O -1.74436177 -1.13383173 -0.22051951
  H  4.36406401  0.55755313  1.53066779
  H  4.71691865 -0.11534614 -0.07718505
  H  4.20461415 -1.18431576  1.25882127
  H  2.46035448  0.66397704 -0.23727595
  H  0.77709167  3.25160300 -1.66293503
  H -0.33965344  3.05155045 -0.28151352
  H -0.84395689  2.55006346 -1.91268735
  H -2.75367609 -0.92344468 -2.61805502
  H -1.21325693 -0.13605174 -2.91612187
  H -2.72852849  0.57777962 -3.57048402
  H -0.16858196 -3.29617310  0.82652409
  H -0.35740117 -2.63083812  2.45708826
  H -1.79612623 -3.10312625  1.52442110
