34
opt_min/./Product_3495_opt.xyz
  C -2.59546504 -0.73947881 -1.22101903
  C -1.69323919 -0.16900815 -0.13907396
  C -0.55317595 -1.10885478  0.27534163
  C -1.02135860 -2.18804720  1.25171648
  C  0.60259736 -0.16904216  0.72432491
  C  1.86048919 -0.49705834 -0.12364400
  N  2.83748546  0.43350048 -0.04001926
  C  4.08818135  0.30272760 -0.74918952
  O  1.94331994 -1.47157362 -0.83697248
  C  0.97463056 -0.23162592  2.20657093
  N  0.09335897  1.17756800  0.45276279
  C -0.96463376  1.12307824 -0.54554122
  C -1.84096768  2.37961867 -0.46208736
  C -0.40735062  1.01559550 -1.88549731
  N  0.07404865  0.97413172 -2.92240222
  H -3.15956002  0.05282696 -1.71370852
  H -3.30545638 -1.44706444 -0.79612726
  H -2.00865619 -1.25535411 -1.98074114
  H -2.28577870  0.07538084  0.75057128
  H -0.17544392 -1.61199610 -0.62310759
  H -2.09720457 -2.32392296  1.16521098
  H -0.80184639 -1.94112097  2.28499057
  H -0.54162295 -3.13729822  1.02265716
  H  2.75180228  1.20388579  0.60490301
  H  4.91897457  0.15312948 -0.05556094
  H  3.99784259 -0.56611824 -1.40101949
  H  4.27779863  1.19119621 -1.35484210
  H  0.09134429 -0.04637749  2.81304249
  H  1.39722515 -1.20218949  2.45596023
  H  1.70542229  0.53813297  2.44628814
  H  0.81274457  1.85665055  0.23359537
  H -2.87995792  2.13477312 -0.67330396
  H -1.77480974  2.78301021  0.54653784
  H -1.51259183  3.13893587 -1.16989050
