36
opt_min/./Product_3696_opt.xyz
  C -0.33925600  0.73554500 -1.47381500
  C  0.99834589  1.37261373 -1.69350561
  C  2.00050683  1.09685160 -0.85988431
  N  1.87505627  0.28474378  0.23629632
  C  3.01799224  0.10608369  1.09580418
  C  0.59809066 -0.20842246  0.66152825
  C -0.60021162  0.54306601  0.02903468
  C -0.82362949  1.84680775  0.78301810
  N -0.92574464  2.97278241  0.03722018
  O -0.93512576  1.89414650  1.99272869
  C -1.70516635 -0.54605072  0.21576412
  C -2.94136067 -0.29475156 -0.64678912
  C -2.11008334 -0.76055578  1.68379495
  N -0.95022703 -1.68960150 -0.30465244
  N  0.33174085 -1.64127051  0.40142288
  C  1.33776620 -2.35307219 -0.35601303
  H -1.14155227  1.31072232 -1.93888306
  H -0.35206411 -0.25933422 -1.92982026
  H  1.14751158  2.00590502 -2.55151114
  H  2.98800310  1.51521258 -0.99512012
  H  3.51804588  1.06256982  1.27685093
  H  2.69569813 -0.29867895  2.05370083
  H  3.74644405 -0.58240226  0.65356767
  H  0.55132356 -0.08114147  1.75658068
  H -0.58072292  2.99478899 -0.90621926
  H -0.96881424  3.84713176  0.53692945
  H -3.74142847 -0.97465656 -0.36274092
  H -2.72080797 -0.45850233 -1.69780510
  H -3.29051797  0.72521537 -0.50476706
  H -3.10886429 -1.18698147  1.74285842
  H -2.09839095  0.17048933  2.24149217
  H -1.40869882 -1.44559785  2.15725041
  H -1.39255060 -2.57242684 -0.04732552
  H  0.97610531 -3.36856897 -0.51458188
  H  2.24873191 -2.39747843  0.23704401
  H  1.55940400 -1.90373110 -1.33324802
