57
opt_min/./Product_5467_opt.xyz
  C  0.67084800 -1.75819800 -1.30761200
  C -0.12715616 -1.06883781 -0.18791328
  C -0.31527261 -2.13282251  0.89666935
  C  0.57227621  0.17504096  0.42172392
  C  2.05986786  0.10396882  0.50267783
  C  2.71270874 -0.40145875  1.54853108
  C  4.15576352 -0.50292253  1.68660292
  C  5.02706450  0.13829511  0.64726812
  C  4.68265849 -1.15174340  2.72554519
  C  0.01792465  1.37090877 -0.38098478
  C  0.69497899  1.52698247 -1.76288282
  C  0.17462310  2.70639036  0.32683923
  C -0.26933296  3.86038402 -0.31927528
  C -0.13401946  5.10595319  0.26226390
  C  0.46362681  5.23201460  1.50514765
  C  0.92488014  4.09938997  2.14836077
  C  0.78401551  2.84986030  1.56513167
  N -1.39189653  1.00444482 -0.59660388
  C -2.38559411  1.68398209  0.19495933
  C -1.46035121 -0.45384628 -0.74763671
  C -2.70189289 -1.12383481 -0.21822607
  C -3.45040409 -1.90864511 -1.09002880
  C -4.57958649 -2.58248854 -0.66242395
  C -4.99077489 -2.48017261  0.65368060
  C -4.25894766 -1.70285632  1.53423004
  C -3.12642587 -1.03480832  1.10433452
  H  0.37982539 -2.80553121 -1.37037016
  H  1.73741366 -1.72494968 -1.09347227
  H  0.49371783 -1.31555558 -2.28458312
  H -0.94146397 -2.94718106  0.53624139
  H  0.66176704 -2.53772809  1.15738037
  H -0.76633222 -1.73360612  1.80009124
  H  0.16989906  0.26024876  1.43833376
  H  2.60946734  0.50503963 -0.33499069
  H  2.14875182 -0.79313753  2.38827877
  H  4.90334215 -0.36217880 -0.31194373
  H  6.07223261  0.07426715  0.93531028
  H  4.75888439  1.18625365  0.52095551
  H  5.74484828 -1.24376385  2.86610690
  H  4.06320155 -1.62488878  3.46841640
  H -0.04867736  1.85311097 -2.48573923
  H  1.48469342  2.27350159 -1.71855566
  H  1.12288892  0.59693301 -2.11146983
  H -0.72576908  3.77872600 -1.29368023
  H -0.49161106  5.98248015 -0.25834749
  H  0.57075418  6.20400136  1.96462286
  H  1.40273468  4.18232672  3.11335518
  H  1.17372603  1.99467213  2.09309162
  H -2.45217251  2.72113780 -0.13616967
  H -3.35361534  1.21806418  0.02056533
  H -2.18294263  1.69458980  1.27668388
  H -1.46462096 -0.63045725 -1.83441954
  H -3.14196141 -1.99623486 -2.12296030
  H -5.14099174 -3.18718359 -1.36120362
  H -5.87294286 -3.00195761  0.99143260
  H -4.56922893 -1.61752009  2.56531333
  H -2.57802897 -0.43469268  1.81234093
