37
opt_min/./Product_423_opt.xyz
 Cl  2.64935100 -0.82105200  1.05755000
  C  1.40113239 -0.46705859 -0.14999837
  C  0.45354486  0.68699427  0.25430141
  C  0.72618683  1.67372510 -0.91584129
  C  2.12227098  2.21153966 -0.65967651
  C  2.94572840  1.23255722 -1.00204900
  C  2.03990362  0.10067723 -1.45097075
  O  0.94046267  0.78923704 -2.00815524
  C -0.96079683  0.00559407  0.34289778
  C -1.84937663  0.19910156 -0.90289195
  C -2.65264666 -0.99233035 -1.33536971
  O -1.98760708  1.28073412 -1.41618399
  C -1.84463377  0.63211117  1.43683305
  C -1.84595060  2.13384313  1.46060912
  O -2.52696522 -0.03276674  2.17000470
  N -0.67137076 -1.41782898  0.53419870
  C -0.38130557 -1.78906700  1.91454196
  C  0.42907168 -1.64062264 -0.40545324
  C  1.00819010 -3.04936326 -0.41919746
  H  0.71979009  1.11128411  1.22164079
  H -0.05014680  2.39347260 -1.14345374
  H  2.33271386  3.17792121 -0.24760090
  H  4.01489838  1.18116590 -0.95261472
  H  2.45147637 -0.64033332 -2.12951220
  H -2.36280897 -1.89224984 -0.80696727
  H -3.69965554 -0.76631367 -1.13142897
  H -2.55155830 -1.11949639 -2.41197238
  H -2.67230374  2.47689378  2.07859904
  H -1.93911019  2.52875822  0.45212579
  H -0.91381264  2.50518489  1.88493503
  H  0.06621769 -0.97735150  2.49661796
  H  0.30367916 -2.63154027  1.93403614
  H -1.31415369 -2.08258885  2.39810526
  H  0.01506163 -1.41606087 -1.39910496
  H  0.34503390 -3.73092217  0.10746598
  H  1.10776564 -3.40312811 -1.44232939
  H  1.98873356 -3.07994071  0.05033611
