49
opt_min/./Product_5133_opt.xyz
  C -3.32034044 -0.50633961 -2.48970680
  C -2.91352484 -0.18565722 -1.08480921
  C -4.04376085  0.10567093 -0.13703691
  C -1.63552893 -0.16166057 -0.72740490
  C -1.12408057  0.14647265  0.64908928
  C  0.01928410 -0.80727308  1.05673497
  C -0.02702189 -1.21432129  2.50872444
  C -0.24240885 -0.14774250  3.54146926
  C  0.12320440 -2.48714340  2.84792681
  C  1.28828124  0.00532933  0.68260871
  C  2.51952949 -0.33832158  1.52248959
  C  1.66101297 -0.19542211 -0.78171568
  C  1.88955307  0.89890509 -1.60499159
  C  2.23728038  0.72158529 -2.93275571
  C  2.39346298 -0.55465518 -3.44259779
  C  2.20928491 -1.65028518 -2.61863715
  C  1.84476622 -1.47439334 -1.29561502
  O  0.93383818  1.36657071  0.94469051
  C -0.45199545  1.54331199  0.69894796
  C -1.07938247  2.47692828  1.77052443
  C -0.16015874  3.55067303  2.25386183
  O -2.22442200  2.34328006  2.11360542
  C -0.70530076  2.27154679 -0.53769804
  N -0.90936703  2.90544299 -1.46699245
  H -2.46281711 -0.78619089 -3.09572874
  H -3.79509545  0.36344912 -2.94284703
  H -4.04327516 -1.32246811 -2.49525770
  H -4.96731808  0.25839640 -0.68792138
  H -4.19041337 -0.72986528  0.54791131
  H -3.84581348  0.99705482  0.45576186
  H -0.86893726 -0.36475197 -1.46394885
  H -1.94675658  0.11396180  1.36343969
  H -0.03237973 -1.71195600  0.45036117
  H  0.38989846  0.71796539  3.34978600
  H -0.02494216 -0.53209193  4.53459973
  H -1.27730339  0.19176073  3.52994129
  H  0.10643309 -2.80083617  3.87742265
  H  0.26926359 -3.26467213  2.11750155
  H  2.33561654 -0.15927506  2.57678642
  H  3.35593062  0.27735774  1.19927382
  H  2.77253660 -1.38435998  1.38407261
  H  1.78818192  1.89605882 -1.20438009
  H  2.39809347  1.58468640 -3.56050057
  H  2.66577429 -0.69668255 -4.47794658
  H  2.35191690 -2.65017286 -3.00256256
  H  1.72305632 -2.33777303 -0.66170944
  H -0.55566900  4.01249097  3.15474111
  H -0.09011419  4.30537629  1.46642353
  H  0.83809864  3.15365734  2.41589994
