45
opt_min/./Product_1065_opt.xyz
  C -1.89515043  0.56537500  2.29581921
  C -1.00273704  1.12848204  1.22345599
  O -0.57898372  2.25604476  1.29644484
  C -0.64214860  0.22091370  0.05090021
  C -0.80799767  0.93442113 -1.34269602
  C -1.06510437  2.43244663 -1.37547664
  C -2.08472893  0.19159038 -1.88740669
  C -1.63952242 -1.16290862 -2.38464766
  C -1.35034111 -1.83668593 -1.28163347
  C -1.70967349 -0.91645039 -0.13220322
  O -2.76458940 -0.14207956 -0.68495740
  C  0.50745159  0.58733921 -2.07286145
  C  0.34786056  0.29290136 -3.47648625
  N  0.31429845  0.15005289 -4.61107791
  N  1.07240734 -0.51485863 -1.32301920
  C  2.35583464 -1.00974459 -1.76526997
  C  0.84271751 -0.26354684  0.08629301
  C  0.97643595 -1.62768486  0.81180694
  N  1.21485291 -1.61395080  2.14149272
  C  1.39585559 -2.84561549  2.88029030
  O  0.85302095 -2.66615055  0.20487011
  C  1.81736400  0.84344666  0.58915409
  C  1.87805144  1.31988295  2.02469773
  O  2.58337392  1.32207231 -0.20908992
  H -2.88222966  0.40850951  1.86303573
  H -1.97348342  1.28351818  3.10907285
  H -1.52347008 -0.38440515  2.67187380
  H -2.01306366  2.67092397 -0.89896033
  H -0.27579149  2.99137907 -0.87984855
  H -1.11342762  2.74612437 -2.41852849
  H -2.70951404  0.79222821 -2.54185630
  H -1.57317669 -1.45432320 -3.41159597
  H -0.96576107 -2.82551991 -1.15345752
  H -2.01668675 -1.42392311  0.77563418
  H  1.17104267  1.47676996 -2.04433330
  H  2.92868175 -0.24052263 -2.29232896
  H  2.94688752 -1.34966704 -0.91762030
  H  2.19845467 -1.85666907 -2.43698176
  H  1.45374944 -0.76849650  2.62605748
  H  0.84204224 -2.79634404  3.81746320
  H  1.01824126 -3.66282994  2.26963017
  H  2.45160918 -3.02336595  3.09522425
  H  2.83588996  1.01181561  2.44720425
  H  1.05196170  1.01568621  2.65817746
  H  1.88596488  2.40981334  1.99519165
