39
opt_min/./Product_3827_opt.xyz
  C  3.91185200  1.64384200 -1.03161300
  C  3.60362750  1.24025840  0.37582742
  C  4.55145508  1.77161828  1.41580101
  C  2.56423650  0.48660347  0.75265510
  C  1.54551868 -0.08852174 -0.08920041
  C  0.53901615 -0.82067407  0.38742969
  C -0.54274897 -1.46190479 -0.44820255
  C  0.08185035 -2.55799553 -1.31889996
  C -1.26790113 -0.42199636 -1.33470389
  N -2.41473104 -0.06522408 -0.54493637
  C -2.85732468  1.22182224 -0.38642854
  O -2.50289999  2.10936087 -1.13821393
  N -3.75866062  1.37185473  0.61809002
  C -4.36040811  2.64382084  0.91513141
  N -2.74063439 -1.09210522  0.37277806
  N -1.58156308 -1.93583904  0.49593019
  C -1.96284567 -3.32517153  0.46673770
  H  4.95516909  1.43029428 -1.26496536
  H  3.76098888  2.72020409 -1.13936218
  H  3.27916706  1.14345333 -1.75747660
  H  4.02806711  2.43728218  2.10289985
  H  4.98232975  0.96213599  2.00524732
  H  5.36132617  2.33157216  0.95427905
  H  2.45153416  0.27294730  1.81056666
  H  1.61195340  0.09934009 -1.15274625
  H  0.45187338 -1.01453898  1.44705901
  H  0.63672713 -3.26879004 -0.71051676
  H  0.76583944 -2.09202139 -2.02408282
  H -0.67654309 -3.09495915 -1.88647425
  H -0.66508257  0.47177351 -1.50303077
  H -1.55301238 -0.84294491 -2.30889763
  H -3.87158408  0.60949532  1.26694689
  H -4.13634854  2.95829118  1.93725728
  H -5.44528457  2.60501963  0.78483350
  H -3.94530133  3.37233728  0.21876282
  H -3.50969088 -1.65104690 -0.04226241
  H -2.47773915 -3.62860499 -0.45892386
  H -1.07826940 -3.94023803  0.60565968
  H -2.63170686 -3.49815403  1.31127571
