39
opt_min/./Product_1499_opt.xyz
  C  5.20406298  3.21963604  0.46369293
  O  3.88162837  2.80117845  0.14672692
  C  3.70492887  1.50156833 -0.12388919
  O  4.58102614  0.67362089 -0.11973220
  C  2.30581785  1.20757164 -0.45395782
  C  1.17834134  1.93003858 -0.35834239
 Cl  0.91088346  3.48291136  0.22292889
  C  0.05724052  0.97689666 -0.75680430
  C -0.07884306  0.05956083  0.50525660
  C  1.19416965 -0.80199112  0.33509365
  C  1.82752256 -0.16426075 -0.92376335
  O  0.69936844  0.16101778 -1.70126896
  C  0.55479450 -2.19228727  0.09710866
  C  1.40418163 -3.18033211 -0.52593813
  N  2.07197374 -3.94834300 -1.04225122
  N -0.64100692 -1.86679856 -0.62279053
  C -1.20254900 -0.99384649  0.40264949
  C -2.61835913 -0.55010078  0.23791699
  C -3.00275796  0.76708628  0.44813471
  C -4.33195800  1.13534112  0.32415432
  C -5.28814520  0.19121335 -0.00262380
  C -4.91640051 -1.12871571 -0.18812470
  C -3.58991800 -1.49918653 -0.06123839
  C -0.96361504 -1.85054455  1.68543540
  O -1.57359287 -1.84105476  2.70798391
  O  0.10278947 -2.62039825  1.41850701
  H  5.93040628  2.56591159 -0.02505670
  H  5.35295907  3.17543896  1.54457548
  H  5.30546947  4.24416803  0.11027948
  H -0.85890801  1.39646727 -1.15527725
  H -0.12864280  0.63785526  1.42550771
  H  1.86921869 -0.83899333  1.18770012
  H  2.54575600 -0.77220137 -1.46409211
  H -1.21583957 -2.67718391 -0.83974571
  H -2.27276897  1.51187199  0.72817634
  H -4.61642829  2.16362014  0.48940331
  H -6.32415130  0.48092549 -0.10137115
  H -5.65913345 -1.87515579 -0.42394390
  H -3.31642307 -2.53694289 -0.18987144
