51
opt_min/./Product_1658_opt.xyz
  C -2.50690600 -0.47071800 -2.02893100
  C -2.79371032 -0.36445193 -0.55234741
  O -3.81447724  0.13067768 -0.14882328
  C -1.78101774 -0.99379642  0.41161098
  C -0.57692908 -0.05100377  0.77133372
  C -0.76610031  1.30619779  0.11081762
  C -1.37284652  2.36110132  0.78160233
  C -1.55194778  3.58708952  0.16399440
  C -1.13298839  3.78676793 -1.13813524
  C -0.55513866  2.73519362 -1.82588983
  C -0.38192949  1.50879767 -1.21233886
  C -0.79526620  0.04552124  2.32580137
  C -0.56971806 -1.29839118  2.99546687
  C -1.61811240 -2.03780858  2.66383842
  C -2.46937348 -1.13354186  1.80589856
  O -2.21060052  0.13387297  2.37932433
  C  0.68619713 -0.80983462  0.24517257
  C  1.53956474 -1.46726449  1.35521187
  C  1.90646297 -2.92630658  1.21112808
  O  2.02168190 -0.80729419  2.24500764
  C  1.79785511  0.06128845 -0.32974248
  C  2.54542178 -0.35975349 -1.42234979
  C  3.59817805  0.40655548 -1.89220177
  C  3.93137075  1.59264765 -1.26390773
  C  3.21011067  2.00149133 -0.15470465
  C  2.15714475  1.24030046  0.31403510
  N  0.10635680 -1.70527090 -0.73726873
  C -1.11306744 -2.24322732 -0.16888639
  H -3.28317152 -1.09025497 -2.47657105
  H -1.52784959 -0.88115792 -2.23948887
  H -2.59599246  0.52206811 -2.46470014
  H -1.73917057  2.23530672  1.78678255
  H -2.02699304  4.38831066  0.71023080
  H -1.26767578  4.74590888 -1.61648570
  H -0.23807183  2.86242766 -2.85117937
  H  0.05107822  0.70176099 -1.77910513
  H -0.31059830  0.89542646  2.79622904
  H  0.25223192 -1.52440799  3.64257537
  H -1.85902522 -3.05219369  2.91665198
  H -3.53573814 -1.33346114  1.76477662
  H  1.85459952 -3.38474493  2.19688817
  H  1.28728350 -3.48997590  0.52311536
  H  2.94415646 -2.97283894  0.88189065
  H  2.30153980 -1.27932743 -1.93212654
  H  4.16236463  0.06857990 -2.74902508
  H  4.75249588  2.19030381 -1.63052735
  H  3.47006332  2.91811449  0.35284661
  H  1.61503038  1.55633144  1.19011535
  H  0.73955797 -2.41412899 -1.08459506
  H -0.93253090 -2.97029981  0.64005433
  H -1.70704367 -2.73678172 -0.93810795
