36
opt_min/./Product_3750_opt.xyz
  C  4.92677843  1.14647012 -0.07036316
  C  3.65386816  0.36678661  0.04650470
  C  3.84673272 -1.10004251  0.29419386
  C  2.46174335  0.97166063 -0.02838265
  C  1.16980369  0.34595640  0.09810441
  C  0.02265245  1.02012595  0.00325262
  C -1.34772514  0.40743909  0.14201268
  C -1.49889782 -0.14037381  1.56762399
  C -2.43906295  1.45845486 -0.12908443
  C -3.61004372  0.64953558 -0.71395790
  C -4.46561252  0.08905883  0.32621209
  N -5.11806403 -0.43161585  1.10784689
  C -4.44507697  1.47653241 -1.57970125
  N -5.08614301  2.12229658 -2.26802796
  N -2.95231229 -0.38997021 -1.49102908
  C -1.61018856 -0.65242269 -0.97370723
  C -1.44649334 -2.11367325 -0.56875356
  H  4.73175775  2.20014244 -0.25254112
  H  5.50583072  1.04743564  0.84813773
  H  5.53934454  0.75879793 -0.88342215
  H  3.00853143 -1.69248193 -0.06014024
  H  3.96137509 -1.28097772  1.36389000
  H  4.75048595 -1.45001297 -0.19976389
  H  2.43455333  2.04029210 -0.20126919
  H  1.14894282 -0.71792102  0.28307665
  H  0.05426972  2.08669534 -0.17476883
  H -2.50777270 -0.49918399  1.75556672
  H -0.79317827 -0.94426295  1.75206514
  H -1.28262533  0.65669413  2.27685050
  H -2.10437614  2.16059569 -0.89544494
  H -2.72040568  2.01719900  0.76312882
  H -3.51578221 -1.22418821 -1.59683690
  H -0.90541367 -0.44978498 -1.79551573
  H -1.71785571 -2.74766486 -1.41168986
  H -2.08226164 -2.37039661  0.27472343
  H -0.41302107 -2.32829510 -0.31348022
