47
opt_min/./Product_1665_opt.xyz
  C -1.97837786 -0.94896599 -3.57395279
  N -1.48695207 -0.94295964 -2.21537074
  C -2.22583290 -0.45731983 -1.20146426
  O -3.34282372 -0.00548768 -1.33734861
  C -1.52992866 -0.56541151  0.15925118
  C -0.18886343  0.24556854  0.26752902
  C  0.13340292  0.99054239 -1.02138658
  O  1.15220853  0.86766160 -1.65316420
  O -0.83853355  1.82105714 -1.38299850
  C -0.63410036  2.55825728 -2.58149542
  C -0.58053927  1.20167577  1.44718726
  C -1.67259194  2.14253957  0.97438167
  C -2.77698739  1.41098958  0.93063611
  C -2.33580837  0.02851504  1.35351458
  O -1.29707849  0.31473851  2.28424584
  C  0.87666020 -0.85810223  0.52826698
  C  2.29526894 -0.63052803 -0.06973192
  N  2.92865852  0.45439620  0.41607392
  C  4.27040548  0.79501900  0.00916808
  O  2.81410135 -1.46973015 -0.76296898
  C  1.30361824 -1.37398366  1.93194386
  C  1.67469133 -0.46966695  3.07072713
  O  1.47031801 -2.56470387  2.02732796
  N  0.25478161 -1.97795883 -0.17541186
  C -1.09657683 -2.04478503  0.34744261
  C -1.24861320 -2.47444768  1.73216698
  N -1.43539967 -2.82244744  2.80441795
  H -1.18144972 -0.65457904 -4.25583425
  H -2.80992301 -0.24801415 -3.63900506
  H -2.33568616 -1.94273716 -3.85424661
  H -0.57282571 -1.35553931 -2.06169614
  H -1.38973245  3.33886783 -2.58276088
  H -0.76173124  1.90511367 -3.44591204
  H  0.37206968  2.98181726 -2.59936695
  H  0.24812737  1.68540827  1.95715038
  H -1.52590325  3.17653445  0.73715562
  H -3.77489539  1.67740872  0.65380887
  H -3.08718465 -0.63206907  1.77440586
  H  2.42581728  1.12891175  0.96773407
  H  4.93826238  0.80712799  0.87291799
  H  4.28883024  1.77025832 -0.47870156
  H  4.60074695  0.03347569 -0.69452651
  H  1.43481089 -1.00153261  3.99008279
  H  2.75386132 -0.31803623  3.05055190
  H  1.16595599  0.48232278  3.07417491
  H  0.81170723 -2.82273641 -0.06412921
  H -1.70863285 -2.72510480 -0.26178444
