42
opt_min/./Product_5051_opt.xyz
  C -1.94705000 -0.89767200  0.42190200
  C -1.64861135 -2.27884688  0.89767553
  C -0.40144520 -2.55904469  1.27755989
  N  0.67003679 -1.74107044  1.02883196
  C  1.92694442 -2.02196462  1.65796857
  C  0.62374931 -0.76520731 -0.03506950
  C -0.80759269 -0.34687142 -0.45870341
  C -1.04459848 -0.71541614 -1.93031598
  N -1.04061507 -2.05159010 -2.13492644
  O -1.17602873  0.10079951 -2.81123414
  C -0.78718140  1.14730507 -0.24834520
  C -2.00291083  1.97681970 -0.47360819
  O -1.78362382  3.25757296 -0.19542801
  C -2.87742819  4.13932786 -0.39573321
  O -3.05856619  1.53990907 -0.85757958
  N  0.28904615  1.63225765  0.20055842
  C  1.33201950  0.64068612  0.16734633
  C  2.08137316  0.98298577 -1.16017698
  C  2.33000235  2.44226381 -1.35788419
  O  2.40539905  0.13049217 -1.94196689
  C  2.32661876  0.88358407  1.30822332
  C  3.77004102  0.50832930  1.04489813
  O  1.99748927  1.48194254  2.29713779
  H -2.89081687 -0.82754820 -0.12034414
  H -2.02804756 -0.24286550  1.30112953
  H -2.45668027 -2.97369554  1.04525569
  H -0.14618040 -3.50088222  1.74621916
  H  2.20154856 -1.22453427  2.35272642
  H  1.84675093 -2.94577400  2.22628844
  H  2.72176200 -2.14440458  0.91526417
  H  1.16379126 -1.21574880 -0.89030751
  H -1.11160697 -2.68159236 -1.34932615
  H -1.27813685 -2.39265809 -3.05257882
  H -3.78464700  3.72718297  0.05261289
  H -3.04761421  4.28932562 -1.46459892
  H -2.60472017  5.07673852  0.08020938
  H  2.44306300  2.96062339 -0.41103033
  H  1.45426956  2.85528155 -1.85990124
  H  3.19041466  2.58941841 -2.00717518
  H  4.35007566  1.43033751  1.07531236
  H  4.15175018 -0.12094742  1.84613382
  H  3.91685080  0.01932968  0.08870055
