41
opt_min/./Product_964_opt.xyz
  C  2.97505900 -1.26263300 -1.14586000
  C  1.67613663 -0.58256046 -1.44567679
  O  1.47512641 -0.02744142 -2.49758005
  C  0.65736616 -0.46407101 -0.30427432
  C -0.85358027 -0.41230913 -0.69090380
 Cl -1.21310299 -0.78807641 -2.42130571
  C -1.50563562 -1.42257720  0.27444788
  C -1.10861496 -2.84819347 -0.12898847
  C  0.39302635 -2.90476244  0.21359735
  C  0.67795599 -1.51820661  0.81583705
  C -0.64619844 -1.22470437  1.52441628
  N -1.23428605  0.96201563 -0.40367002
  C -2.48085201  1.60059094 -0.51321940
  O -2.62856607  2.72622032 -0.10392528
  N -3.45194800  0.85472057 -1.08015177
  C -4.77216668  1.38952505 -1.29901840
  N -0.21670800  1.67074663  0.09212025
  C  0.84143841  0.96178770  0.19822620
  C  2.08694144  1.51930026  0.75842546
  N  2.02845105  2.84845761  0.95113126
  C  3.09595683  3.59450042  1.56105854
  O  3.06357124  0.83133288  1.01581399
  H  3.45339360 -1.55777339 -2.07616167
  H  2.88115214 -2.10279980 -0.46870236
  H  3.60511666 -0.51759924 -0.65345932
  H -2.57748722 -1.28113899  0.38726573
  H -1.30496735 -3.04030050 -1.18152541
  H -1.67940767 -3.56618093  0.46069400
  H  0.99539015 -3.11393488 -0.66951460
  H  0.59931338 -3.68397093  0.94866117
  H  1.57212986 -1.44605589  1.42917591
  H -0.87508218 -1.95269014  2.30190962
  H -0.70459405 -0.22185293  1.94754262
  H -3.24137196 -0.05414735 -1.46133160
  H -5.50755849  0.87006816 -0.67890800
  H -4.75616690  2.44283055 -1.02078531
  H -5.05337861  1.29120491 -2.34755451
  H  1.15078971  3.30424692  0.75096584
  H  3.99959254  2.98796731  1.50679071
  H  3.24372080  4.53248951  1.02640825
  H  2.88393393  3.81154241  2.61300311
