38
opt_min/./Product_3866_opt.xyz
  C  0.63011300 -2.33114000  1.25882200
  C  0.73528393 -1.23668515  0.20502380
  C -0.50100571 -1.21682509 -0.71384852
  C -0.17614865 -1.66420235 -2.13247540
  C -1.11198522  0.21178785 -0.59364351
  C -1.01916165  1.08051407 -1.85793300
  C -2.61142842  0.08595868 -0.32342393
  O -3.32268059 -0.73529123 -0.84626564
  O -3.05321276  1.01072670  0.53372455
  C -4.44995976  1.05936746  0.80268514
  N -0.40603210  0.87981447  0.48243716
  C  0.84277799  0.21368753  0.77805018
  C  1.96929700  0.92980880  0.01324413
  O  3.15561353  0.35046244  0.26318219
  C  4.29988798  0.89272888 -0.38427541
  O  1.83388233  1.86007067 -0.73218861
  C  1.16339554  0.32812636  2.26695269
  H  1.51263930 -2.34611873  1.89228806
  H -0.25081771 -2.20226063  1.88498998
  H  0.55438417 -3.29663074  0.76212848
  H  1.63218731 -1.43923147 -0.38660318
  H -1.24741378 -1.91591080 -0.31866600
  H  0.21738994 -2.67947320 -2.11041059
  H -1.07419928 -1.66215606 -2.74319467
  H  0.56488090 -1.01400954 -2.59096928
  H  0.02275246  1.25091263 -2.10945121
  H -1.47034677  2.04653719 -1.64138481
  H -1.53308917  0.62043409 -2.69546920
  H -4.96995346  0.32220950  0.18627187
  H -4.80048189  2.06620497  0.57541753
  H -4.60867112  0.83890088  1.85802514
  H -0.97850768  1.03795231  1.29958573
  H  4.92616009  0.05775219 -0.69845212
  H  3.99283046  1.49046999 -1.24431190
  H  4.84943284  1.52124629  0.31961545
  H  0.42904595 -0.20797931  2.86302293
  H  1.13711300  1.37999667  2.54923348
  H  2.15279852 -0.06916051  2.48043564
