57
opt_min/./Product_5567_opt.xyz
  C -3.49246891 -1.73743679  0.22969104
  C -2.46141965 -2.62104366 -0.41080299
  C -2.98462255 -3.90645811 -0.98521608
  C -1.16346928 -2.34024312 -0.45118457
  C -0.50333842 -1.13643738  0.15351603
  C  0.88935284 -1.48437974  0.69785519
  C  0.98613260 -1.70208926  2.18962304
  C  2.26401153 -2.36394444  2.64001423
  C  0.06263580 -1.40481134  3.08995973
  C  1.85675714 -0.36389477  0.17424074
  C  2.43805170  0.42950170  1.36428233
  C  3.93171789  0.50728676  1.54627801
  O  1.69298194  1.03596294  2.09255531
  C  2.95633046 -1.02739445 -0.67676572
  C  3.31641305 -0.37950568 -1.98471681
  O  3.50934680 -2.03646328 -0.30373410
  N  1.05609745  0.52648402 -0.64516813
  C  1.31193110  1.94442593 -0.62734332
  C -0.32022387  0.05494284 -0.83385428
  C -0.41209336 -0.41177122 -2.29378426
  C -1.32999570  1.14049060 -0.49375044
  C -1.35284182  1.65644034  0.80288773
  C -2.24726385  2.64897765  1.15554745
  C -3.13719008  3.15124214  0.22106557
  C -3.10946682  2.66204317 -1.07127226
  C -2.20941760  1.67090818 -1.42815903
  H -4.45324286 -1.85667497 -0.26610952
  H -3.62505891 -2.01294163  1.27680223
  H -3.21342359 -0.68832160  0.18183893
  H -3.16050942 -4.62123441 -0.18060786
  H -3.92899031 -3.74927191 -1.50164264
  H -2.27198496 -4.34573451 -1.67834680
  H -0.50200189 -3.03491677 -0.95259605
  H -1.13540173 -0.79188566  0.96688910
  H  1.22479380 -2.42390243  0.24273801
  H  3.02570748 -2.34527534  1.86724306
  H  2.64910324 -1.88771123  3.53906905
  H  2.05976539 -3.40730862  2.88219762
  H -0.89200409 -0.97043627  2.85383695
  H  0.24391934 -1.61249060  4.13396843
  H  4.48484505 -0.14773911  0.88443434
  H  4.16508468  0.25414721  2.57885691
  H  4.24572773  1.53900933  1.39164475
  H  4.25621575  0.15715571 -1.86106626
  H  2.54722445  0.30412394 -2.32016202
  H  3.48210821 -1.15595236 -2.72893831
  H  0.99171778  2.46002086  0.28641041
  H  0.78894919  2.39414536 -1.47205357
  H  2.38340937  2.11042503 -0.75208412
  H -1.40881982 -0.77105127 -2.52991484
  H -0.14970728  0.40535257 -2.96274679
  H  0.29962679 -1.21639912 -2.45482652
  H -0.65419487  1.28965216  1.53897312
  H -2.24919649  3.03078360  2.16594156
  H -3.84196104  3.92120498  0.49804789
  H -3.79033885  3.05587860 -1.81236555
  H -2.21074782  1.31405003 -2.44537434
