53
opt_min/./Product_1919_opt.xyz
  C -1.78737300 -1.75544300 -2.07536300
  O -0.56898081 -1.16554016 -1.65185367
  C -0.19699194 -1.40375700 -0.31917089
  C  1.28171216 -0.92800175 -0.08401049
 Cl  1.93251641 -0.07817605 -1.51002556
  C  2.04699090 -2.22362187  0.23540683
  C  2.11388368 -3.12794806 -0.99276495
  C  0.66037446 -3.61496260 -1.14077517
  C -0.07492667 -2.91589930  0.01601565
  C  1.00649475 -2.94447046  1.09533960
  C  1.27659498  0.00012695  1.15164849
  C  1.95928112  1.36512924  0.95276244
  N  3.29958766  1.29528629  0.86781157
  C  4.11612251  2.46253824  0.63463866
  O  1.33441668  2.40366625  0.95074852
  N -0.09620223  0.13543191  1.55593566
  C -1.05505629 -0.54041180  0.69534914
  C -1.96203832 -1.43054850  1.56626431
  O -2.84014468 -2.13944761  1.10726102
  N -1.71597082 -1.34554262  2.88303398
  C -2.50851480 -2.05162550  3.86017271
  C -1.89978182  0.48504468 -0.06856049
  C -3.28521776  0.42646807 -0.15935906
  C -3.98875034  1.38403505 -0.87030645
  C -3.32459878  2.42248441 -1.49798676
  C -1.94786060  2.50217154 -1.39222171
  C -1.24366622  1.54733927 -0.68095344
  H -2.59143867 -1.57653219 -1.36173821
  H -2.01876506 -1.27081371 -3.02179099
  H -1.69379528 -2.83315015 -2.22571978
  H  3.01985293 -2.02385125  0.68543077
  H  2.79966685 -3.95560760 -0.81322305
  H  2.45546766 -2.58533792 -1.87184921
  H  0.58646057 -4.69643120 -1.01910758
  H  0.26521435 -3.36297889 -2.11884362
  H -1.02566709 -3.36950157  0.28197743
  H  0.73026729 -2.43164655  2.01243299
  H  1.31185720 -3.96119643  1.33798893
  H  1.84115976 -0.50200100  1.95816531
  H  3.75161803  0.39678133  0.82540213
  H  3.51626097  3.33719615  0.87939160
  H  4.41758290  2.52547348 -0.41378866
  H  5.00302328  2.42936467  1.26565730
  H -0.36052119  1.08628478  1.79108884
  H -0.93714907 -0.77752223  3.18885558
  H -2.10282457 -3.04982098  4.05091858
  H -2.52593722 -1.49155907  4.79240634
  H -3.51956929 -2.16265872  3.47049555
  H -3.84086288 -0.35514134  0.33419848
  H -5.06485004  1.31057626 -0.93186279
  H -3.87626348  3.16400540 -2.05707247
  H -1.40988262  3.31351366 -1.85961802
  H -0.17359571  1.64581439 -0.62091129
