48
opt_min/./Product_1208_opt.xyz
  C  0.29831910  1.75307099 -0.13450186
  C  0.52712155  0.34732967  0.40914327
  C -0.71328507 -0.55624990  0.74341995
  C -2.15554655 -0.05383388  0.85101418
  C -3.06617132 -1.03081101  1.27757239
  C -4.41048320 -0.76241399  1.42355778
  C -4.89777178  0.50168644  1.14371600
  C -4.02062982  1.47024580  0.70605603
  C -2.66690387  1.19871702  0.55654021
  C -0.35083114 -0.89256537  2.25432386
  C  0.93270423 -1.67564331  2.42088329
  C  1.90515978 -0.81410392  2.15241406
  C  1.19176944  0.47333672  1.81871083
  O  0.05557447  0.40388873  2.66702980
  C -0.72006749 -1.62622584 -0.40367022
  C -0.48767928 -3.09545571  0.02341918
  C -1.98860058 -1.61161228 -1.13533763
  N -2.90827052 -1.68430982 -1.81155207
  N  0.25378755 -1.11949247 -1.35846705
  C  1.32474888 -0.49928517 -0.61780322
  C  2.25339885  0.28644823 -1.50264333
  C  3.51403783  0.64147059 -1.03885696
  C  4.37732206  1.36583338 -1.83970874
  C  3.99323656  1.73787742 -3.11708922
  C  2.73996722  1.38707635 -3.58636195
  C  1.87187686  0.66753022 -2.78264051
  H -0.17510543  2.37513963  0.62084464
  H  1.26485007  2.19321041 -0.37746657
  H -0.30117902  1.72043965 -1.04143847
  H -2.71852349 -2.03330904  1.48932784
  H -5.07785659 -1.54605192  1.75436940
  H -5.94809349  0.72329026  1.25744372
  H -4.38155875  2.46126003  0.46929214
  H -2.04454859  1.99241575  0.19894858
  H -1.18966476 -1.24030574  2.85070417
  H  0.99178004 -2.69398888  2.75756085
  H  2.96934922 -0.95246922  2.15310956
  H  1.74877641  1.39454928  1.96848576
  H  0.11831351 -3.59728364 -0.73111790
  H  0.03542200 -3.13637354  0.96932230
  H -1.43425936 -3.62412069  0.11249924
  H  0.55569282 -1.81244118 -2.03251493
  H  1.93692280 -1.24209610 -0.06965929
  H  3.81504497  0.34735600 -0.04237775
  H  5.35415800  1.63782452 -1.46594941
  H  4.67238521  2.29976639 -3.74116006
  H  2.43368581  1.67503492 -4.58104115
  H  0.88907127  0.40206545 -3.13801471
