40
opt_min/./Product_4968_opt.xyz
  C -2.97982403 -0.08688665  0.42849583
  C -2.87003881 -1.46392223  1.00529209
  C -1.88331597 -2.26702342  0.61068854
  N -0.90676999 -1.92675884 -0.29101175
  C -0.08668020 -2.96705888 -0.85941480
  C -0.68185042 -0.56876303 -0.70543819
  C -1.57931882  0.41964327  0.07366359
  C -1.69445700  1.77721391 -0.64715057
  N -2.29139481  1.71679489 -1.85192738
  O -1.31830063  2.81379538 -0.14756968
  C -0.69908163  0.63095033  1.29884840
  C -1.21479712  1.10517375  2.52192564
  N -1.65407140  1.51627783  3.49765116
  N  0.53429568  0.38136700  1.11555445
  C  0.71261643 -0.00950354 -0.25761601
  C  1.98567538 -0.84076639 -0.48989552
  N  2.77017312 -0.86978107  0.59425826
  C  4.05527048 -1.52087031  0.61289735
  O  2.25147941 -1.33914336 -1.56274310
  C  0.99742959  1.25118813 -1.10000742
  O  0.63084938  1.38073250 -2.23718329
  O  1.69151143  2.12858084 -0.40360948
  C  1.94673992  3.38805939 -1.01899463
  H -3.44602508  0.60390983  1.13576693
  H -3.60277238 -0.10316792 -0.47406331
  H -3.59578346 -1.78584815  1.72942716
  H -1.80204930 -3.27587644  0.98787503
  H -0.65526687 -3.89504210 -0.90130530
  H  0.21904227 -2.68990000 -1.86744282
  H  0.81970493 -3.14221284 -0.26975758
  H -0.76185916 -0.48542793 -1.79633149
  H -2.49426865  0.84566283 -2.30772581
  H -2.37433073  2.56429892 -2.38842311
  H  2.43952955 -0.39429921  1.42291483
  H  4.04682426 -2.37434864  1.29348844
  H  4.82969932 -0.82059025  0.92816478
  H  4.26882243 -1.86585479 -0.39771190
  H  2.04813734  3.26530502 -2.09828585
  H  1.11210940  4.05676837 -0.79956690
  H  2.86471939  3.76826196 -0.57860324
