32
opt_min/./Product_3808_opt.xyz
  C -2.07311098 -1.91442961  0.54070668
  C -2.08188074 -0.39919339  0.37746977
  C -0.98267719  0.15679371 -0.55125455
  C -0.71668664 -0.62834122 -1.82387127
  C  0.23660597  0.28855266  0.40921079
  C  1.34114393 -0.74708537  0.15833052
  O  1.39935972 -1.64947424  1.12322745
  C  2.44023128 -2.61457898  1.02703996
  O  2.06262546 -0.72280228 -0.80431862
  C  0.95745505  1.64297234  0.27284300
  O  1.48134147  2.20548104  1.19183956
  O  0.95475525  2.06938640 -0.98391719
  C  1.65650257  3.28191379 -1.24335342
  O -0.25180429  0.14540909  1.72861755
  C -1.66307420  0.27070433  1.70076221
  C -2.07172305  1.66667859  1.70456927
  N -2.37760556  2.76651773  1.65026216
  H -2.93072778 -2.22586951  1.13283862
  H -2.13128040 -2.40828076 -0.42429687
  H -1.16364943 -2.23220057  1.04607610
  H -3.06947406 -0.06181579  0.05403917
  H -1.27803257  1.17304366 -0.83494198
  H  0.05006393 -0.12405611 -2.40413706
  H -1.62786432 -0.68420302 -2.41485027
  H -0.36973616 -1.63670363 -1.61452685
  H  2.53005283 -2.97530610  0.00030562
  H  3.38733038 -2.16786582  1.33190051
  H  2.17250359 -3.42449272  1.70073959
  H  1.03041296  4.13465341 -0.97448031
  H  2.57774195  3.31480896 -0.66011017
  H  1.87127781  3.28958719 -2.30876154
  H -2.04525979 -0.22949314  2.59565206
