37
opt_min/./Product_1198_opt.xyz
 Br -4.61649998 -0.48544196 -1.56237004
  C -3.20842765 -1.25843472 -0.60871300
  C -2.25342888 -2.08179022 -1.03143710
  C -1.43024712 -2.36069540  0.20424789
  C -0.55990913 -1.12586006  0.56685881
  C -1.63704186 -0.08562161  0.86967234
  C -2.91116134 -0.99323647  0.85397632
  O -2.39272701 -2.24761974  1.24975104
  C -1.49244822  0.95860959 -0.26283044
  C -1.52896563  2.39723821  0.24366180
  C -2.85187320  2.82229272  0.80606235
  O -0.56548370  3.11305705  0.14625821
  N -0.27225016  0.66420260 -0.98971157
  C  0.42013747 -0.50840348 -0.43538045
  C  0.72448026 -1.47818698 -1.47354145
  N  0.97064616 -2.25973395 -2.27065656
  C  1.76961315 -0.08030547  0.15616608
  C  2.05660892  0.00118234  1.51037830
  C  3.28345585  0.48028789  1.93866100
  C  4.23919907  0.88388412  1.02369412
  C  3.95702724  0.81125537 -0.32991977
  C  2.73174862  0.33761512 -0.75912280
  H -2.07296200 -2.47463729 -2.00971706
  H -0.91740830 -3.31683166  0.21889172
  H -0.03196442 -1.46834315  1.45665654
  H -1.49177759  0.40298973  1.83714356
  H -3.73504911 -0.68968644  1.49475558
  H -2.31879380  0.84591665 -0.98234647
  H -3.21700723  2.10227833  1.53257277
  H -2.76017104  3.80394417  1.26344479
  H -3.57777364  2.86808772 -0.00278677
  H  0.34622170  1.47286650 -0.93670092
  H  1.33826854 -0.28515754  2.26330006
  H  3.48586552  0.53772176  2.99798618
  H  5.19274842  1.25731507  1.36091427
  H  4.69117838  1.12571485 -1.05448326
  H  2.51400772  0.28459898 -1.81568279
