52
opt_min/./Product_2180_opt.xyz
 Cl  0.50024200  1.00306700 -2.75938700
  C  0.53349040  1.03198473 -0.98107759
  C -0.85926884  1.17491981 -0.29321311
 Cl -2.26510972  1.43339595 -1.35401171
  C -0.65528715  2.43874797  0.58364725
  C -0.59825359  3.68620658 -0.31238519
  C  0.75131288  3.53228440 -1.04068046
  C  1.32158283  2.23642882 -0.44700473
  C  0.81068058  2.32157476  0.99276950
  C -1.02289019 -0.13201146  0.52264804
  C -1.79450217  0.10912985  1.82541530
  N -3.06666267  0.50668019  1.62321163
  C -3.96147610  0.78722338  2.71848802
  O -1.32601235 -0.08813247  2.92626207
  C -1.65924282 -1.33464996 -0.17986747
  C -2.05698389 -2.38505643  0.64964914
  C -2.55585491 -3.56047192  0.12316895
  C -2.65039361 -3.72103459 -1.25086360
  C -2.21581093 -2.70606494 -2.08060350
  C -1.71572582 -1.52347063 -1.55353058
  N  0.37017094 -0.46286506  0.79820029
  C  1.06085064 -0.33785868 -0.46936882
  C  2.55826961 -0.42696165 -0.36009506
  C  3.30236753 -0.71298271 -1.49865747
  C  4.68258842 -0.77717834 -1.43777879
  C  5.33442614 -0.57011454 -0.23398982
  C  4.59800629 -0.30202973  0.90847386
  C  3.21857306 -0.22790120  0.84630312
  H -1.38099462  2.50927391  1.38972545
  H -1.43742878  3.76146627 -0.99872943
  H -0.60575691  4.57717769  0.31591082
  H  0.63687236  3.47518699 -2.12181375
  H  1.41739839  4.36580483 -0.82088937
  H  2.39417711  2.11824595 -0.58344140
  H  1.00794909  1.43835331  1.58993571
  H  1.16820898  3.21226786  1.49866795
  H -3.39226833  0.67812040  0.68419524
  H -3.97941635  1.85471892  2.95483390
  H -3.60572053  0.24323367  3.59158955
  H -4.96804810  0.46126001  2.46281889
  H -1.97264700 -2.27765862  1.72046377
  H -2.86393339 -4.35279804  0.78889418
  H -3.04349535 -4.63749717 -1.66619163
  H -2.25665302 -2.82539693 -3.15342261
  H -1.35250311 -0.77864460 -2.24390099
  H  0.49793585 -1.36102817  1.24873669
  H  0.72881192 -1.10168229 -1.19705457
  H  2.79884365 -0.87911688 -2.44004826
  H  5.24746723 -0.99472118 -2.33234268
  H  6.41181505 -0.62255077 -0.18092294
  H  5.10219166 -0.14885996  1.85110849
  H  2.64364819 -0.03079546  1.73717375
