49
opt_min/./Product_5460_opt.xyz
  C  1.78550600 -1.09829900  0.86796200
  C  0.62218717 -0.22224518  1.32200089
  C  0.93076161  1.27854992  1.16679285
  N  1.42631109  1.56397366 -0.16200713
  C  1.32381754  2.89820281 -0.69461017
  C  2.04120142  0.61217248 -0.87711538
  C  2.26587095 -0.66623007 -0.48732222
  C  2.99440241 -1.52775799 -1.40527572
  N  3.43724704 -2.73512880 -0.91481972
  O  3.26038851 -1.21252204 -2.55545803
  C -0.48509747  1.82641369  1.46642814
  C -0.72991195  3.32230629  1.32614344
  N -1.92112380  3.65358643  0.80002126
  C -2.34334327  5.03514942  0.72915719
  O  0.06394830  4.14050293  1.74872524
  N -1.39253211  0.95337312  0.75594199
  C -0.75152323 -0.35182236  0.59367169
  C -1.71672808 -1.40285381  1.16459713
  O -2.91405604 -1.28924671  1.05298943
  N -1.14545978 -2.51411530  1.70409479
  C -1.98433867 -3.52978397  2.30866672
  C -0.60815311 -0.62159679 -0.92560127
  O -0.74703030  0.28464415 -1.72052736
  N -0.39883449 -1.89631661 -1.27785312
  C -0.22466994 -2.27049249 -2.66518382
  H  1.50046527 -2.15594969  0.87220986
  H  2.59183892 -0.98741270  1.60776228
  H  0.42986543 -0.40420566  2.38838664
  H  1.65274402  1.63639018  1.91340054
  H  0.30744308  3.10268680 -1.04453528
  H  2.00293556  2.99543356 -1.53968854
  H  1.59386807  3.63150750  0.06668484
  H  2.38742898  0.90271335 -1.85957282
  H  3.82882812 -3.37164950 -1.59053829
  H  3.06538460 -3.14352498 -0.07497411
  H -0.64093262  1.65162597  2.54864842
  H -2.59790013  2.93093293  0.61397491
  H -1.58857037  5.61816828  0.19930059
  H -2.45209784  5.45797570  1.73146085
  H -3.29034150  5.09623490  0.20050406
  H -1.64583010  1.28238399 -0.17579043
  H -0.17902249 -2.49786853  1.98601127
  H -2.42738872 -3.17523587  3.24305310
  H -1.39112960 -4.42065500  2.50204065
  H -2.79511531 -3.76574552  1.62001078
  H -0.38913144 -2.62325414 -0.58160890
  H -1.18702470 -2.29517520 -3.18111509
  H  0.24583783 -3.24884779 -2.72186833
  H  0.41423946 -1.53464078 -3.15410832
