31
opt_min/./Product_3383_opt.xyz
  C -3.01445900  1.22994900 -0.79619900
  C -1.54026630  0.94470875 -0.53669106
  C -1.25870061 -0.40814231  0.14124153
  C -1.40191873 -0.48692043  1.66221166
  C  0.11670429 -0.81691132 -0.47149116
  C  0.20694472 -2.34754011 -0.60580995
  C  1.37840320 -0.23670642  0.15463627
  C  1.39104339  0.74157791  1.14162900
  C  2.58597312  1.25134339  1.62133562
  C  3.79517554  0.81655702  1.11102091
  C  3.79295541 -0.11973504  0.09201862
  C  2.60106456 -0.63393624 -0.38240203
  N  0.10224182 -0.17867975 -1.79240742
  C -0.73692391  0.75873521 -1.79805059
  H -3.47577670  0.40045607 -1.32909992
  H -3.12994044  2.13070777 -1.39533444
  H -3.54527047  1.36982991  0.14344645
  H -1.11590854  1.77945779  0.03324849
  H -1.97525341 -1.10915852 -0.30387115
  H -0.50700497 -0.90384926  2.11869649
  H -1.58632898  0.49377587  2.09676132
  H -2.24270558 -1.12373055  1.92867357
  H  0.03312793 -2.62765772 -1.64218480
  H  1.17891970 -2.72512966 -0.30345488
  H -0.54549701 -2.82622754  0.01558041
  H  0.47341232  1.12491621  1.55092922
  H  2.56811912  2.00058117  2.40038681
  H  4.72394936  1.21537390  1.49086636
  H  4.72784139 -0.44869402 -0.33983868
  H  2.62368334 -1.33460086 -1.20199385
  H -0.86676798  1.38593243 -2.66743528
