27
opt_min/./Product_3365_opt.xyz
  C  1.19628300  1.29221700 -1.03832100
  C  0.97302108  0.39534587  0.17073574
  C  1.18301539  1.15569420  1.47696456
  C  1.81995242 -0.90682320  0.09774487
  C  3.25354062 -0.83869522  0.55282911
  O  3.67155125 -0.29126016  1.52951317
  N  0.99347835 -1.76326311  0.95894952
  N -0.31796263 -1.59690990  0.46817145
  N -0.37598183 -0.19881194  0.21453058
  C -1.55837378  0.41698792 -0.07582202
  N -2.64041102 -0.39653926  0.07165532
  C -3.97579931  0.08738628 -0.17163961
  O -1.63968313  1.58246127 -0.41059832
  H  0.40913416  2.04070614 -1.08031485
  H  1.17638082  0.72079495 -1.96497724
  H  2.16238953  1.78349822 -0.94744596
  H  1.08293643  0.47644488  2.32042110
  H  0.42278979  1.93172573  1.54638520
  H  2.16588583  1.61606972  1.50629338
  H  1.80256717 -1.26733938 -0.95115284
  H  3.94052187 -1.36552012 -0.14305449
  H  1.25529586 -2.74409223  0.95938404
  H -0.43737214 -2.08173335 -0.44998287
  H -2.51164428 -1.30313613  0.49079384
  H -3.94146320  1.17750526 -0.17080307
  H -4.34440328 -0.25152560 -1.14589359
  H -4.65368048 -0.25864747  0.60810892
