43
opt_min/./Product_4596_opt.xyz
  C  2.36721100 -0.42036500 -2.28685300
  C  1.39187196 -1.01696967 -1.27634388
  C -0.08971239 -0.57928802 -1.39952489
  C -0.36479504  0.40862289 -2.52698387
  C -0.43769568 -0.02960768  0.03030665
  C -1.03081603  1.36215710 -0.01868240
  C -0.24230168  2.48371732  0.19088661
  C -0.79566987  3.75161787  0.11664063
  C -2.13731256  3.91008662 -0.17239563
  C -2.93097552  2.79154702 -0.37937934
  C -2.38211347  1.52548543 -0.30082115
  C -1.32216847 -0.92064142  0.90143382
  C -1.78837386 -0.36333471  2.08953297
  C -2.55654932 -1.10306732  2.96877942
  C -2.86451708 -2.42130121  2.67963641
  C -2.38540040 -2.99192679  1.51627440
  C -1.61016353 -2.25103158  0.63814088
  N  0.80807016 -0.02315722  0.77469102
  C  1.73781445 -0.58458803  0.12425255
  C  3.07674679 -0.81137091  0.74169442
  C  3.20872655 -0.29573486  2.14471714
  O  3.94713217 -1.42618783  0.17103648
  H  2.10572560 -0.73120364 -3.29730967
  H  3.37072060 -0.77801074 -2.06239455
  H  2.36354243  0.66624589 -2.24026044
  H  1.46781766 -2.11270214 -1.33363048
  H -0.70770932 -1.45916512 -1.59255328
  H -1.43088717  0.61653171 -2.59709524
  H  0.15190741  1.35318503 -2.37287013
  H -0.03270426 -0.01199866 -3.47517761
  H  0.80578420  2.35663144  0.42053634
  H -0.16985289  4.61772124  0.28509309
  H -2.57146954  4.89708422 -0.23504290
  H -3.98372810  2.90658388 -0.60156791
  H -3.00368422  0.65493417 -0.44649634
  H -1.54229974  0.66276115  2.32560270
  H -2.90947683 -0.64747369  3.88203220
  H -3.46740527 -3.00404845  3.36342893
  H -2.60712189 -4.02458779  1.28695952
  H -1.23757895 -2.73921654 -0.25225239
  H  2.58321299 -0.91487161  2.78762508
  H  2.83342386  0.72266953  2.20693442
  H  4.24427457 -0.35754043  2.47390285
