43
opt_min/./Product_1190_opt.xyz
 Cl  0.40203001 -1.76235877 -0.54641683
  C  0.19664118 -0.24930375  0.39977444
  C -1.24106181  0.34278137  0.22097797
  C -2.04477448 -0.36253983 -0.85301390
  C -2.02024653  0.09131400 -2.16786973
  C -2.74419270 -0.55811942 -3.15223638
  C -3.49765900 -1.67543624 -2.84400096
  C -3.50531780 -2.15114822 -1.54492037
  C -2.78208519 -1.50464523 -0.55935000
  C -1.81748527  0.07862899  1.64874802
  C -1.14974532  1.04013065  2.60775545
  C  0.08064921  0.57419687  2.76486085
  C  0.14756126 -0.67340300  1.90382327
  O -1.18478853 -1.14729068  1.99138792
  C -0.95632567  1.81061884 -0.11508663
  N  0.27917049  1.72668659 -0.87546483
  C  1.16146074  0.82956202 -0.12714617
  C  1.96610763  1.62756455  0.92757394
  C  2.99429329  0.91191921  1.74790147
  O  1.83495230  2.83033026  0.94754811
  C  2.25933858  0.22871026 -1.05574989
  O  3.15206708 -0.47861416 -0.64182595
  N  2.14195044  0.61028663 -2.33181968
  C  3.05432064  0.13185563 -3.34488553
  H -1.41400727  0.94289550 -2.43018791
  H -2.71205243 -0.18718952 -4.16675971
  H -4.06333685 -2.18170829 -3.61276923
  H -4.07129065 -3.03650504 -1.29371607
  H -2.77286275 -1.90952206  0.44088270
  H -2.89949480  0.00732768  1.70271681
  H -1.61844037  1.90760187  3.02950835
  H  0.86934858  0.93083506  3.39190949
  H  0.86407397 -1.44279676  2.17535173
  H -1.74877111  2.28057484 -0.69891192
  H -0.83289974  2.39712913  0.80735269
  H  0.71946083  2.64216066 -0.96751292
  H  3.97059645  1.20035833  1.35635500
  H  2.96021208  1.25817948  2.77885239
  H  2.89848194 -0.16427269  1.68991512
  H  1.34086754  1.16065612 -2.59805879
  H  4.07492700  0.42730869 -3.09384789
  H  2.77864476  0.55460136 -4.30666245
  H  3.02322857 -0.95844797 -3.39818558
