58
opt_min/./Product_5706_opt.xyz
  C -1.29319700  3.94474400 -1.82358800
  C -0.95133860  3.08048532 -0.64372666
  C -1.03336584  3.77503273  0.68329969
  C -0.60918419  1.80749785 -0.81145181
  C -0.30911425  0.83422309  0.29014081
  C -1.61186851  0.07322608  0.62138012
  C -2.02519582 -0.01488176  2.07833499
  C -1.02481938  0.01231879  3.19997936
  C -3.31732929 -0.08830739  2.36871433
  N -1.37990015 -1.25894832  0.03971889
  C -2.35712846 -2.18490743 -0.10434782
  C -1.91490108 -3.54034482 -0.61959516
  O -3.51472161 -1.96097130  0.19821811
  N -0.17453379 -1.34113065 -0.68987114
  C -0.40335740 -1.26556510 -2.13757460
  C  0.68202120 -0.30788424 -0.10283079
  C  1.36293288 -0.87402725  1.13779452
  C  1.11565412 -2.15617311  1.60145030
  C  1.77745497 -2.63680106  2.71938618
  C  2.70081351 -1.84770985  3.38093440
  C  2.96642925 -0.57074389  2.91420803
  C  2.30566573 -0.08987060  1.79970484
  C  1.83983395  0.06037841 -1.00657915
  C  2.57719851 -0.98028351 -1.56703271
  C  3.68311037 -0.71818318 -2.35180296
  C  4.08152795  0.58991132 -2.57578222
  C  3.37145872  1.62711436 -2.00041333
  C  2.25995809  1.36635543 -1.21510420
  H -0.43573868  4.56038169 -2.09844010
  H -1.57283749  3.34647212 -2.68735509
  H -2.11801362  4.61101166 -1.57884073
  H -2.04531146  3.69441509  1.08111641
  H -0.79725135  4.83135870  0.56925114
  H -0.35524854  3.34670197  1.41765208
  H -0.61839482  1.40591948 -1.81445747
  H  0.05768073  1.37909628  1.15866932
  H -2.45428322  0.54438394  0.09467693
  H -1.03770377 -0.93727706  3.73380324
  H -0.00876257  0.18022234  2.86733931
  H -1.28954710  0.79708058  3.90707298
  H -4.07839900 -0.11137212  1.61126741
  H -3.64713041 -0.16547678  3.39193709
  H -2.28451386 -4.29234164  0.07439761
  H -0.83726827 -3.61594278 -0.71067995
  H -2.37732906 -3.72861437 -1.58650971
  H  0.11381209 -0.42629213 -2.60208528
  H -0.02989165 -2.17806584 -2.60911125
  H -1.47125268 -1.18415158 -2.34504225
  H  0.39927868 -2.78256088  1.09644609
  H  1.56813990 -3.63622502  3.07195629
  H  3.21554710 -2.22523748  4.25182901
  H  3.69168183  0.05160952  3.41770129
  H  2.52426552  0.90401795  1.43466656
  H  2.27395617 -1.99805933 -1.37540878
  H  4.24084620 -1.53580949 -2.78428312
  H  4.94638132  0.79829986 -3.18814921
  H  3.68534676  2.64825087 -2.16048874
  H  1.72251867  2.18798151 -0.76865618
