55
opt_min/./Product_5748_opt.xyz
  C -0.39617200  1.63705000  1.73798400
  C -1.03212956  2.95184761  1.40713394
  C -1.57828841  3.14000650  0.20731441
  N -1.52648524  2.21492690 -0.79421704
  C -2.20675359  2.41657244 -2.04057532
  C -0.69254511  1.06105322 -0.70234820
  C  0.29094475  1.06115269  0.48821183
  C  1.49091669  1.93506764  0.07981030
  N  2.31438036  2.32186562  1.07539030
  O  1.69458408  2.27039597 -1.06647125
  C  0.69723779 -0.45444084  0.62000052
  C  0.64917228 -0.98216172  2.06795760
  C  2.10310792 -0.65855273  0.05482486
  C  3.23358234 -0.53189550  0.85648391
  C  4.50220303 -0.67501906  0.32447143
  C  4.67036464 -0.95592281 -1.01963708
  C  3.55594010 -1.10495309 -1.82389993
  C  2.28941810 -0.95682116 -1.28885255
  N -0.27928137 -1.14215402 -0.21798718
  C -0.41532239 -2.57051562 -0.10988021
  C -1.40348982 -0.31921175 -0.56739465
  C -2.56600660 -0.22549784  0.44406882
  O -2.51334033 -1.20077724  1.35948144
  C -3.59611552 -1.27874782  2.27929179
  O -3.44059245  0.59262664  0.38186590
  C -2.05976191 -0.83673174 -1.85786268
  C -1.23502981 -0.82007395 -3.11613647
  O -3.18771005 -1.26664143 -1.84595236
  H  0.30500095  1.76022099  2.56447642
  H -1.16576489  0.93916936  2.08015473
  H -1.07713654  3.71005037  2.16875951
  H -2.08836246  4.05626338 -0.04511887
  H -2.70118864  3.38528099 -2.03391192
  H -2.96862295  1.64314298 -2.18573734
  H -1.49976158  2.38798806 -2.87712421
  H -0.07766035  1.01521835 -1.61292871
  H  3.11765960  2.87640685  0.82639518
  H  2.23266203  1.99129880  2.01784473
  H  1.12529662 -0.30826174  2.77250771
  H -0.38236238 -1.12669054  2.37384750
  H  1.16102981 -1.94104474  2.11641033
  H  3.13630511 -0.31934254  1.91012810
  H  5.36462032 -0.56350951  0.96570062
  H  5.66136082 -1.06342898 -1.43432976
  H  3.67087687 -1.33513909 -2.87267252
  H  1.42551023 -1.08752603 -1.91667392
  H -0.75074209 -2.91301998  0.87662951
  H  0.54652602 -3.03938916 -0.33096629
  H -1.14351738 -2.90787856 -0.84386901
  H -3.75915489 -2.33385996  2.49171804
  H -3.33942557 -0.74649167  3.19835235
  H -4.48823021 -0.83097695  1.83940649
  H -1.60968519 -0.03243957 -3.76805032
  H -0.18316861 -0.64881609 -2.92408323
  H -1.37155140 -1.76528876 -3.63967486
