25
opt_min/./Product_3438_opt.xyz
  C -1.85950600 -0.70687600  0.25549000
  O -2.90171491 -0.41396411  0.79462794
  C -1.38349542 -2.09245536  0.20274648
  C -0.18244591 -2.43985323 -0.26851537
  C  0.75613087 -1.48286766 -0.88223194
  O  1.69872089 -1.87545307 -1.53444933
  C  0.47893788 -0.02317256 -0.67818779
  C -0.97665368  0.37119292 -0.39144096
  N -0.80627720  1.45308943  0.59008465
  C -1.83169893  2.34958761  1.02860163
  N  0.37324299  1.43509372  1.13943671
  C  1.17895173  0.61557720  0.55771035
  C  2.56192697  0.46761102  0.99596727
  C  3.53534520 -0.13906161  0.01974787
  O  2.90874618  0.83922749  2.09878261
  H -2.07077869 -2.82778152  0.60009126
  H  0.13671039 -3.47203654 -0.30332324
  H  0.85671723  0.52510689 -1.55397815
  H -1.49408959  0.72848432 -1.28957319
  H -1.85329466  3.24061540  0.39201940
  H -2.79964359  1.85355206  1.00137394
  H -1.61798859  2.64954783  2.05286855
  H  4.53911159  0.18327542  0.28193973
  H  3.49514248 -1.22112722  0.11958387
  H  3.31059677  0.10677254 -1.01286842
