45
opt_min/./Product_4390_opt.xyz
  C  1.44108704  0.34259494  1.64228896
  C  0.47824910 -0.52204974  0.82256847
  C -0.25476709 -1.43053630  1.81223050
  C -0.47613747  0.37786552 -0.01420986
  C -1.85827549 -0.18585529 -0.08507825
  C -2.93456803  0.45823096  0.36102818
  C -4.30188773 -0.04223240  0.34337985
  C -4.59333363 -1.32150417 -0.38738526
  C -5.26283070  0.61555996  0.99193601
  C  0.18614982  0.49537012 -1.42170853
  C -0.82782797  0.45161107 -2.56815731
  C  0.98134457  1.80239820 -1.54593325
  N  1.12332741 -0.62724627 -1.52407531
  C  1.22539099 -1.35734124 -0.26247267
  C  2.71100014 -1.59644700  0.13633467
  N  3.56656460 -0.95331554 -0.66643314
  C  4.99635854 -1.02471904 -0.51459514
  O  3.01862926 -2.28983727  1.08098888
  C  0.65543829 -2.67920450 -0.44276375
  N  0.21328180 -3.69572123 -0.73174491
  H  2.10298888 -0.28433690  2.23378270
  H  2.05075641  0.98748362  1.01474311
  H  0.86891798  0.96745363  2.32537196
  H  0.47619834 -2.01917341  2.36421069
  H -0.93647355 -2.11707106  1.32032952
  H -0.82304038 -0.82521765  2.51536269
  H -0.52682389  1.36945644  0.44093391
  H -1.94570941 -1.17418284 -0.51243181
  H -2.80966264  1.43864311  0.80645100
  H -5.65208291 -1.38837789 -0.62494791
  H -4.32819897 -2.17630893  0.23441036
  H -4.02573514 -1.38547665 -1.31246248
  H -5.05862548  1.52020319  1.53896188
  H -6.28023351  0.26239093  1.00969188
  H -0.32214190  0.63423702 -3.51483601
  H -1.58801698  1.21667127 -2.42885916
  H -1.32163475 -0.51580994 -2.62658591
  H  1.47842623  1.83578087 -2.51339313
  H  1.73697519  1.87806123 -0.77063478
  H  0.31431977  2.65696077 -1.47043626
  H  0.87308348 -1.24903324 -2.28538545
  H  3.15697400 -0.42673907 -1.42922830
  H  5.41851328 -0.02780427 -0.37348831
  H  5.45675880 -1.48679320 -1.38999296
  H  5.20348216 -1.63396837  0.36434951
