41
opt_min/./Product_4193_opt.xyz
  C  0.68172900 -0.46402000  1.87700900
  C  0.73879155 -0.92465409  0.41355184
  C  1.68486774 -2.11438071  0.29060368
  C -0.69196198 -1.18020911 -0.13851520
  C -1.53728289 -2.00655524  0.83213592
  C -0.68933685 -1.91266467 -1.49437294
  N -1.15718740  0.19329496 -0.33234752
  C -2.39236544  0.61092393 -0.79085342
  C -2.47353076  1.63157260 -1.74839504
  C -3.69339464  2.13963684 -2.14882505
  C -4.87542418  1.65289251 -1.61657618
  C -4.80830023  0.64810257 -0.66664130
  C -3.59427973  0.13747820 -0.25055886
  N -0.03816579  0.98702847 -0.80815165
  C  1.17534999  0.25425697 -0.49300116
  C  2.30754742  1.10113282  0.04606627
  O  2.04904354  2.40751068 -0.06542838
  C  3.03905324  3.32728796  0.37612737
  O  3.33701568  0.65195355  0.48098461
  H  0.58715565 -1.32411400  2.53486424
  H  1.59979234  0.04953801  2.14805073
  H -0.15613898  0.20493158  2.04505279
  H  1.82416616 -2.41142996 -0.74344956
  H  1.30325391 -2.96483163  0.84905971
  H  2.65270459 -1.83776998  0.70056122
  H -1.78288604 -1.45068760  1.72980885
  H -2.45187390 -2.33858527  0.35041101
  H -0.97535765 -2.89409095  1.11605096
  H  0.00881540 -1.46982765 -2.19558169
  H -0.45714333 -2.96567908 -1.36571890
  H -1.68357420 -1.82549015 -1.92800567
  H -1.56771084  2.01689301 -2.18778242
  H -3.71319714  2.92144333 -2.89497242
  H -5.82783064  2.04908284 -1.92971889
  H -5.71520527  0.25835218 -0.22912712
  H -3.59222733 -0.62511224  0.50906361
  H -0.07836720  1.86739869 -0.29674904
  H  1.58748441 -0.15800128 -1.42773236
  H  3.88260695  2.78712249  0.80870520
  H  3.36733941  3.91239433 -0.48081126
  H  2.58540054  3.98216656  1.11975455
