49
opt_min/./Product_1236_opt.xyz
  C  5.11078800  0.83499100  1.42578500
  N  4.24087147  0.16791480  0.48636820
  C  3.18368603 -0.55007754  0.89807457
  O  2.97017106 -0.80812040  2.06635142
  C  2.21463045 -1.07254135 -0.20023393
  C  2.76392282 -0.95101061 -1.63047203
  C  1.11061686  0.00562409 -0.07457819
  C -0.28342784  0.14672884  0.01008473
  N -0.48880446  1.49093206  0.05311841
  C -1.71010027  2.24126705  0.17131403
  N -1.46591757  3.54883614  0.00472284
  C -2.50480708  4.54239123  0.09724799
  O -2.76685209  1.73012776  0.40651759
  N  0.69002505  2.12580330  0.00189847
  N  1.62080147  1.26426951 -0.07406407
  C -1.37608418 -0.92701677 -0.09559831
  O -2.23772087 -0.99993483  1.00423204
  C -1.63871898 -1.18719842  2.26338807
  O -2.11714778 -0.61336294 -1.23699193
  C -3.28437414 -1.39229000 -1.41963502
  C -0.38547587 -2.08827592 -0.26998483
  C -0.26310211 -3.59357060 -0.37528603
  C  1.27139991 -3.65764122 -0.61285393
  C  2.11679196 -2.60811869  0.16302888
  H  6.13925348  0.79007490  1.06945579
  H  5.02762612  0.31960361  2.38097889
  H  4.81847009  1.87920535  1.56281208
  H  4.26929822  0.49114188 -0.46578874
  H  2.06145215 -1.40720422 -2.32704277
  H  2.87690257  0.08933499 -1.92609712
  H  3.71639546 -1.46808795 -1.72566626
  H -0.50691897  3.83007430 -0.14933567
  H -2.27987178  5.25969809  0.88797226
  H -2.61254829  5.07543608 -0.84911625
  H -3.43639369  4.02841674  0.32820531
  H -1.27840174 -2.21419414  2.38777192
  H -0.80839328 -0.49349928  2.43203513
  H -2.42283147 -0.98974073  2.99165501
  H -3.04639328 -2.46026830 -1.40442545
  H -4.01971159 -1.16878223 -0.64597501
  H -3.67079571 -1.11039044 -2.39674196
  H  0.12448671 -1.75155610 -1.17437360
  H  0.21585256 -1.90305710  0.60995059
  H -0.54541594 -4.10748015  0.54380792
  H -0.79949893 -4.04266886 -1.20982445
  H  1.45926602 -3.54255875 -1.68137903
  H  1.65229332 -4.63832123 -0.32162985
  H  1.89166942 -2.69095785  1.22806343
  H  3.15664715 -2.93565794  0.05618188
