52
opt_min/./Product_2097_opt.xyz
  F -0.32416200 -2.58498000 -3.05077600
  C -0.20719705 -1.33053565 -2.58254737
  F  1.01364358 -0.91565845 -2.94474039
  F -1.08402895 -0.61354745 -3.30242846
  C -0.41129894 -1.34276826 -1.06449261
  C -0.28847555 -0.10196719 -0.09504186
  C -0.31101248  1.32967836 -0.58746313
  C -0.60520562  2.31141145  0.36573726
  C -0.64212224  3.65114994  0.03699611
  C -0.36677572  4.05933080 -1.25708824
  C -0.03190188  3.10702233 -2.19679654
  C  0.00153731  1.76019583 -1.86701264
  C -1.51818119 -0.37020044  0.83116345
  C -2.80416300  0.00755211  0.08727713
  C -2.90848818 -1.07693794 -0.99970179
  C -1.73799193 -2.01525749 -0.66584672
  C -1.64621327 -1.89219415  0.85426944
  C  1.09736808 -0.42613292  0.59545986
  C  1.05499730 -0.50148499  2.13892809
  N  1.66578823 -1.57851508  2.64931312
  C  1.82422711 -1.74120613  4.07691012
  O  0.50887046  0.34249842  2.81946156
  C  2.19864729  0.56991806  0.24494077
  C  3.06755811  0.28740618 -0.80159487
  C  4.02353322  1.21288892 -1.18212351
  C  4.11740867  2.42683482 -0.52729833
  C  3.26746818  2.70117133  0.53015298
  C  2.31668948  1.77738605  0.92209056
  N  1.46874706 -1.72959860  0.11118005
  N  0.70111589 -2.22256859 -0.68858352
  H -0.79308393  2.02193414  1.38576982
  H -0.88693828  4.37413331  0.80099824
  H -0.39767510  5.10669505 -1.51834948
  H  0.21503492  3.40342157 -3.20543049
  H  0.30555711  1.08872816 -2.64554403
  H -1.43013227  0.10050538  1.80310962
  H -2.77984612  1.01546857 -0.32131449
  H -3.64567366 -0.04714217  0.77872328
  H -3.84867334 -1.62344826 -0.94692813
  H -2.82388123 -0.65323777 -1.99595929
  H -1.84769446 -3.02093766 -1.06748767
  H -0.78480154 -2.41051108  1.27223497
  H -2.54752687 -2.22438359  1.36267638
  H  2.19003251 -2.16325861  2.01423827
  H  0.85497535 -1.94913577  4.53504808
  H  2.22125885 -0.82729564  4.52228248
  H  2.49856755 -2.56895790  4.27390508
  H  3.00074952 -0.65399821 -1.32464428
  H  4.68969928  0.97997143 -1.99921382
  H  4.85136709  3.15752782 -0.83426778
  H  3.34049706  3.64126050  1.05674927
  H  1.67171020  1.99111677  1.75796924
