57
opt_min/./Product_5697_opt.xyz
  C  5.46172600 -0.65450100 -0.76738800
  C  4.85432544 -0.67014029  0.60238177
  C  5.84682253 -0.87969143  1.70549237
  C  3.55309719 -0.52473297  0.86894444
  C  2.47740060 -0.32355448 -0.07384119
  C  1.20898387 -0.19355943  0.31516350
  C  0.00748581 -0.04032197 -0.56905988
  C  0.36121404  0.04647385 -2.05263086
  C -0.96688184 -1.20651907 -0.33160153
  C -2.34137459 -0.61827134 -0.67930415
  C -2.75053062 -1.02460450 -2.11593366
  N -3.44080890 -0.06896752 -2.75726263
  C -4.02387527 -0.25830559 -4.05902607
  O -2.49134504 -2.11538477 -2.58106912
  C -3.44997098 -1.12989963  0.21243010
  C -4.37535935 -0.25805904  0.76894188
  C -5.39926539 -0.74565522  1.56128505
  C -5.51675819 -2.10550850  1.78668873
  C -4.61320079 -2.97880072  1.20891964
  C -3.58210216 -2.49605418  0.42396067
  O -2.20373513  0.79710578 -0.61484462
  C -0.90634891  1.15821826 -0.15865539
  C -0.55336987  2.49257171 -0.81874896
  C -0.95629958  1.31739190  1.38317654
  O -1.83890423  0.83989931  2.05928776
  N  0.04781561  2.05656030  1.90722332
  C  0.15216740  2.30956958  3.32370122
  H  6.09504295  0.22954621 -0.87105227
  H  4.71460560 -0.63204601 -1.55312833
  H  6.09388261 -1.53271458 -0.90291004
  H  6.27086925 -1.88274565  1.64190265
  H  5.38605230 -0.76880648  2.68575708
  H  6.67091009 -0.17034233  1.62018216
  H  3.24494698 -0.55526467  1.90808562
  H  2.73855875 -0.26210899 -1.11780064
  H  0.98494836 -0.27342849  1.37235477
  H  1.03606386  0.87459336 -2.25837587
  H -0.54169316  0.17289818 -2.64724544
  H  0.83696614 -0.88103680 -2.36804683
  H -0.74978930 -2.06324215 -0.96883481
  H -0.95033198 -1.52102207  0.71434924
  H -3.60145718  0.79597680 -2.26194531
  H -3.92340827 -1.31230011 -4.31884385
  H -5.07964804  0.01790101 -4.05089734
  H -3.50648286  0.34391529 -4.81198590
  H -4.27118732  0.80144734  0.60163341
  H -6.10987407 -0.06128811  2.00224023
  H -6.31712876 -2.48670235  2.40711223
  H -4.71124250 -4.04306708  1.36813387
  H -2.89269901 -3.18422395 -0.04198604
  H -1.11035540  3.29849194 -0.34472805
  H -0.83415881  2.45777181 -1.87015302
  H  0.51268141  2.70130383 -0.75508683
  H  0.80061232  2.37286038  1.31986439
  H -0.03802629  3.36244728  3.54848386
  H  1.14319250  2.03550193  3.68636282
  H -0.60140593  1.70066056  3.82373038
