47
opt_min/./Product_5403_opt.xyz
  C -0.25111400 -1.57058500 -0.59354400
  C  0.32104189 -0.42466915  0.24628675
  C -0.81248919  0.59199087  0.51211107
  N -2.09688920  0.01874519  0.82600485
  C -2.93248895  0.81053839  1.69829042
  C -2.29154415 -1.31726910  0.74087085
  C -1.45984657 -2.15120178  0.08203510
  C -1.57728120 -3.60728217  0.04719673
  N -2.76419802 -4.14909532  0.46293121
  O -0.63775152 -4.33094734 -0.25164105
  C -0.68248898  1.44742139 -0.74351055
  C -1.71443974  2.37574878 -1.29021488
  N -1.30012442  2.96020134 -2.42522293
  C -2.09634511  3.90647324 -3.15867259
  O -2.79941444  2.56587935 -0.77159405
  N  0.44423836  1.35516855 -1.31536547
  C  1.29988789  0.44537661 -0.59453338
  C  2.11694656  1.31634040  0.41234545
  O  1.59914571  2.26039180  0.96923426
  N  3.36541487  0.89242580  0.66677306
  C  4.25258127  1.62158631  1.54332977
  C  2.21863806 -0.27031705 -1.57880290
  O  2.47995982  0.18107393 -2.66861154
  N  2.80545147 -1.39645558 -1.08258777
  C  3.57334595 -2.27587456 -1.93880368
  H -0.52299304 -1.17460578 -1.57870897
  H  0.45964174 -2.38318577 -0.74749077
  H  0.76122246 -0.79715765  1.17280736
  H -0.52863259  1.25044258  1.34712294
  H -3.07605348  1.79430655  1.25228672
  H -3.90553127  0.33466166  1.79712920
  H -2.48569751  0.91954242  2.69319180
  H -3.17221075 -1.67860250  1.25169073
  H -2.85682516 -5.14499566  0.34568948
  H -3.61009170 -3.60916859  0.44817589
  H -0.36644990  2.72987499 -2.73625305
  H -1.60597832  4.88170157 -3.19093471
  H -3.05285023  4.00063120 -2.64589800
  H -2.26500786  3.55703017 -4.17871954
  H  3.76894415  0.16548724  0.09411393
  H  3.66756605  2.38387644  2.05333974
  H  4.68994055  0.94238514  2.27499782
  H  5.05005458  2.10406467  0.97598547
  H  2.42615524 -1.81463847 -0.24746965
  H  3.81960803 -1.72498351 -2.84475910
  H  3.00087144 -3.16594864 -2.20425185
  H  4.48799295 -2.57877977 -1.42921465
