53
opt_min/./Product_5796_opt.xyz
  C  2.61386189  1.20663150 -0.58613651
  C  1.10724906  1.04592662 -0.51015699
  C  0.62659813 -0.03583620  0.47420503
  N  1.31037893 -1.27676877  0.15362322
  C  0.75007621 -2.59868345  0.30944290
  C  2.62993259 -1.22738687 -0.19632230
  C  3.31801113 -0.11818861 -0.51717670
  C  4.72683216 -0.09368318 -0.93377294
  N  5.46556939 -1.22143287 -0.72738352
  O  5.22667295  0.88625738 -1.45770895
  C -0.88584185  0.01293949  0.13022099
  C -1.45262050  1.38063327  0.56308155
  C -1.30604224  1.83644035  1.86789267
  C -1.85513245  3.04631132  2.25292665
  C -2.57315902  3.80946363  1.34931471
  C -2.74820177  3.34765651  0.05669542
  C -2.19659178  2.13940798 -0.33010930
  C -1.85016897 -0.90375159  0.85437071
  C -3.15353171 -1.05631212  0.39381466
  C -4.07963231 -1.78668568  1.11662165
  C -3.73336072 -2.34992328  2.33192826
  C -2.45369635 -2.16257392  2.82439132
  C -1.52353577 -1.44184103  2.09818666
  N -0.86587980 -0.04787694 -1.33292558
  C -1.39863917 -1.16453312 -2.08085472
  C  0.38036140  0.56858161 -1.79957269
  C  1.21412255 -0.32264549 -2.59646843
  N  1.83231290 -1.01540722 -3.26304816
  C  0.05511758  1.70567974 -2.65467495
  N -0.23715422  2.60000354 -3.30262093
  H  2.94111512  1.84738354  0.23993158
  H  2.91143385  1.71451348 -1.50762988
  H  0.66434792  2.00434795 -0.22168091
  H  0.84131863  0.26204274  1.50837307
  H  0.99682297 -3.20299870 -0.56634682
  H -0.32856891 -2.55889851  0.40282985
  H  1.15135170 -3.09639522  1.20065587
  H  3.09373133 -2.20208995 -0.23881996
  H  6.44100896 -1.17422678 -0.96886151
  H  5.15599550 -1.97704349 -0.14666683
  H -0.77177212  1.24979493  2.59991305
  H -1.72295114  3.38837024  3.26891490
  H -2.99904732  4.75352427  1.65295569
  H -3.31307179  3.92754802 -0.65685455
  H -2.33470281  1.79183132 -1.34212600
  H -3.45766048 -0.58552674 -0.52640060
  H -5.08153201 -1.90162260  0.73105879
  H -4.45772345 -2.91560783  2.89772985
  H -2.17545019 -2.57372336  3.78342314
  H -0.53193982 -1.31225246  2.50437789
  H -0.72822424 -1.43562793 -2.89670023
  H -2.36502006 -0.89801836 -2.52310064
  H -1.53649626 -2.04840200 -1.45617055
