41
opt_min/./Product_1354_opt.xyz
  C  2.03893600 -2.43340900  0.45916000
  C  1.21995689 -1.18178094  0.70104311
 Cl  1.68332299 -0.53562162  2.30437784
  C -0.33025212 -1.31765897  0.62407514
  C -1.06235002 -1.21029522  1.95235399
 Cl -0.79247821 -2.89643652 -0.10457555
  C -0.69670517 -0.17219586 -0.38279953
  C -2.11199498  0.29680181 -0.29971659
  C -3.11631733 -0.33269002 -1.02433261
  C -4.42769606  0.09438068 -0.90718830
  C -4.75172218  1.14417777 -0.06643337
  C -3.75642437  1.77104703  0.66506335
  C -2.44477254  1.34918701  0.55182184
  C -0.17603374 -0.73904225 -1.72519312
  O -0.77495707 -1.13352305 -2.67609421
  O  1.15804863 -0.69803922 -1.63055804
  C  1.46177205 -0.07733368 -0.35671791
  C  2.84817057  0.57093716 -0.46553180
  N  3.10984340  1.46350239  0.50711143
  C  4.37387489  2.15913548  0.55263474
  O  3.58712642  0.34010316 -1.39315015
  N  0.35524086  0.82229309 -0.09653088
  C  0.31821890  1.98886810 -0.96983516
  H  3.09590270 -2.19468579  0.56791638
  H  1.77110227 -3.20902180  1.17222331
  H  1.87675981 -2.79946354 -0.55151075
  H -2.11161000 -1.45443141  1.80901720
  H -0.63846691 -1.90756084  2.67025654
  H -0.98777105 -0.19972306  2.34334869
  H -2.87125770 -1.14782666 -1.68522031
  H -5.19933407 -0.39881837 -1.47869865
  H -5.77673213  1.47214687  0.02163168
  H -3.99922969  2.58808689  1.32851180
  H -1.67028001  1.83528895  1.12663502
  H  2.54657689  1.45778781  1.34312127
  H  4.71741722  2.30834449 -0.46882763
  H  5.12763880  1.57825744  1.09070197
  H  4.23982502  3.11941962  1.04402233
  H  1.05658371  2.70839103 -0.62601750
  H -0.67099444  2.43519248 -0.90907350
  H  0.52434383  1.73499637 -2.01543663
