30
opt_min/./Product_3587_opt.xyz
  C -2.38840498  0.79373905  0.12351810
  C -1.43313366  0.07854713 -0.82542456
  C -0.08101753  0.78895957 -1.10333199
  C  0.04768868  2.19546131 -0.53379865
  C  0.93866481 -0.22146562 -0.46611387
  C  2.28367365  0.41686492 -0.21085778
  C  2.55998748  0.87623809  1.19906240
  O  3.05602529  0.60264346 -1.11325385
  C  0.89771425 -1.38841814 -1.47628486
  O  1.68468729 -1.72096756 -2.30145898
  O -0.28240920 -2.00231346 -1.24699863
  C -0.92195285 -1.23526246 -0.18649313
  C -1.92118429 -2.03884393  0.47250210
  N -2.71748530 -2.66373010  1.00003135
  N  0.16511478 -0.76944911  0.65402790
  C  0.79137284 -1.83450362  1.42504530
  H -1.94043845  0.91566188  1.10673601
  H -2.66223432  1.76810054 -0.26976577
  H -3.29541268  0.20226714  0.23640322
  H -1.95175063 -0.15451279 -1.75914243
  H  0.10837658  0.84150506 -2.18137707
  H  1.01181942  2.61237815 -0.81760485
  H -0.72780295  2.83366677 -0.95126114
  H -0.03292819  2.20317214  0.54779245
  H  2.99153840  1.87493345  1.17023069
  H  3.31078101  0.22519835  1.64737046
  H  1.66213185  0.86468163  1.80785137
  H  0.89665143 -2.76544332  0.85474461
  H  1.77760803 -1.52256728  1.75213010
  H  0.16767919 -2.02986814  2.29810774
