50
opt_min/./Product_1345_opt.xyz
  C -0.43064739 -0.66024244  3.75828237
  O -0.70016911 -0.24961958  2.42422584
  C  0.33340511 -0.02897233  1.62479586
  O  1.48798711 -0.05485295  1.98035568
  C -0.09651116  0.24867884  0.18924668
  C  0.95228391  1.09666707 -0.56807054
  C  0.19569608  2.37589432 -0.94191671
  C -0.03367129  3.16860427  0.34957687
  C -1.13068140  2.35110699  1.06233244
  C -1.34915360  1.14635179  0.12715609
  C -1.21242768  1.84743358 -1.22411333
  C  1.42729797  0.24136535 -1.76065378
  C  2.97063857  0.41070283 -1.85230046
  N  3.64447922 -0.59869981 -1.28073845
  C  5.07680079 -0.53348153 -1.09532813
  O  3.47752709  1.38145628 -2.36414186
  C  0.88746137  0.64911795 -3.04536156
  N  0.48549676  0.85541407 -4.09675637
  N  1.04291080 -1.12512782 -1.42342843
  C  1.04117863 -2.04692396 -2.54537035
  C -0.11428392 -1.15477424 -0.53177062
  C -1.44870404 -1.46793299 -1.22886687
  C  0.08522243 -2.28236732  0.51531637
  C  1.47366693 -2.83103267  0.70804836
  O -0.85017825 -2.69616177  1.15371170
  H -0.43140590 -1.75118901  3.79374916
  H -1.23145620 -0.26415905  4.37841831
  H  0.53927793 -0.27901617  4.08212804
  H  1.81313058  1.30400963  0.07289317
  H  0.68253217  2.93899916 -1.73603494
  H -0.37630625  4.17782627  0.12133607
  H  0.87463219  3.25009894  0.94485043
  H -0.84285458  2.06829502  2.07123333
  H -2.05863647  2.91797216  1.13443067
  H -2.28144224  0.62738453  0.32970562
  H -1.94038276  2.64582653 -1.35034354
  H -1.26718542  1.19057613 -2.08463182
  H  3.10866820 -1.27661960 -0.75882752
  H  5.43076319 -1.48144072 -0.70009404
  H  5.55467866 -0.33494661 -2.05504906
  H  5.34645243  0.27409899 -0.41045713
  H  0.30027798 -1.80451185 -3.31565544
  H  0.84450003 -3.05718589 -2.19080357
  H  2.02770402 -2.02189252 -3.00892638
  H -1.45290906 -2.50228519 -1.56560227
  H -1.61637358 -0.82239644 -2.08574897
  H -2.26511672 -1.35103537 -0.52399370
  H  2.12205140 -2.02761673  1.05434587
  H  1.43844988 -3.61318046  1.46280979
  H  1.87536282 -3.23258439 -0.21674809
