41
opt_min/./Product_1022_opt.xyz
  C  3.74595598  0.38447592  1.99996806
  N  2.59380634  0.77112733  1.21644595
  C  1.77360727 -0.14039700  0.66120031
  O  2.00283251 -1.32886796  0.66521152
  C  0.54390148  0.44910965 -0.03559023
  C -0.28872799 -0.60439177 -0.82512665
  C  0.19920536 -2.07475596 -0.62605088
  C  1.18795198 -2.59861932 -1.63447481
  O -0.33115776 -2.78821043  0.18241636
  C -0.05537249 -0.09854679 -2.28550574
  C -0.82202848  1.18671311 -2.49941214
  C -0.15234190  2.11127730 -1.82212916
  C  1.02206656  1.37754070 -1.20633440
  O  1.28375950  0.38816772 -2.18761614
  C -1.68429390 -0.44757114 -0.14679744
  C -2.72855032 -1.49816605 -0.45766526
  C -2.22507075  0.98557280 -0.35271611
  O -3.19166136  1.33708689 -0.95886984
  O -1.46144218  1.80460787  0.40052399
  C -0.49570921  0.90593658  1.03099763
  C  0.02952852  1.55480364  2.20785611
  N  0.43980965  2.08747610  3.13132449
  N -1.21793205 -0.32090397  1.24692077
  C -2.22142670 -0.32611558  2.28921740
  H  3.58226699  0.59704501  3.05694867
  H  4.62560926  0.92644317  1.65428390
  H  3.89469561 -0.68433713  1.86289031
  H  2.32263639  1.74096978  1.26362439
  H  1.76804080 -3.38616088 -1.16262171
  H  1.85136031 -1.82556517 -2.00414987
  H  0.63145442 -3.03986347 -2.46110805
  H -0.14739047 -0.85143961 -3.06145639
  H -1.71763487  1.26776415 -3.08117720
  H -0.35328920  3.15374161 -1.67908922
  H  1.91120540  1.96578906 -0.99506635
  H -2.55875733 -2.39418321  0.12909219
  H -2.67853134 -1.75476578 -1.51250001
  H -3.72069339 -1.10189946 -0.24928326
  H -1.71870407 -0.16714713  3.24271378
  H -2.68276991 -1.30915645  2.29824828
  H -2.99607387  0.44161215  2.15900163
