49
opt_min/./Product_5472_opt.xyz
  C  1.01119600 -0.70202000  0.67127600
  C  0.37483496 -0.88506267 -0.70451282
  C  0.26830801  0.43131024 -1.49210131
  N  1.46891589  1.20752062 -1.44929820
  C  1.72879772  2.10149946 -2.54586483
  C  2.31357584  1.11656371 -0.39760916
  C  2.17230963  0.25315308  0.62910811
  C  3.02283833  0.23216125  1.81791643
  N  4.18114255  0.96803621  1.78929959
  O  2.68840439 -0.34264903  2.84324362
  C -1.02470731  1.10115968 -0.91511836
  C -0.64954695  2.05986813  0.22650058
  N -1.02238972  1.71188637  1.47275004
  C -0.65643116  2.50466492  2.62319825
  O -0.06058079  3.09538259 -0.01782595
  C -1.76849961  1.93853495 -1.96621188
  N -1.86205799 -0.04455551 -0.58966299
  C -1.11261113 -1.28686313 -0.61080295
  C -1.52566510 -2.12063163 -1.85183690
  C -2.95986537 -1.96840919 -2.26683500
  O -0.73783104 -2.81857764 -2.42824722
  C -1.33355769 -2.19922797  0.58985923
  O -0.91446177 -3.31761871  0.67683293
  O -2.06029254 -1.58896272  1.54340673
  C -2.24945794 -2.30069660  2.76454974
  H  1.35887931 -1.66736184  1.04822803
  H  0.28552829 -0.33499786  1.39937746
  H  0.93504984 -1.62677373 -1.27599333
  H  0.05567361  0.18310817 -2.54016739
  H  2.61755274  2.69045170 -2.33476604
  H  0.89231584  2.78449034 -2.69201860
  H  1.89009887  1.53838433 -3.47177970
  H  3.13243823  1.81984398 -0.42280440
  H  4.78537803  0.81244816  2.58125236
  H  4.64104392  1.16757095  0.91936169
  H -1.46900401  0.82512067  1.64826375
  H  0.14896135  3.17424776  2.32530821
  H -1.50334428  3.10142997  2.97094591
  H -0.31368899  1.85708033  3.42851282
  H -1.23050705  2.85983303 -2.16552997
  H -2.75403724  2.19431379 -1.58400481
  H -1.88676474  1.37149171 -2.88526344
  H -2.44264140  0.07809774  0.22621643
  H -3.57464382 -1.59473659 -1.45617896
  H -3.33259733 -2.92122625 -2.63485167
  H -3.00085316 -1.25411152 -3.08730640
  H -3.27366176 -2.12308690  3.08686623
  H -1.54407325 -1.92723178  3.50813777
  H -2.07553947 -3.36506117  2.60227961
