42
opt_min/./Product_1032_opt.xyz
  C -2.96278603 -1.64456699  1.91356497
  C -1.65218716 -1.44954638  1.19898691
  O -0.66103308 -2.05370811  1.52563637
  C -1.61836593 -0.36556808  0.13101079
  C -0.43335334 -0.32078865 -0.87389906
  C  0.20603811 -1.65378201 -1.25017280
  C -1.24932332  0.14524298 -2.14304329
  C -1.95327253  1.46467675 -1.92326655
  C -2.98408587  1.19856760 -1.13290884
  C -2.85627788 -0.28314242 -0.83861015
  O -2.32802640 -0.78139308 -2.03888958
  C  0.56231634  0.68393993 -0.21581201
  C  1.27995593  1.62809712 -1.21981987
  N  2.57726068  1.85899722 -0.99088835
  C  3.30515496  2.78140366 -1.83720513
  O  0.68108150  2.16359322 -2.12643109
  C  1.61176097 -0.10311113  0.62493719
  O  2.55567708 -0.66341875  0.09945127
  N  1.42660145 -0.08284020  1.94836447
  C  2.24015563 -0.88781025  2.83061667
  N -0.22859124  1.47799601  0.68419198
  C -1.36109294  0.93247238  0.88432832
  C -2.31194599  1.45984345  1.78125120
  N -3.10771345  1.86645560  2.50061236
  H -3.30918954 -2.65970045  1.72936714
  H -2.78343874 -1.56233576  2.98509881
  H -3.73026397 -0.93379130  1.62797838
  H -0.50854879 -2.25471389 -1.80821972
  H  0.52017126 -2.20972903 -0.37184989
  H  1.08140879 -1.46841587 -1.86717565
  H -0.70366442  0.03470443 -3.07167847
  H -1.62458602  2.39481671 -2.33497414
  H -3.72391542  1.84576784 -0.70694718
  H -3.74269517 -0.83405792 -0.54379748
  H  3.09750519  1.30584387 -0.33254021
  H  4.36879125  2.68736109 -1.64130229
  H  2.98153708  3.80364890 -1.63858592
  H  3.10391772  2.56480141 -2.88762551
  H  0.66626072  0.44640903  2.34161958
  H  3.28388938 -0.81752249  2.52664465
  H  1.93171838 -1.93264256  2.77325415
  H  2.12751496 -0.52990775  3.84835752
