41
opt_min/./Product_4123_opt.xyz
  N -0.15599900  0.31655000  0.63161100
  C -1.27936752  0.05667315 -0.24464390
  N -1.76523428  1.33108159 -0.71304177
  N -2.42683100 -0.56843712  0.41831363
  C -3.00187476  0.22949840  1.49438669
  C -0.80136388 -0.93433837 -1.40493260
  C -1.63655704 -0.72052842 -2.67323628
  C -0.92541670 -2.40700339 -0.98827799
  N  0.60267160 -0.74391627 -1.74717652
  C  1.46400142  0.24015435 -1.33963852
  C  2.76549715 -0.31116334 -0.99574069
  N  3.77629887  0.55015612 -0.64547114
  C  5.09998336  0.04340198 -0.37120078
  O  2.92794900 -1.53312156 -0.97201741
  C  1.14170215  1.62761683 -1.66262396
  O  0.44087007  1.91553986 -2.62970383
  N  1.56284464  2.60527733 -0.79901855
  C  1.50224476  3.98725247 -1.22682556
  H -0.12862735  1.26154620  0.97846075
  H -0.02563837 -0.36691237  1.36213311
  H -2.64835719  1.19135070 -1.18834553
  H -1.11633379  1.75402370 -1.36382479
  H -2.12745272 -1.45066043  0.82188085
  H -3.89410969 -0.28484661  1.84940448
  H -3.28154730  1.20353260  1.10170470
  H -2.32056795  0.37851110  2.34243537
  H -2.68830968 -0.89800947 -2.46425626
  H -1.30013947 -1.42088108 -3.43414070
  H -1.49393295  0.28419878 -3.06019486
  H -0.50525318 -3.03268320 -1.77366663
  H -1.96767051 -2.68624731 -0.86090453
  H -0.37653744 -2.59987453 -0.06854055
  H  1.12991697 -1.62213229 -1.68847848
  H  3.72446992  1.50742055 -0.95419322
  H  4.99675026 -1.01225693 -0.12338368
  H  5.53388503  0.57880117  0.47463128
  H  5.76476065  0.13865190 -1.23517342
  H  2.24883237  2.38224602 -0.09608804
  H  2.24548944  4.20852219 -1.99996485
  H  1.66300708  4.63773086 -0.36942696
  H  0.51352725  4.17419662 -1.64235781
