42
opt_min/./Product_1046_opt.xyz
  C -3.44117009 -2.85096957 -0.85619507
  N -2.51787526 -1.74706950 -0.75463740
  C -1.26641262 -1.90972146 -0.27635145
  O -0.81899228 -2.97642977  0.06752952
  C -0.52846297 -0.56227590 -0.22761601
  C  0.93357242 -0.51089990  0.30176420
  O  1.34824607 -1.75276546  0.76338123
  C  2.58253687 -1.83419804  1.43731362
  C  0.76714402  0.56908815  1.46808944
  C  0.08698250 -0.21139494  2.57145833
  C -1.15624372 -0.37602700  2.14722462
  C -1.23547336  0.36284959  0.82917159
  O -0.26993542  1.38988717  0.97408602
  C  1.77901417  0.04501044 -0.89698168
  C  2.61124192 -0.99625902 -1.48721839
  N  3.23666114 -1.77488480 -2.04247889
  C  2.62891595  1.29242875 -0.54364942
  C  4.01960758  1.04728975 -0.02800009
  O  2.17373768  2.38907308 -0.71091551
  O  0.87364051  0.44629381 -1.91171572
  C -0.44784538  0.05932104 -1.64428841
  C -1.41998702  1.22649614 -1.83807259
  C -0.82493935  2.53613004 -2.17700074
  O -2.60694720  1.02391358 -1.68834489
  H -4.39413941 -2.58996825 -0.39560347
  H -3.00568563 -3.70384084 -0.33824396
  H -3.61038140 -3.11363151 -1.90286186
  H -2.84030750 -0.83278132 -1.05454665
  H  2.59691867 -2.83605332  1.86167950
  H  2.66327590 -1.09833644  2.24378753
  H  3.42898289 -1.72691461  0.75102425
  H  1.64215532  1.16094681  1.71145034
  H  0.56849707 -0.61205909  3.43973503
  H -1.97999789 -0.90483207  2.58076955
  H -2.20423502  0.75871638  0.55433786
  H  3.98169319  0.69228169  1.00111943
  H  4.52729533  0.29379404 -0.62676352
  H  4.57686827  1.98039562 -0.05360249
  H -0.74374411 -0.70129366 -2.39063798
  H -0.33592686  2.90134655 -1.26924863
  H -0.04464461  2.41460508 -2.92381888
  H -1.58435254  3.24568970 -2.49167987
