24
opt_min/./Product_118_opt.xyz
  C  3.02725200  0.18519900  1.59973600
  C  2.75664121 -0.39276691  0.24001736
  O  3.63702744 -0.82501786 -0.46858478
  C  1.35659939 -0.40896469 -0.22671772
  C  0.18405427 -0.37819579  0.41325133
 Br -0.14687202 -0.30291596  2.25303417
  C -0.96970068 -0.42477019 -0.56323447
  C -2.00034760 -1.51270315 -0.26528366
  C -1.57878687  1.00977256 -0.61018318
  C -2.58910459  1.37915798  0.43608038
  O -1.18802025  1.78278031 -1.44140923
  O -0.34260935 -0.69371582 -1.80471273
  C  1.05914866 -0.53227490 -1.69688832
  H  2.73893586 -0.54277925  2.36061188
  H  2.46331239  1.09977244  1.76423392
  H  4.09317844  0.38160934  1.70099371
  H -2.31384440 -1.49180021  0.77571555
  H -1.54876019 -2.48043525 -0.47716779
  H -2.86345039 -1.38858603 -0.91372546
  H -3.19368537  2.20742250  0.07074969
  H -3.22433127  0.54826516  0.72298130
  H -2.05220026  1.72710095  1.32093724
  H  1.55961247 -1.40578217 -2.13366652
  H  1.38478863  0.36473827 -2.24151575
