47
opt_min/./Product_5074_opt.xyz
  C -4.34319316 -1.14073259 -0.54974176
  C -4.02626791 -0.95994562  0.90325263
  C -5.17835765 -0.53988703  1.76239889
  C -2.80316418 -1.12660048  1.42210088
  C -1.62403115 -1.48799995  0.67965593
  C -0.39837058 -1.48997259  1.20744688
  C  0.85294943 -1.82640868  0.44244420
  C  0.87074953 -3.32371892  0.10585158
  C  2.11657085 -1.39849071  1.19541355
  C  3.16189597 -1.24420345  0.08582593
  C  4.27137300 -0.33727818  0.56516392
  O  5.31285572 -1.07098625  0.97645287
  C  6.41728243 -0.36148015  1.52108963
  O  4.23899300  0.86312520  0.63245001
  N  2.41208427 -0.80160442 -1.07598384
  C  2.85270350  0.32249273 -1.86156783
  C  0.98273197 -0.96187400 -0.85645611
  C  0.42459753 -1.62940714 -2.02035760
  N  0.06725296 -2.16442235 -2.96485728
  C  0.22927126  0.36927805 -0.66959127
  O -0.77090984  0.67267845 -1.26496387
  O  0.84533785  1.15488403  0.20683934
  C  0.26775880  2.42860045  0.44981589
  H -3.97707134 -0.28854070 -1.12121915
  H -3.87329875 -2.03248206 -0.95632305
  H -5.41705133 -1.21622060 -0.69907303
  H -5.94925595 -1.31115007  1.76132887
  H -4.86968747 -0.36035486  2.78910446
  H -5.62471985  0.37122218  1.36550870
  H -2.65582608 -0.95459585  2.48082856
  H -1.75861944 -1.72324922 -0.36611816
  H -0.26032008 -1.23684375  2.25022225
  H  1.03803017 -3.90365838  1.01110025
  H -0.08278129 -3.62624014 -0.31901090
  H  1.65222345 -3.56285409 -0.61005924
  H  1.94581286 -0.41826806  1.64585302
  H  2.41821616 -2.10046676  1.96859372
  H  3.61880966 -2.22002285 -0.14412952
  H  7.01715318  0.06585917  0.71585743
  H  7.00228711 -1.08401668  2.08371661
  H  6.06750594  0.44459888  2.16867982
  H  2.95273583  1.24999946 -1.28304191
  H  2.14249834  0.47855961 -2.67204797
  H  3.82179006  0.07970742 -2.30149306
  H -0.52656834  2.33781396  1.19358277
  H  1.06882144  3.06013097  0.82490685
  H -0.15014088  2.83452493 -0.47309514
