23
opt_min/./Product_3477_opt.xyz
  O -3.15647700  0.13468400  2.53005600
  C -2.18776252  0.73567167  2.61487106
  O -1.22606605  1.34364692  2.71779085
  C -1.65044596  0.07041201 -0.40437157
  C -0.40454049  0.52725212 -0.43954187
  C  0.63150182  0.41403773 -3.66409261
  O  0.26743371 -0.63360620 -3.38490809
  O  0.97114519  1.46553786 -3.95401340
  N  0.49854430 -0.52453305 -0.49013939
  C  1.83919368 -0.48582151 -0.68483964
  O  2.52763175 -1.45897694 -0.86978372
  O  2.28992545  0.79479256 -0.66769501
  C  3.69216322  0.93787680 -0.83015047
  N -0.19395389 -1.76822411 -0.49930586
  C -1.61985587 -1.43544219 -0.40304554
  H -2.55769369  0.63600848 -0.36530148
  H -0.02685833  1.53000689 -0.45440587
  H  3.98023286  0.72139078 -1.86127567
  H  3.92143795  1.97104043 -0.58156574
  H  4.22135767  0.25309811 -0.16470145
  H  0.04391310 -2.26753420 -1.35432071
  H -2.01275080 -1.83881469  0.53827096
  H -2.20861605 -1.86625973 -1.21916358
