28
opt_min/./Product_3331_opt.xyz
  C -2.23679892 -1.03318226 -0.63344084
  C -1.30359314 -0.58909225  0.48317913
  C  0.07611592 -1.27144220  0.38412808
  C  0.56005786 -1.86397887  1.70223464
  N  0.94588378 -0.20366516 -0.07479161
  C  2.03910109 -0.39373833 -0.85021003
  C  2.78336672  0.86946338 -1.20881834
  O  2.35832971 -1.51042532 -1.21008692
  N  0.48989981  1.05405987  0.33969731
  C -0.96685703  0.94397174  0.50083718
  C -1.64399702  1.79237483 -0.57747720
  C -1.34741294  1.45629880  1.80629292
  N -1.61638757  1.84334001  2.84792939
  H -1.80676911 -0.82999973 -1.61317195
  H -3.19656666 -0.52507620 -0.56675444
  H -2.41220645 -2.10318121 -0.54607596
  H -1.76426812 -0.84531307  1.44575815
  H  0.08073329 -2.05113906 -0.38669896
  H  1.55337048 -2.28956862  1.55534827
  H -0.11442265 -2.65005176  2.03032640
  H  0.61816551 -1.09879819  2.47755699
  H  3.44297163  0.66133525 -2.04690692
  H  3.37846150  1.19804606 -0.35746259
  H  2.07675948  1.65369660 -1.46417537
  H  0.94049814  1.33491408  1.21575395
  H -1.36252633  1.43434302 -1.56420900
  H -2.72712302  1.75285145 -0.47910266
  H -1.31121812  2.82335146 -0.47144847
