33
opt_min/./Product_4085_opt.xyz
  O  2.30585845  0.96791764  1.74760794
  C  2.94315872  1.44336060  0.92727596
  O  3.58430720  1.93247542  0.11573745
  C  1.22568795  0.04203627 -1.38950592
  C  0.07999520  0.62017198 -1.07170134
  C  0.97280130  3.70954906 -0.60920011
  O  0.98251417  3.46758542  0.50960632
  O  0.95830168  3.96582741 -1.72338265
  C -0.67867425 -0.19418428 -0.05339795
  C -1.95556515 -0.73011871 -0.74526666
  C -3.07932454  0.25528755 -0.93159919
  O -2.02481318 -1.87231344 -1.11584958
  C -1.01857656  0.61535608  1.20562912
  N  0.24746707 -1.26367869  0.21475718
  C  0.07387082 -2.23863021  1.24960905
  C  1.36289567 -1.28856745 -0.69372900
  C  1.29607988 -2.43973265 -1.72830964
  C  2.64069629 -1.40783329 -0.00665010
  N  3.66060112 -1.54634607  0.49195604
  H  1.95675507  0.38392621 -2.10053874
  H -0.31648375  1.52570648 -1.49241046
  H -2.71096030  1.25458524 -1.14047498
  H -3.66564607  0.28691681 -0.01425942
  H -3.72708883 -0.08153541 -1.73775940
  H -1.65093251  0.03662652  1.87406816
  H -1.52925069  1.53992673  0.95128803
  H -0.09680577  0.85973109  1.72674080
  H  0.30545047 -3.24025976  0.87926142
  H -0.96454729 -2.24170540  1.57389960
  H  0.71557828 -2.03274967  2.11749301
  H  0.38152106 -2.34086014 -2.30741447
  H  2.15834449 -2.40700685 -2.38955368
  H  1.28292900 -3.39736727 -1.21451848
