26
opt_min/./Product_98_opt.xyz
  C  0.95666410  2.72222007  2.09609349
  O  0.53277296  1.79997445  1.09787218
  C  0.85303666  0.52443813  1.28638546
  O  1.53340216  0.10641192  2.18469707
  C  0.25187947 -0.31248313  0.21373924
  C -1.09698456 -0.30176800 -0.10719731
  C -2.18282638  0.44752148  0.56145938
  C -3.42678957  0.68337124 -0.24319238
  O -2.03274865  0.84606268  1.69043926
  N -1.24270909 -1.20518490 -1.13649963
  C -2.34633097 -1.57115137 -1.79184631
  N -3.25249636 -1.92557347 -2.38945119
  N -0.08261307 -1.77363750 -1.45755135
  C  0.84048360 -1.26446713 -0.66898440
  C  2.24979022 -1.73646766 -0.83374400
  C  3.29757862 -0.88948104 -0.17933426
  O  2.48908067 -2.73544739 -1.46163713
  H  1.95776071  3.08903718  1.85988974
  H  0.24113589  3.54146286  2.08396139
  H  0.96958425  2.23792629  3.07392188
  H -4.00674101 -0.23687123 -0.30396437
  H -3.18798870  1.00363972 -1.25480074
  H -4.03139816  1.43990307  0.25300538
  H  4.28307884 -1.29849024 -0.38896984
  H  3.13035038 -0.86877790  0.89598132
  H  3.24057910  0.13405058 -0.54638605
