45
opt_min/./Product_1336_opt.xyz
  C -0.69377100  1.02605900  2.48028900
  C  0.06928291  1.83758183  1.75874250
  C  1.22362241  0.99426251  1.27703241
  O  1.34370191  0.05723668  2.33927432
  C -0.01964463 -0.31902295  2.37806341
  C -0.21643451 -0.86468530  0.92035432
  C  0.78218278  0.01527867  0.12679467
  C  1.98295134 -0.76414401 -0.39198101
  C  3.23394383 -0.66379883  0.21356750
  C  4.31603980 -1.39183529 -0.25247371
  C  4.18124330 -2.25312975 -1.32363481
  C  2.93614570 -2.40318365 -1.90295379
  C  1.85525133 -1.67788696 -1.43313915
  C -0.15951621  0.66226494 -0.93969169
  C  0.52838685  1.83231340 -1.61221876
  C -0.07107350  3.20133458 -1.45814944
  O  1.54871850  1.63599724 -2.22026690
  C -0.66996782 -0.43827177 -1.89476348
  O -0.62315752 -0.49236973 -3.08483704
  O -1.41893000 -1.25337078 -1.12190826
  C -1.52702196 -0.58070792  0.16581880
  C -2.80142677 -0.98725126  0.91079145
  C -3.65445595 -2.03596387  0.26311982
  O -3.06278406 -0.48998994  1.97363178
  N -1.41253524  0.81910808 -0.18428927
  C -2.55783142  1.36732336 -0.90373586
  H -1.61486130  1.23499057  2.98172869
  H -0.05962795  2.88143636  1.55866776
  H  2.14615990  1.53012558  1.08024640
  H -0.21772890 -1.03998119  3.16444910
  H  0.02262096 -1.92737299  0.88471876
  H  3.39092826 -0.04196662  1.07714985
  H  5.27376409 -1.28355278  0.23502228
  H  5.02881663 -2.81260392 -1.68970055
  H  2.79252209 -3.08943306 -2.72374203
  H  0.90198794 -1.85313846 -1.89476292
  H -0.62262480  3.44029173 -2.36731052
  H  0.74314176  3.92114682 -1.37509630
  H -0.73406252  3.27491012 -0.60451725
  H -3.64985397 -2.91872736  0.90300571
  H -3.30298846 -2.30222424 -0.72715513
  H -4.68059160 -1.67319125  0.22172588
  H -2.98978850  2.16631400 -0.29787895
  H -3.32572990  0.61190001 -1.07908433
  H -2.26402003  1.76804047 -1.87275297
