38
opt_min/./Product_808_opt.xyz
  C -3.94228500  0.38996700  0.45058100
  C -2.98325034 -0.65206927  0.97346709
  O -3.29471692 -1.81623352  1.06464696
  C -1.67490648 -0.18339783  1.46347641
  C -0.67660159 -0.95014864  1.92178359
  C  0.42254044 -0.00053199  2.32213238
  C  1.08376654  0.55144211  1.01942719
  C -0.05905918  1.43350772  0.47151850
  C -1.13825470  1.23454480  1.58818460
  O -0.31128419  1.14185395  2.73131091
  C -0.27460941  0.77692388 -0.91724950
  C -1.54518550  1.02524007 -1.70708787
  C -1.80499332  2.48426334 -1.94947209
  O -2.20397826  0.13227419 -2.15711576
  C  1.02576460  1.23194289 -1.64126455
  O  1.18628374  2.12906548 -2.40687472
  O  1.97456537  0.40987445 -1.17656131
  C  1.30295544 -0.40871086 -0.16845799
  C  2.06434657 -1.71668137  0.12806425
  N  3.09220223 -1.93188862 -0.70052556
  C  3.88889900 -3.13850774 -0.60617478
  O  1.75025927 -2.42046517  1.05707663
  O  0.04512254 -0.59247130 -0.71647347
  H -4.30357771  0.05742919 -0.52177677
  H -3.50058614  1.37517053  0.35558594
  H -4.79753506  0.43523974  1.12581129
  H -0.60525900 -2.01778254  1.95639679
  H  1.11590019 -0.33761352  3.08432448
  H  1.99888318  1.09147965  1.25755786
  H  0.20407209  2.48685427  0.38563799
  H -1.84687178  2.05012630  1.69454575
  H -1.16564620  2.78581483 -2.78165960
  H -2.84230700  2.62761573 -2.24491721
  H -1.56131805  3.10507350 -1.09523781
  H  3.31099018 -1.26175361 -1.42238108
  H  4.02771801 -3.38503621  0.44694329
  H  4.85143945 -2.98010935 -1.08312268
  H  3.37586217 -3.97521535 -1.08563697
