43
opt_min/./Product_4664_opt.xyz
  C -2.79071682  0.10371417 -1.41333334
  C -1.81269137  0.41682584 -0.28335377
  C -2.38578400  1.55514777  0.56171816
  C -0.41083488  0.75243580 -0.84939810
  C -0.19271432  2.22899179 -1.02386849
  O -0.14510493  2.78447577 -2.08515135
  C  0.60925073  0.08192692  0.11766347
  C  1.39719308 -1.00709834 -0.67415607
  N  1.82734287 -2.01032787  0.09124226
  C  2.53837230 -3.14514448 -0.44368355
  O  1.64463911 -0.88081078 -1.85679848
  C  1.71338859  1.07811795  0.51891287
  O  1.99336958  1.42497015  1.64530827
  N  2.36562447  1.53841439 -0.56635987
  C  3.43362939  2.50391127 -0.43916706
  N -0.14713492 -0.58627155  1.16682378
  C -0.03276641 -0.17221765  2.54840379
  C -1.47647725 -0.83517789  0.59863586
  C -2.55395126 -1.22294604  1.60973275
  C -1.30944177 -2.00621641 -0.26053345
  N -1.17948675 -2.95302868 -0.88687867
  H -3.74482237 -0.23636273 -1.01376507
  H -2.40110208 -0.66881702 -2.07319866
  H -2.96612193  1.00162557 -2.00360134
  H -1.72934998  1.81969427  1.38611725
  H -3.35891803  1.27342008  0.95971736
  H -2.53283351  2.43640747 -0.06000628
  H -0.30400744  0.28034558 -1.83509199
  H -0.09651530  2.80586339 -0.08395850
  H  1.51053926 -2.05773102  1.04826676
  H  2.87260566 -2.88459488 -1.44652987
  H  3.39860231 -3.37666649  0.18507293
  H  1.88403753 -4.01803233 -0.50340034
  H  2.18647468  1.14183774 -1.47818143
  H  4.02691263  2.50565974 -1.34884355
  H  4.05988001  2.24177371  0.41536047
  H  3.02768076  3.50424273 -0.26966608
  H -0.61389877 -0.85039902  3.17079112
  H -0.35558185  0.85636568  2.74093205
  H  1.01061067 -0.24986306  2.84818335
  H -2.76844994 -0.41902986  2.30587140
  H -3.46472846 -1.48015592  1.07050116
  H -2.23903656 -2.10351366  2.16875145
