30
opt_min/./Product_630_opt.xyz
 Cl -0.05031500 -0.73843500 -2.37680800
  C -0.41797039 -0.06265409 -0.78592274
  C  0.49929793 -0.47417660  0.39158732
 Br  1.56431337 -2.08546668  0.12766447
  C -0.60943663 -0.78130466  1.46748261
  C -1.17682633 -2.12352105  1.05604449
  C -1.92262291 -1.87396885 -0.01119423
  C -1.83114756 -0.37998799 -0.21974519
  O -1.64887034  0.10861271  1.10119524
  C  1.37036425  0.78628193  0.62946499
  C  1.72237581  1.07493987  2.08282038
  C  2.64725836  0.73038599 -0.28166599
  C  3.91057803  0.15063154  0.28843778
  O  2.60052596  1.18015496 -1.39306886
  N  0.60010999  1.87141890  0.07291118
  C -0.24967753  1.45428740 -0.76143269
  C -1.12541817  2.34532140 -1.55865697
  H -0.31633198 -0.63369453  2.50150283
  H -0.93812608 -3.05366115  1.53120410
  H -2.45295126 -2.54533950 -0.65520573
  H -2.66024865  0.10229065 -0.72702168
  H  2.05104484  0.17248024  2.59424108
  H  0.84813353  1.47693902  2.59075271
  H  2.50903476  1.82343573  2.12509347
  H  3.83293132 -0.17314168  1.31775537
  H  4.69357330  0.90390716  0.19418312
  H  4.20479587 -0.69162164 -0.33690830
  H -0.51252299  3.10499300 -2.03979084
  H -1.67528461  1.79146750 -2.31437013
  H -1.82079615  2.84935505 -0.88926588
