47
opt_min/./Product_5275_opt.xyz
  C  2.16255800  0.52681400 -1.27007000
  C  0.66080259  0.59995100 -1.49667132
  C  0.01929831 -0.77333848 -1.18322002
  N  0.61309946 -1.41342720 -0.03556332
  C  0.26225230 -2.77912270  0.27775480
  C  1.63465891 -0.84135216  0.65968453
  C  2.40570467  0.14357020  0.16505587
  C  3.48329948  0.82473435  0.88515593
  N  3.53557830  0.65106511  2.23680935
  O  4.30385138  1.52461106  0.31183820
  C -1.46717414 -0.34420976 -0.92409369
  C -2.21803708 -1.32312983  0.00216132
  N -2.27096266 -0.89911107  1.27129535
  C -2.88166298 -1.66631798  2.32538317
  O -2.68961702 -2.37500045 -0.38408897
  C -2.09687347 -0.20042529 -2.32540733
  C -2.72381229 -1.41420994 -2.93388891
  O -2.03856279  0.85589948 -2.90581335
  N -1.30287634  0.92067192 -0.22072051
  C -2.40545925  1.86307656 -0.29855602
  N -0.05129066  1.49611453 -0.59803754
  C  0.41390597  2.48195552  0.22172455
  C  1.50725383  3.36274532 -0.32943304
  O -0.14659535  2.72472572  1.27731243
  H  2.56805935 -0.25224956 -1.92420383
  H  2.67491065  1.45176431 -1.51325448
  H  0.43173563  0.87268451 -2.53561935
  H  0.07276651 -1.44207653 -2.04919739
  H -0.30859397 -2.84560770  1.20726321
  H  1.16581421 -3.38392781  0.38709915
  H -0.34046024 -3.20365261 -0.52108173
  H  1.80499889 -1.28373245  1.63155862
  H  4.20698911  1.21804165  2.72879993
  H  2.73178826  0.34337912  2.75325514
  H -1.80666945 -0.02259442  1.48101815
  H -3.28602874 -2.57633989  1.88323515
  H -2.14921610 -1.92366137  3.09197688
  H -3.69110998 -1.10000176  2.78960217
  H -2.93039349 -1.21753275 -3.98415817
  H -3.65777692 -1.62971788 -2.41811608
  H -2.09314883 -2.29105105 -2.82701621
  H -2.29431399  2.57625505  0.51968022
  H -2.43898932  2.40904535 -1.24458309
  H -3.33541525  1.31318473 -0.15999609
  H  2.49983786  3.02466904 -0.04082269
  H  1.44920574  3.43210163 -1.41185743
  H  1.36731245  4.35199149  0.10413536
