44
opt_min/./Product_4869_opt.xyz
  C -0.48589100 -1.17121400 -1.54934400
  C -1.85367503 -1.05738074 -2.13134999
  C -2.63120587 -0.03289497 -1.81123805
  N -2.25274736  0.96063323 -0.90953194
  C -3.28211187  1.91779255 -0.56861074
  C -1.44521777  0.52368970  0.20803658
  C -0.43410282 -0.62340451 -0.11372467
  C -0.90542763 -1.77884238  0.80309985
  N -0.53998818 -1.78192742  2.11245063
  O -1.70155051 -2.59200145  0.38612254
  C  0.94622449  0.03650051  0.26681067
  C  1.93410133 -0.97503824  0.86777400
  O  2.11557282 -1.02805307  2.07858582
  N  2.49128693 -1.80203035 -0.01248778
  C  3.44706795 -2.80985038  0.38022022
  C  1.64441011  0.72453839 -0.92576604
  O  2.16666792  0.07897817 -1.82826039
  N  1.68571680  2.05180099 -0.86391914
  C  2.29193506  2.86349290 -1.88742171
  N  0.59648119  1.05124631  1.24344637
  N -0.61389634  1.62275399  0.73640684
  C -1.20744999  2.43432199  1.77690785
  H -0.16594974 -2.21506940 -1.53551477
  H  0.19840340 -0.62094790 -2.19376541
  H -2.17253300 -1.79710267 -2.84304654
  H -3.59830552  0.10601635 -2.26973838
  H -3.72913046  1.71135025  0.41200229
  H -2.86214831  2.92517752 -0.56475351
  H -4.07114652  1.88775329 -1.31691185
  H -2.12424835  0.17206204  1.02351730
  H -0.86387311 -2.59869413  2.61005693
  H  0.33764889 -1.39232313  2.43195711
  H  2.40738574 -1.55720917 -0.99656354
  H  4.30437974 -2.79162914 -0.28947915
  H  3.76841630 -2.60399537  1.40067994
  H  2.98692564 -3.80023459  0.34725751
  H  1.19290774  2.50455828 -0.10934094
  H  1.54128596  3.48837033 -2.37412899
  H  3.06446141  3.50093934 -1.45577844
  H  2.73979646  2.19969793 -2.62493346
  H  0.41748879  0.59704121  2.14590169
  H -1.72545909  1.83093653  2.53798370
  H -1.90820657  3.14345079  1.34811482
  H -0.40398804  2.98807737  2.26025615
