38
opt_min/./Product_3910_opt.xyz
  C -0.03947400 -1.87176100  1.46968200
  C -0.06527468 -0.34990415  1.39227777
  C -1.43193434  0.25812054  1.03877544
  C -2.61604000 -0.37232979  1.75961693
  C -1.47787805  0.28367991 -0.52183255
  C -2.30177760 -0.84074632 -1.17061554
  C -2.02187263  1.63964278 -0.99042367
  N -0.07084776  0.21306315 -0.94191121
  C  0.78932132  0.19565698  0.22154822
  C  1.23593579  1.63821579  0.53055750
  O  1.85151285  2.16118679 -0.52191646
  C  2.33657338  3.48909898 -0.36947435
  O  1.06361621  2.21267051  1.57030057
  C  2.06926363 -0.60170007  0.02971679
  O  3.07757006 -0.41564404  0.65877598
  O  1.94212773 -1.53840852 -0.91674245
  C  3.07458676 -2.35420215 -1.19295824
  H -0.67577811 -2.21678512  2.28029166
  H -0.37938042 -2.32028895  0.53888945
  H  0.97187320 -2.21749453  1.67512125
  H  0.31186444  0.06391144  2.32996809
  H -1.39473905  1.30336944  1.36282050
  H -3.53906829  0.11354721  1.44996097
  H -2.70262933 -1.43942863  1.57631762
  H -2.49856072 -0.22272060  2.83111280
  H -3.00451419 -1.28891093 -0.47707446
  H -1.65426926 -1.63286776 -1.54510307
  H -2.86995803 -0.45501850 -2.01429582
  H -3.05328470  1.76843266 -0.66914707
  H -1.97320907  1.69857780 -2.07554911
  H -1.42015045  2.44705414 -0.57948964
  H  0.11407637 -0.57927648 -1.53824917
  H  2.71337294  3.78932729 -1.34488810
  H  1.53208751  4.15186400 -0.04431993
  H  3.13401719  3.51232681  0.37535243
  H  3.19856081 -2.38857186 -2.27432603
  H  3.96096477 -1.93104463 -0.71817295
  H  2.89016073 -3.35782233 -0.80549458
