50
opt_min/./Product_2516_opt.xyz
  C -3.13904800  0.29666400  2.25799600
  C -1.70652466  0.26542577  1.83057519
  O -0.78221165  0.17223079  2.59891450
  C -1.47923190  0.29011862  0.31175990
  C -1.93170508  1.60102818 -0.34197833
  C -1.27307339  1.90657158 -1.66651616
  O -2.85673158  2.24770046  0.06574704
  C -0.03636506 -0.09619467  0.04849132
  C  0.52013488 -1.25231905 -0.45634025
  C -0.06209164 -2.59771934 -0.94574098
 Cl -0.21822430 -3.61041590  0.55308584
 Br  1.29032162 -3.51648061 -2.11129784
  C -1.36342019 -2.89184720 -1.81599129
  C -2.83418990 -2.86695985 -1.29474925
  C -3.40479569 -1.48865676 -0.87639451
  C -2.09961022 -0.91698421 -0.38332887
  C  2.03898749 -1.05463520 -0.27205018
  C  2.92440860 -0.97867542 -1.54493738
  C  2.70948001 -2.12386588  0.64225002
  C  3.56728747 -1.55417914  1.72192233
  O  2.56460006 -3.29676502  0.45872488
  N  2.19917499  0.22326001  0.34153389
  C  1.04624386  0.75493737  0.49728683
  C  0.86989957  2.12481584  1.03998337
  O  2.03617221  2.72096090  1.25788180
  C  1.97263533  4.02755272  1.81218836
  O -0.20051922  2.65004794  1.23085854
  H -3.20006384  0.59383720  3.30251908
  H -3.54673495 -0.70924945  2.15819844
  H -3.71260346  0.97834619  1.63798136
  H -0.25953155  1.52419443 -1.72866093
  H -1.87367183  1.44841695 -2.45371721
  H -1.27699986  2.98134412 -1.82903143
  H -1.28225567 -2.30253191 -2.73485726
  H -1.23477258 -3.93753570 -2.10210964
  H -2.88604562 -3.53532812 -0.43264263
  H -3.43369188 -3.31021539 -2.09222094
  H -3.79106663 -0.93995380 -1.73734807
  H -4.19660301 -1.59331672 -0.13878369
  H -1.72247114 -1.71879319  0.25172089
  H -1.56130869 -0.86311107 -1.32669778
  H  3.54179979 -1.86283686 -1.66890668
  H  2.30928670 -0.84138379 -2.42971557
  H  3.56944648 -0.10805357 -1.44290210
  H  2.91083915 -1.24515366  2.53684644
  H  4.25319739 -2.31530703  2.08829823
  H  4.09526170 -0.67315194  1.37323365
  H  1.38956713  4.01763653  2.73538378
  H  3.00006545  4.32296142  2.00722031
  H  1.49729076  4.71251418  1.10588284
