38
opt_min/./Product_644_opt.xyz
  C -0.17810903  1.83766203  1.44447295
  O -0.91276495  0.70945292  1.01661057
  C -0.51908661  0.01323740 -0.11986081
  C -1.57393277 -1.09211882 -0.46568251
  C -2.67545630 -1.35795030  0.56577112
  C -3.71144243 -0.30683681  0.82021818
  O -2.67639421 -2.40455795  1.16190783
  C -1.98966052 -0.64284496 -1.91400762
  C -2.75198778  0.65542342 -1.79707844
  C -1.83717686  1.57505387 -1.51145381
  C -0.52639302  0.82801299 -1.47677506
  O -0.73705343 -0.20832381 -2.41428029
  C -0.67034987 -2.30938041 -0.54212980
  C -1.14349842 -3.57298901 -0.91255721
  N -1.55847739 -4.58643176 -1.25504165
  N  0.54963490 -2.04864016 -0.24936475
  N  0.71728407 -0.76101161  0.03094027
  C  2.01433105 -0.35382734  0.35133789
  C  2.52436201  0.90748485  0.06460209
  C  3.83049410  1.21960911  0.40176454
  C  4.64748137  0.28472536  1.01115793
  C  4.14701014 -0.97948128  1.28201572
  C  2.84411284 -1.29783886  0.95961988
  H  0.81590759  1.56615889  1.80600277
  H -0.09362523  2.58944085  0.65363115
  H -0.75764710  2.25122248  2.27029860
  H -4.37089723 -0.66437672  1.60941406
  H -4.29324769 -0.09981607 -0.07274750
  H -3.22433030  0.61385715  1.13441620
  H -2.41010128 -1.43801964 -2.52309681
  H -3.80806550  0.76098762 -1.94479070
  H -1.96793387  2.61845724 -1.30408795
  H  0.37496119  1.38168065 -1.71305062
  H  1.92797898  1.65938572 -0.42526698
  H  4.21094163  2.20442126  0.17336732
  H  5.66540076  0.53445855  1.26915403
  H  4.77792585 -1.71777949  1.75349510
  H  2.44786680 -2.27897909  1.16607417
