40
opt_min/./Product_1447_opt.xyz
  C  3.77034900  1.42678900  1.53202300
  O  2.56764723  0.92010161  0.96385074
  C  2.67714768 -0.05533085  0.06417485
  O  3.72053926 -0.50334824 -0.32628618
  C  1.31808490 -0.45899122 -0.49694015
  C  0.18726392 -0.80344531  0.51111713
 Br  0.70712123 -0.66885702  2.39993457
  C  0.03924495 -2.34791517  0.24327270
  C -0.64767112 -2.52945937 -1.09356695
  C  0.27358700 -2.20562791 -1.98934450
  C  1.50670897 -1.84964519 -1.18842590
  O  1.37222563 -2.69794728 -0.05747946
  C -1.00375214  0.13796692  0.14565827
  C -1.27633027  1.18147396  1.27723946
  C -0.63067465  2.51370386  1.07548213
  O -1.94526670  0.91896917  2.23939809
  C -2.32175119 -0.62895870 -0.11125712
  C -2.94159608 -1.34991951  1.03673150
  O -2.83011003 -0.56094714 -1.20549504
  N -0.63154140  0.82729120 -1.07042054
  C  0.79047795  0.74105400 -1.32396714
  C  1.13095250  0.71779921 -2.80406661
  H  4.08197685  2.31670931  0.98222820
  H  4.55548821  0.67174639  1.48000999
  H  3.54622811  1.67787047  2.56659239
  H -0.33213463 -2.92722483  1.08349933
  H -1.64741567 -2.88511234 -1.23275830
  H  0.21481995 -2.20873130 -3.05910668
  H  2.47292980 -1.97029635 -1.66743887
  H  0.40991231  2.42623723  1.38990441
  H -0.65928867  2.80524114  0.03123680
  H -1.12184747  3.25028627  1.70522283
  H -3.66086929 -2.07779783  0.66815428
  H -3.47369558 -0.61068628  1.63790788
  H -2.21284690 -1.81707362  1.68930374
  H -1.22817190  0.52041453 -1.83534296
  H  1.24739384  1.64680709 -0.89529389
  H  2.20691866  0.63886421 -2.93674494
  H  0.64895342 -0.11243240 -3.30922899
  H  0.78822355  1.64303683 -3.26096700
