30
opt_min/./Product_219_opt.xyz
  C -0.65648396 -0.44557962 -1.00135916
  C -2.06018305  0.14016285 -0.78493568
  C -3.09161726 -0.81268981 -0.18069940
  C -2.69025215 -1.50350721  1.09122398
  O -4.15419149 -0.96983035 -0.71769565
  C -1.68763471  1.31941515  0.18366494
  C -2.77976523  1.85234862  0.97350805
  N -3.64680674  2.23692726  1.60649185
  O -1.09905883  2.32138809 -0.65729491
  C  0.13041748  1.84754497 -0.95234594
  O  0.90366822  2.35327753 -1.69961420
  C  0.22955361  0.52563584 -0.15921424
  C  1.58418377  0.03176059  0.21925721
  C  2.59158855 -0.00905298 -0.73622220
  C  3.84232208 -0.48756017 -0.38533749
  C  4.08790292 -0.92708057  0.90463247
  C  3.08119386 -0.88604145  1.85282942
  C  1.82658289 -0.40914600  1.51245452
  O -0.62652980  0.83387646  0.94029012
  H -0.56493959 -1.44880805 -0.58232553
  H -0.36062656 -0.46958210 -2.04752388
  H -2.48814464  0.56976220 -1.69595658
  H -2.18703002 -2.43920301  0.84489642
  H -2.01256478 -0.89771070  1.68691250
  H -3.58515298 -1.74561696  1.66100399
  H  2.40267352  0.34530219 -1.73658467
  H  4.62678417 -0.51417928 -1.12616876
  H  5.06640034 -1.29899707  1.17092114
  H  3.26930440 -1.22488626  2.86036633
  H  1.03607946 -0.36266134  2.24496517
