16
opt_min/./Product_3_opt.xyz
  C  2.19333000  0.66987500 -0.41217900
  C  1.03011217 -0.00623327 -0.17844471
  C  0.89895730 -1.46964613  0.04370944
  C  0.05037750  1.04435170 -0.23087197
  C -1.42736343  1.03439921 -0.05962310
  C -2.02196886 -0.26271853  0.43538851
  O -2.10224406  1.99999516 -0.30678716
  N  0.64245180  2.19328195 -0.45458969
  O  1.95617305  1.97516429 -0.57504913
  H  3.20596502  0.32659612 -0.48227484
  H  1.84532828 -1.95517209 -0.17827063
  H  0.63921837 -1.68100027  1.08056383
  H  0.12543589 -1.89174127 -0.59281746
  H -1.48955896 -0.63890294  1.30278726
  H -3.06772571 -0.09380660  0.67953092
  H -1.96638276 -1.00692474 -0.35676378
