50
opt_min/./Product_2515_opt.xyz
  C -2.61224400 -2.20312200 -0.81264900
  C -1.87261511 -1.54254609  0.31197261
  O -1.77200923 -2.07949894  1.38667151
  C -1.31415966 -0.09738711  0.10451402
  C -2.19155651  0.48969328 -1.01339198
  C -1.72953437  0.29452869 -2.43115367
  O -3.25086293  1.00618910 -0.75022111
  C  0.15375277 -0.15567224 -0.20878149
  C  1.00434967  0.74969055 -0.76338421
  C  0.85494669  2.19549454 -1.08582951
 Cl  0.87512452  2.43113401 -2.86854810
 Br  2.47026812  3.12936424 -0.32975584
  C -0.33939805  2.94781532 -0.52523866
  C -0.46897111  2.91840329  1.00538492
  C -1.67980572  2.12739157  1.49448597
  C -1.51937264  0.61113714  1.47731478
  C  2.29641544  0.06877044 -0.89768483
  C  3.52780103  0.54761003 -1.59413276
  O  4.61080832  0.07853255 -0.99011204
  C  5.85270808  0.41201338 -1.59478137
  O  3.53662966  1.20065111 -2.60425592
  N  2.29875722 -1.11501714 -0.41395693
  C  0.97865891 -1.40038841  0.08573673
  C  1.13214044 -1.72296370  1.57467599
  C  0.57448048 -2.59555078 -0.81016235
  C  0.74053666 -3.95816668 -0.22107913
  O  0.22137325 -2.40183238 -1.94474363
  H -2.81957507 -3.23378888 -0.53233778
  H -2.05783049 -2.18158655 -1.74437117
  H -3.56027476 -1.68800578 -0.96012367
  H -0.85942397 -0.34970637 -2.51270336
  H -1.49213723  1.26243297 -2.86955861
  H -2.55360955 -0.11159953 -3.01568495
  H -0.24364971  3.98081366 -0.86369968
  H -1.24836716  2.55560421 -0.97782464
  H  0.43863605  2.51868462  1.46173665
  H -0.57581421  3.94444573  1.35637869
  H -1.86325670  2.39549204  2.53715012
  H -2.56223999  2.42177323  0.92721106
  H -2.41011954  0.18156158  1.93794951
  H -0.67201704  0.34194910  2.11042867
  H  5.80791604  0.24795239 -2.67322261
  H  6.08887028  1.46167657 -1.40603347
  H  6.59701977 -0.23253232 -1.13560094
  H  1.45613746 -0.82230979  2.09359203
  H  0.20378347 -2.07064712  2.01607140
  H  1.91145618 -2.46918835  1.69215044
  H  0.36078642 -4.69958924 -0.91961238
  H  0.21581675 -4.03589978  0.72643805
  H  1.79923198 -4.13586289 -0.04481297
