34
opt_min/./Product_382_opt.xyz
  C  1.73012097 -2.44160807  0.09379186
  O  2.15122209 -1.12616111  0.44522572
  C  1.33722307 -0.18387087  0.85939729
  C  1.76660928  1.05889462  1.28696411
  C  3.11438697  1.59513558  1.47916687
  C  4.24811901  0.66947331  1.12826532
  O  3.28569152  2.72135815  1.89405462
  C  0.56912832  1.79798218  1.60661237
  C  0.53875607  3.12564603  2.09756001
  N  0.44230787  4.19387051  2.49667638
  N -0.52794613  1.13775582  1.39822518
  C -0.17466311 -0.16791533  0.91911898
  C -0.82570008 -1.21094214  1.87792717
  N -2.04416496 -0.81778489  2.25081249
  C -2.87713998 -1.60725565  3.12507513
  O -0.26509247 -2.22057966  2.22601154
  C -0.77909926 -0.39274899 -0.50085977
  O -0.96814329 -1.49758161 -0.95602138
  N -1.04124244  0.75134313 -1.13994635
  C -1.62253867  0.78386208 -2.46200283
  H  0.85744811 -2.44771820 -0.55497901
  H  2.58602631 -2.87565100 -0.42067657
  H  1.50221619 -3.01868785  0.99106581
  H  4.19347040  0.39766568  0.07646721
  H  4.16495945 -0.24630820  1.71051953
  H  5.19629166  1.15679321  1.33806801
  H -2.36112171  0.09506543  1.95824679
  H -3.23531741 -0.99376984  3.95147435
  H -2.27694329 -2.42961092  3.51067863
  H -3.73157494 -2.01414708  2.58067314
  H -0.95794565  1.62646724 -0.64281069
  H -2.60644669  1.25346590 -2.43666580
  H -0.97633226  1.34246103 -3.14034621
  H -1.71727150 -0.24221056 -2.81305197
