40
opt_min/./Product_4672_opt.xyz
  C -2.34777800 -0.52699900  1.75301300
  O -2.67521869 -1.47645512  2.42724069
  C -3.15495521  0.70634173  1.69491419
  C -2.71248882  1.83687720  1.14149093
  C -1.41524814  1.92805456  0.43937253
  O -1.19515389  2.76936593 -0.39712694
  C -0.41933618  0.86882476  0.85927231
  C -1.06074361 -0.51758374  0.96191108
  C -1.12526574 -0.93447091 -0.53908779
  C -2.44066303 -0.51433700 -1.21673022
  C -0.90590865 -2.43171032 -0.71409369
  O -0.04323130 -0.23462789 -1.15762794
  C  0.62096628  0.63344087 -0.24772451
  C  1.07589564  1.96921851 -0.88649458
  C  0.85293869  2.10818915 -2.36360413
  O  1.68101943  2.76180386 -0.21220799
  C  1.90721595 -0.05376151  0.21114759
  C  2.74377196 -0.53734536 -0.78780608
  C  3.91657117 -1.19685298 -0.46955863
  C  4.27168691 -1.38256036  0.85584503
  C  3.43984664 -0.91129443  1.85470633
  C  2.26296417 -0.25338541  1.53768164
  H -4.12443883  0.65677592  2.17074732
  H -3.32808467  2.72521067  1.10093695
  H  0.02092957  1.19553860  1.80292573
  H -0.35813988 -1.20595793  1.44069253
  H -2.45705194  0.55778208 -1.39257254
  H -3.29337730 -0.77922967 -0.59705260
  H -2.53240206 -1.01499588 -2.17623188
  H -0.84295140 -2.66190239 -1.77357678
  H -1.73074484 -2.98430236 -0.27229720
  H  0.02419757 -2.74281108 -0.24449358
  H  0.07568542  1.43485835 -2.70739685
  H  0.60358692  3.14133135 -2.58747063
  H  1.78368211  1.86158591 -2.87214682
  H  2.45477959 -0.41317658 -1.81947422
  H  4.55592934 -1.56407116 -1.25733268
  H  5.19002156 -1.89330850  1.10569411
  H  3.70051222 -1.05389758  2.89346601
  H  1.64412404  0.10330324  2.34747592
