46
opt_min/./Product_1471_opt.xyz
  C -3.39436503  0.40934397  1.58783605
  C -1.92415040  0.23973467  1.31455156
  O -1.09203345  0.42283156  2.14823488
  C -1.56818538 -0.30620098 -0.11643031
  C -2.24509381 -1.71202692 -0.05325625
  C -2.92082391 -2.29159747 -1.26489505
  O -2.28129100 -2.28057678  1.00777787
  C -0.07814585 -0.48372594 -0.16278336
  C  0.92742418  0.32282520  0.25271005
  C  1.11802601  1.80157211  0.47357267
  F  0.53261074  2.24847075  1.63977352
  C  2.56437851  2.06944183  0.51654945
  N  3.65824201  2.36534146  0.37222837
  C  0.66476045  2.75376991 -0.65503912
  C -0.80274489  2.77610522 -1.06523274
  C -1.26399345  1.59752212 -1.92661252
  C -2.15911698  0.57020764 -1.23636929
  N  2.10831259 -0.48448828  0.39044806
  C  2.86443205 -0.52252045  1.55629992
  C  3.74631424 -1.73550885  1.65310699
  O  2.83685866  0.37948011  2.35211229
  N  1.91423068 -1.66326950 -0.34882558
  C  2.45699615 -1.53084561 -1.69951136
  N  0.48580405 -1.76129835 -0.38795221
  C -0.02615720 -2.87307754 -0.85062673
  N -0.37791049 -3.87249731 -1.29794668
  H -4.03085255  0.24598933  0.72461051
  H -3.65631867 -0.31507110  2.35850132
  H -3.56405996  1.40042424  2.00410790
  H -2.91582074 -3.37455702 -1.16085684
  H -3.95970998 -1.95953230 -1.26704796
  H -2.45220417 -2.02723183 -2.20676414
  H  0.91306881  3.75034092 -0.27699209
  H  1.28593946  2.57136873 -1.53618322
  H -0.90079241  3.68014145 -1.67187228
  H -1.44537537  2.89819262 -0.19275044
  H -0.40884642  1.12099463 -2.41031211
  H -1.89099426  2.00300816 -2.72555576
  H -2.52766883 -0.07914668 -2.02964921
  H -3.02129927  1.10971561 -0.84105560
  H  4.22626236 -1.73491834  2.62683559
  H  4.50737267 -1.70090849  0.87698945
  H  3.16012611 -2.64130722  1.52066777
  H  2.29619555 -2.47271655 -2.22042198
  H  3.52393178 -1.34529828 -1.60762423
  H  1.99830266 -0.71149377 -2.26460041
