37
opt_min/./Product_1199_opt.xyz
 Br  1.92914579 -1.29568915  1.05302120
  C  0.19713239 -1.10209813  0.16443115
  C -0.76483088 -0.25106378  1.02159460
  C -1.76393100 -1.34852268  1.51090858
  C -2.63111592 -1.71199056  0.32568630
  C -1.83582641 -2.40907797 -0.47172777
  C -0.50681490 -2.49296106  0.25501163
  O -0.90649323 -2.47565052  1.61345620
  C -1.27998285  0.85102480  0.08692925
  C -2.79185185  1.10410130  0.14053437
  C -3.30090252  1.56046862  1.48413660
  O -3.48563468  1.03834349 -0.83717310
  N -0.87492159  0.45064263 -1.24108693
  C  0.28074350 -0.43480150 -1.23332975
  C  0.06935168 -1.43795841 -2.27260581
  N -0.08293334 -2.22168578 -3.09020170
  C  1.61874050  0.24931565 -1.49657729
  C  2.63470691 -0.42913674 -2.16086332
  C  3.85381434  0.18426245 -2.38194471
  C  4.07159744  1.48045963 -1.94648750
  C  3.06439717  2.15964333 -1.28545233
  C  1.84301705  1.54916485 -1.06280205
  H -0.25784196  0.17726811  1.88812267
  H -2.24885593 -1.14068656  2.45991850
  H -3.66085464 -1.44545406  0.20383817
  H -2.02756025 -2.83613987 -1.43356990
  H  0.13055499 -3.34079113  0.01981218
  H -0.83659851  1.81757305  0.39952179
  H -3.34803330  2.64842185  1.47317035
  H -2.65294065  1.24320575  2.29449897
  H -4.31058728  1.19247760  1.64630943
  H -0.81678076  1.20228274 -1.91179155
  H  2.47604039 -1.44377285 -2.49539225
  H  4.63535459 -0.35473294 -2.89496130
  H  5.02342827  1.95875370 -2.11979832
  H  3.22669816  3.16903725 -0.93848482
  H  1.07016263  2.09639138 -0.54396671
