57
opt_min/./Product_2505_opt.xyz
  C -4.77992285  0.96329983  2.21768579
  N -3.60622462  0.62302692  1.44642454
  C -2.96388510 -0.54705751  1.62643219
  O -3.34817213 -1.41245630  2.38045502
  C -1.72908362 -0.75613054  0.68851257
  C -2.25676014 -0.23281492 -0.66229120
  C -3.46866307 -0.94785364 -1.20321741
  O -1.80212434  0.74769025 -1.19065628
  C -0.56655146  0.09734215  1.11847905
  C  0.69773130  0.23686467  0.67490204
  C  1.69868399 -0.55302721 -0.12817929
  C  1.98391905  0.24953576 -1.40664652
  O  1.12107700  0.76866448 -2.05505469
  O  3.27394982  0.27521206 -1.74150435
  C  3.58270071  0.95712757 -2.95212967
  C  2.90772065 -0.81563776  0.78458099
  O  2.86702303 -0.72363223  1.98305576
  O  3.96336939 -1.26625244  0.11677424
  C  5.10763256 -1.61275509  0.88765912
  C  1.33875851 -1.98958310 -0.58620968
  C  0.05774480 -2.12193584 -1.40705729
  C -1.01456022 -2.88923042 -0.64009126
  C -1.37851617 -2.26049525  0.70283516
  C  1.16081485  1.59329834  1.22999103
  C  2.57305229  2.10924710  1.15752862
  N  0.56952036  1.55011801  2.51321897
  C -0.78558941  1.29936776  2.04075264
  C -1.72967391  1.30398409  3.11951202
  N -2.37272938  1.43200604  4.05757658
  C -0.91915585  2.44055909  0.94756770
  O -1.92864887  3.01139613  0.66143365
  O  0.28688026  2.60640626  0.49067171
  H -4.92523967  0.19277322  2.97211254
  H -5.65492175  1.00773866  1.56696410
  H -4.64029703  1.92618475  2.70650939
  H -3.22356294  1.36425734  0.87499759
  H -3.25051492 -1.30790533 -2.20746301
  H -4.27501822 -0.22228079 -1.30156164
  H -3.79180792 -1.76516516 -0.56829034
  H  4.66719584  1.00601299 -3.00268259
  H  3.18304790  0.40775037 -3.80629210
  H  3.14787719  1.95863644 -2.94654349
  H  5.68799166 -2.30545797  0.28325295
  H  5.69551256 -0.71872199  1.10334812
  H  4.80440079 -2.07643915  1.82821569
  H  2.19684978 -2.33278535 -1.16928246
  H  1.28034689 -2.62450153  0.29962954
  H -0.30471920 -1.13626861 -1.69100683
  H  0.27209432 -2.66172185 -2.33175565
  H -0.64939193 -3.89974546 -0.43844099
  H -1.89911833 -2.98788235 -1.26703913
  H -0.55737174 -2.39037276  1.40917516
  H -2.22914442 -2.80052068  1.12461181
  H  3.20983613  1.54697862  1.83151853
  H  2.56951889  3.15347353  1.46581771
  H  2.94952480  2.05497384  0.14128985
  H  0.67444701  2.38963003  3.07526373
