41
opt_min/./Product_4853_opt.xyz
  C -2.76991395 -1.47266909  0.10202473
  C -2.47172031 -0.03377687 -0.32211263
  C -3.59491775  0.49933364 -1.20299129
  C -1.05370281  0.02566542 -0.96759266
  C -0.97590702  1.11784306 -2.00456683
  O -1.18041967  0.93318264 -3.17172514
  C -0.07908170  0.19416133  0.22748390
  C  0.85651389  1.43115302  0.09652195
  N  1.74936272  1.38037087 -0.90475749
  C  2.71385751  2.43747078 -1.11104619
  O  0.78787700  2.34045059  0.89566870
  C  0.83371685 -1.00557868  0.43725573
  C  1.36628164 -1.72061471 -0.63151971
  C  2.23287584 -2.77752369 -0.41361874
  C  2.58952256 -3.13463955  0.87444348
  C  2.07422485 -2.42286666  1.94336603
  C  1.20844315 -1.36598169  1.72665060
  N -0.94014418  0.38954677  1.38156447
  C -2.23847081  0.83932318  0.94597990
  C -3.25942010  0.67412942  1.96824770
  N -4.09065664  0.61294443  2.74905534
  C -2.28504332  2.26639710  0.60973910
  N -2.30149643  3.38120975  0.36007744
  H -1.89219792 -1.93711120  0.54604442
  H -3.07891728 -2.05593507 -0.76240382
  H -3.57430212 -1.49476303  0.83491833
  H -4.53149286  0.48328075 -0.64681590
  H -3.70581689 -0.12489517 -2.08707018
  H -3.40908972  1.52057056 -1.53009406
  H -0.88570049 -0.92600221 -1.47889871
  H -0.73128263  2.12299796 -1.61588232
  H  1.78906902  0.57659309 -1.50802247
  H  2.26785384  3.38056271 -0.79744133
  H  3.61255404  2.26417414 -0.51343612
  H  2.98178403  2.48802116 -2.16359410
  H  1.11242308 -1.47068798 -1.65317838
  H  2.62825935 -3.32280051 -1.25800193
  H  3.26552696 -3.95940732  1.04218719
  H  2.34735620 -2.68808054  2.95371115
  H  0.81189094 -0.82563775  2.57091227
  H -0.52661304  0.93879388  2.12698362
