33
opt_min/./Product_252_opt.xyz
  C  2.55154125 -2.77109386 -0.49304549
  N  1.48980445 -1.79378229 -0.41066990
  C  1.70212683 -0.61213245  0.18791790
  O  2.77473655 -0.29546613  0.66305184
  C  0.52924742  0.32310218  0.17035778
  C -0.78199204  0.07131599  0.26588731
  C -1.48402375 -1.19682621  0.59077256
  O -0.88142297 -2.17662453  0.98649369
  N -2.81689157 -1.20842906  0.36413410
  C -3.61604940 -2.35342861  0.74112165
  C -1.52122657  1.39853239  0.05007005
  C -2.18514264  1.30808653 -1.25944174
  N -2.63118714  1.21724274 -2.30749598
  C -2.53881041  1.68026984  1.05401907
  N -3.38683718  1.87687658  1.79279223
  O -0.53340907  2.39585309  0.01879384
  C  0.78121122  1.80694315  0.01527541
  C  1.56325443  2.37688195  1.20822648
  C  1.47464231  2.11662926 -1.31205203
  H  2.19875657 -3.64031981 -1.03874650
  H  3.41269341 -2.33704887 -1.00442475
  H  2.86537583 -3.06695042  0.50992995
  H  0.58040452 -2.04049268 -0.76053498
  H -3.32384906 -0.37123791  0.12548530
  H -3.88910570 -2.30843253  1.79875990
  H -3.02365113 -3.25353210  0.57987670
  H -4.51766590 -2.37746805  0.13476035
  H  0.86181658  2.77021052  1.94040540
  H  2.17342358  1.60348737  1.66465807
  H  2.21334662  3.18348082  0.88062991
  H  1.38503731  3.18004238 -1.51624975
  H  2.52381179  1.84233837 -1.24042521
  H  1.01550373  1.56081316 -2.12931508
