60
opt_min/./Product_5942_opt.xyz
  C  0.15242400 -1.73320900  0.47234300
  O  1.05319470 -2.08554308  1.19985897
  C  0.26709284 -0.50578308 -0.44356084
  O  0.61420370 -0.90715195 -1.74340450
  C  1.56670300 -1.94221468 -1.87300432
  C -1.10945014  0.23724325 -0.49979604
  O -1.06319322  1.38317171 -1.30793114
  C -1.10140358  1.24980745 -2.71487488
  C -2.25558335 -0.68538210 -0.83097696
  O -3.18625142 -0.32944773 -1.52533020
  C -2.20504545 -2.03620635 -0.23733450
  C -3.46961525 -2.82428524 -0.32096965
  C -1.09437538 -2.51564732  0.36125657
  C -1.07038564 -3.86538288  1.00678453
  C -1.14353989  0.75248127  0.97324865
  C -2.19987015  1.79170786  1.21068846
  C -2.04629751  3.09616509  0.75932668
  C -3.05200075  4.02495166  0.96234719
  C -4.21750712  3.66397865  1.61587536
  C -4.37571620  2.36556554  2.06708605
  C -3.37286175  1.43514747  1.86435974
  N  0.21531315  1.18909114  1.23055933
  C  1.12977961  0.61719594  0.24069731
  C  1.47909897  1.72687656 -0.76312868
  O  2.02616429  1.28336270 -1.88666345
  C  2.37458895  2.26808947 -2.85144472
  O  1.29946819  2.89309801 -0.51738184
  C  2.41926755  0.18963089  0.92958266
  C  3.59531468 -0.02910736  0.22684896
  C  4.75699988 -0.39453205  0.88742126
  C  4.76370321 -0.53279171  2.26318638
  C  3.60009341 -0.29161595  2.97270061
  C  2.44072007  0.07242630  2.31519236
  H  1.72406665 -2.05244142 -2.94597231
  H  1.19428000 -2.88940394 -1.46602533
  H  2.51196577 -1.69504496 -1.38747117
  H -1.00974553  2.27079966 -3.09087582
  H -0.27868743  0.63925289 -3.09182772
  H -2.04877468  0.82603528 -3.05742203
  H -3.28190559 -3.83929607 -0.66476904
  H -3.93809871 -2.88071474  0.66281347
  H -4.15708185 -2.32543545 -1.00177927
  H -1.75435713 -3.88586966  1.85508268
  H -1.38619587 -4.63639883  0.30460291
  H -0.06560462 -4.08751036  1.35890375
  H -1.33649603 -0.12081258  1.61900926
  H -1.15088229  3.39052560  0.23457259
  H -2.92458613  5.03590029  0.60480714
  H -5.00064193  4.39112577  1.77145366
  H -5.28217613  2.07344340  2.57751625
  H -3.49742363  0.41957408  2.21485786
  H  0.29968014  2.20301091  1.18185276
  H  1.60683718  3.04189081 -2.89498638
  H  3.32997531  2.72757869 -2.58523448
  H  2.45815426  1.75185953 -3.80555260
  H  3.62950251  0.08084278 -0.84749111
  H  5.65811585 -0.56971946  0.31676560
  H  5.67099552 -0.82058847  2.77354147
  H  3.59497369 -0.38655821  4.04892240
  H  1.53806306  0.26074393  2.87389672
