49
opt_min/./Product_1183_opt.xyz
  C  4.11548900 -0.00199400  1.88291800
  N  3.05892693 -0.35176442  0.96097698
  C  1.81262060  0.15258629  1.09316217
  O  1.49147418  0.88866197  2.00132978
  C  0.78193957 -0.29966292  0.04295093
  C -0.15304414 -1.44343554  0.56980264
  C  0.20277088 -2.02152699  1.93491312
  C -0.05951502 -2.50076734 -0.55143577
  C -0.76016122 -1.99077780 -1.81684212
  C  0.19343749 -0.88860130 -2.32437424
  C  1.32013067 -0.89051999 -1.28233971
  C  1.40706750 -2.38564391 -0.95592393
  C -1.47555459 -0.71679336  0.63654043
  C -2.73042954 -1.34328584  1.07861637
  N -3.76165079 -0.46996864  1.16066301
  C -5.07799359 -0.89034794  1.57815037
  O -2.83894237 -2.53388130  1.31935812
  N -1.39760373  0.50585397  0.24660875
  N -0.15850357  0.81139759 -0.12648519
  C  0.16614443  2.08714731 -0.53756165
  C  1.46367902  2.42783145 -0.91986459
  C  1.74247340  3.71285926 -1.34302646
  C  0.74836678  4.67369012 -1.40302120
  C -0.54246978  4.33741558 -1.02723304
  C -0.83521393  3.05939620 -0.59960595
  H  3.65095474  0.41351495  2.77592157
  H  4.78165086  0.75120170  1.45394637
  H  4.69202667 -0.88904390  2.14228229
  H  3.30233222 -0.92680115  0.17317797
  H  0.16824132 -1.24498907  2.69748453
  H -0.52669339 -2.78678695  2.18852451
  H  1.19857330 -2.46025326  1.93596826
  H -0.40761440 -3.47696084 -0.22271692
  H -0.85350729 -2.79942899 -2.54196714
  H -1.76001828 -1.61469768 -1.60938432
  H  0.59812569 -1.14175803 -3.30485234
  H -0.29375439  0.08118740 -2.41214246
  H  2.22803413 -0.41270979 -1.65191999
  H  2.09177796 -2.63682581 -0.14826098
  H  1.65390400 -2.98421456 -1.83172773
  H -3.57933807  0.49803222  0.95326106
  H -5.74943794 -0.03655828  1.57914246
  H -5.45831449 -1.65598586  0.89818536
  H -5.03455431 -1.32421134  2.57971082
  H  2.25757691  1.70050339 -0.87655124
  H  2.75262531  3.96626658 -1.63151560
  H  0.97790658  5.67383146 -1.73681571
  H -1.32704861  5.07858513 -1.06658273
  H -1.83623682  2.79149913 -0.30295721
