43
opt_min/./Product_5039_opt.xyz
  C -1.56538613  1.60225001  0.47118653
  C -2.85037029  1.32826445 -0.24532228
  C -3.02077829  0.28424222 -1.04605758
  N -1.98943410 -0.57976298 -1.41483023
  C -2.35015150 -1.87898404 -1.93900285
  C -0.79559994 -0.54529460 -0.62648277
  C -0.37201655  0.85706977 -0.16101166
  C  0.19282509  1.75527393 -1.26506742
  N -0.32787148  1.53742330 -2.48761913
  O  0.99805469  2.63042288 -1.04447952
  C  0.66017091  0.52980344  0.94663895
  C  2.05959641  0.25212707  0.43584537
  C  2.44796496 -0.97175690 -0.09501317
  C  3.74262847 -1.16899195 -0.54625856
  C  4.66682546 -0.14368925 -0.47854713
  C  4.29320446  1.07759016  0.05911443
  C  3.00521905  1.26876034  0.52056861
  N -0.00577951 -0.55744659  1.64506780
  C  0.68855193 -1.23616168  2.70846197
  C -0.82103023 -1.35208341  0.73507322
  C -0.36042589 -2.71016639  0.50492010
  N  0.00876245 -3.77637670  0.31549097
  C -2.16412063 -1.45329500  1.29348718
  N -3.19610415 -1.55010002  1.77678503
  H -1.35159871  2.67355067  0.47645126
  H -1.67384714  1.29125969  1.51607800
  H -3.67018539  1.99718526 -0.04589412
  H -3.95942609  0.08807894 -1.53944445
  H -2.62424494 -2.59188939 -1.15212343
  H -1.50823297 -2.28988473 -2.49850878
  H -3.19796098 -1.76894732 -2.61160554
  H  0.01067931 -0.97843747 -1.23567984
  H -1.01767649  0.82422813 -2.66293586
  H -0.02609824  2.11867961 -3.25281939
  H  0.73295014  1.37416917  1.64251838
  H  1.75836028 -1.80147551 -0.14997912
  H  4.02161381 -2.13112819 -0.95077261
  H  5.67428405 -0.29645281 -0.83534661
  H  5.01036230  1.88270892  0.12135184
  H  2.72032938  2.22355874  0.93396029
  H -0.04102933 -1.76034333  3.32916294
  H  1.18833302 -0.48410055  3.31660821
  H  1.44232644 -1.95764343  2.36554364
