39
opt_min/./Product_3900_opt.xyz
  C -3.11863500 -0.67590100  0.48622400
  C -1.59476334 -0.56237024  0.57610566
  C -0.99839551 -1.97810764  0.47802409
  C -0.91083351  0.44417696 -0.41294781
  C -0.68961281 -0.19862200 -1.78094842
  C -1.77032106  1.72349676 -0.54250436
  C  0.37380661  0.84485447  0.42594531
  C  0.90547666  2.27574254  0.22613182
  C  1.06030647  2.80040847 -1.18179674
  O  1.25167763  2.93508981  1.16992970
  C  1.62442632 -0.01739555  0.27511404
  C  2.11229849 -0.72845306  1.36914192
  C  3.25397871 -1.50252181  1.26717665
  C  3.94415384 -1.57729979  0.07061646
  C  3.48759570 -0.85159700 -1.01465719
  C  2.34846507 -0.07085667 -0.91277395
  N -0.08688561  0.75404577  1.80710827
  C -1.11306534  0.03427164  1.87436810
  H -3.46141793 -0.55046354 -0.53885091
  H -3.61573294  0.05911121  1.11692719
  H -3.43235823 -1.66172518  0.82373408
  H -1.46778893 -2.53671535 -0.32932585
  H -1.17803525 -2.51302156  1.40974479
  H  0.07337266 -1.95494855  0.30655690
  H -1.51092305 -0.87768654 -2.00226466
  H -0.66258065  0.54239402 -2.57730095
  H  0.22954646 -0.77528326 -1.81693414
  H -2.80560100  1.54899408 -0.27294389
  H -1.75934263  2.10463377 -1.56042698
  H -1.40201528  2.50800068  0.11599033
  H  2.12335148  2.93593233 -1.37718289
  H  0.60133628  3.78721039 -1.23208128
  H  0.62545225  2.16150829 -1.93927033
  H  1.59433631 -0.66918997  2.31338248
  H  3.59808815 -2.05029657  2.13188550
  H  4.83222553 -2.18589087 -0.01398277
  H  4.02345469 -0.88466269 -1.95228229
  H  2.04717190  0.49760743 -1.77738101
  H -1.59111225 -0.16198509  2.82175901
