55
opt_min/./Product_5848_opt.xyz
  C -0.71844125  0.98312316  0.61068991
  O -0.55251537  1.95144658  1.31485996
  C -1.85958383  0.06130165  0.84159213
  O -2.60307463  0.51980204  1.85568634
  C -3.67488533 -0.22072768  2.40209123
  C -2.04046021 -1.06184945  0.08586631
  O -3.12909463 -1.86607732  0.32473098
  C -3.84031548 -2.38603382 -0.78869560
  C -1.00401070 -1.53776985 -0.84506910
  O -1.11150304 -2.60574065 -1.42199767
  C  0.24790863 -0.70976530 -1.02110057
  C  0.71738944 -0.90522866 -2.47031029
  C  0.10077833  0.77534983 -0.65630983
  C -0.64317205  1.60924363 -1.70971843
  C  1.57491666  1.21175547 -0.37699845
  C  2.29545976  1.86393244 -1.59803635
  N  1.94768624  3.13589592 -1.84435514
  C  2.61698504  3.92832035 -2.85079080
  O  3.10885593  1.23706329 -2.24460988
  C  1.77091591  2.20666392  0.67438078
  N  2.15650711  3.01431869  1.39006964
  N  2.27748637 -0.00196130  0.00255789
  C  1.38569886 -1.15007117 -0.01264726
  C  2.13339951 -2.40817661 -0.44721668
  C  0.80123731 -1.36871060  1.37734603
  C  1.02620765 -0.46074432  2.40384478
  C  0.45318816 -0.64382518  3.65138969
  C -0.33965790 -1.74814051  3.89837278
  C -0.53036275 -2.68648481  2.89642784
  C  0.03776028 -2.50127639  1.65045279
  H -3.36371005 -1.23211525  2.66411711
  H -4.52298832 -0.26669376  1.71641393
  H -3.96157046  0.32617878  3.29851640
  H -4.69642424 -2.90216037 -0.35999271
  H -4.18921095 -1.57611983 -1.43733743
  H -3.23864483 -3.08672449 -1.36654284
  H  0.77212558 -1.96636142 -2.69259798
  H -0.00029346 -0.46808931 -3.16011162
  H  1.69122182 -0.45867591 -2.64453946
  H -0.89273177  2.58924832 -1.30755158
  H -1.57031936  1.10584321 -1.97388092
  H -0.04822998  1.74111769 -2.60851775
  H  1.37970981  3.62644789 -1.17029172
  H  1.91791020  4.65053893 -3.26683296
  H  3.47531200  4.45432401 -2.42782779
  H  2.96924618  3.26088507 -3.63483941
  H  3.09325873 -0.12659299 -0.58921460
  H  2.80529942 -2.19322731 -1.27438062
  H  2.71913300 -2.78751751  0.38555013
  H  1.43265207 -3.17760881 -0.75846275
  H  1.65902149  0.39454459  2.23579729
  H  0.62989146  0.08666742  4.42582138
  H -0.79543377 -1.88920098  4.86751738
  H -1.12564643 -3.56830251  3.08356195
  H -0.11965593 -3.24980928  0.89111181
