37
opt_min/./Product_834_opt.xyz
  C -0.41859200  3.98864300 -1.24679300
  O -0.21531206  2.87448898 -0.38748853
  C -0.09462635  1.66710660 -0.95925132
  O -0.15086676  1.48609218 -2.14307741
  C  0.07820651  0.62821238  0.13011156
  C  0.18459456 -0.86775329 -0.25423782
 Br  0.61243412 -1.26400135 -2.11320317
  C -1.14235375 -1.47245779  0.22204506
  C -2.30140609 -0.84638411 -0.56208419
  C -2.42268670  0.56548494  0.04674205
  C -1.21391302  0.62989831  0.99489416
  C -1.26583888 -0.78186216  1.58382469
  C  1.32332073 -1.33401645  0.63777314
  C  1.68056200 -2.76025665  0.93290557
  C  1.82986838 -3.71062878 -0.21477696
  O  1.83923284 -3.08967233  2.08144995
  N  1.90354819 -0.41438701  1.27980451
  C  1.39108977  0.88210341  0.93918618
  C  2.49833447  1.60971775  0.16802172
  H -1.18001452  4.61604039 -0.78687150
  H  0.51523423  4.54566596 -1.34128324
  H -0.74215909  3.64745834 -2.23221689
  H -1.13994038 -2.56208130  0.21934132
  H -3.21287327 -1.42556034 -0.41597510
  H -2.09190021 -0.81248584 -1.63125692
  H -3.34512936  0.67154154  0.61913290
  H -2.41921214  1.34472238 -0.71341471
  H -1.24583773  1.45765043  1.70076292
  H -2.21746863 -0.98805153  2.07020544
  H -0.45721290 -1.01440797  2.27423334
  H  2.76828170 -3.49217602 -0.72199845
  H  1.86974102 -4.72774295  0.16886337
  H  1.03115898 -3.61343780 -0.94188267
  H  1.18551699  1.42665112  1.86566734
  H  3.32125507  1.81786580  0.84621961
  H  2.14632955  2.54693156 -0.24943173
  H  2.86787401  0.97917505 -0.63899486
