39
opt_min/./Product_765_opt.xyz
  C  0.37029328 -4.06442107 -2.87049090
  O  0.67775313 -2.89575773 -2.11787665
  C  0.42990282 -1.71396696 -2.69360243
  O -0.05384385 -1.56257089 -3.78615428
  C  0.77460758 -0.61456765 -1.77738100
  C  0.62231514  0.71041509 -1.96504540
  C  0.22605312  1.44523793 -3.08566501
  N -0.03774943  2.11074680 -3.98201693
  C  0.97680710  1.33207926 -0.61814370
  C -0.28896488  0.96051261  0.23301567
  C  0.05634639 -0.49774448  0.57384877
  C  1.27238755 -0.74800198 -0.34959715
  O  1.98734365  0.46316465 -0.16371707
  C  0.53763103 -0.41421745  2.04823592
  C  0.18961435 -1.60018864  2.79259795
  N -0.08330574 -2.54987765  3.36720046
  N  0.01771143  0.81567737  2.62587746
  C -0.53572487  1.67026143  1.58310090
  C -2.07591362  1.73455504  1.78367538
  N -2.71890470  2.61134510  0.99243036
  C -4.14911702  2.81258755  1.07407402
  O -2.63373983  1.00631777  2.57810689
  C  0.07774306  3.07018634  1.68970064
  H  0.00367833 -4.80701424 -2.16374513
  H  1.27511215 -4.42473381 -3.36170078
  H -0.38864894 -3.83613701 -3.62135045
  H  1.30177450  2.36627721 -0.60786916
  H -1.17241494  1.05900188 -0.40567722
  H -0.77077696 -1.19563678  0.45420494
  H  1.87143334 -1.62507504 -0.12606113
  H  1.63995345 -0.32964464  2.04410186
  H -0.71479514  0.63539319  3.31279173
  H -2.19561407  3.22680057  0.39137847
  H -4.53721651  3.07239698  0.09108736
  H -4.39429283  3.60585130  1.78476219
  H -4.60274744  1.88468775  1.42008491
  H -0.38224576  3.61673860  2.50935270
  H  1.14049524  2.97325135  1.90113738
  H -0.04832255  3.63541469  0.76789214
