51
opt_min/./Product_5377_opt.xyz
  C -2.10594100  0.45475000  0.41228600
  C -1.05653549 -0.05471951 -0.57015648
  C  0.15527135  0.88985508 -0.60341923
  N -0.18580963  2.28399858 -0.61066357
  C  0.85466286  3.21879175 -0.94381599
  C -1.43232287  2.71337677 -0.29647946
  C -2.41211431  1.90158178  0.14935937
  C -3.79177008  2.33516838  0.35230398
  N -4.01795469  3.70198670  0.31159467
  O -4.72470155  1.56154385  0.48104709
  C  0.99387672  0.42523731  0.61207920
  C  2.46828313  0.69154393  0.44072514
  C  3.12943363  1.57039072  1.29037653
  C  4.47900476  1.82666934  1.13204846
  C  5.19309917  1.20140043  0.12388403
  C  4.54840021  0.31416613 -0.72044321
  C  3.19814228  0.06382530 -0.56239620
  N  0.66820815 -0.97623496  0.71068042
  C  1.54387538 -1.91694222  1.34388347
  C -0.41802281 -1.39675448 -0.13775422
  C -1.41235528 -2.20622487  0.72661947
  N -2.24447632 -3.03784853  0.06636937
  C -3.24997894 -3.81259854  0.75360829
  O -1.44466788 -2.08619030  1.93291563
  C  0.06301851 -2.19979170 -1.36421799
  H -1.73408220  0.33472022  1.43315901
  H -3.02861678 -0.12184183  0.33000588
  H -1.50339328 -0.13214316 -1.56519242
  H  0.73457229  0.69603075 -1.51779467
  H  0.41635030  4.16022526 -1.27009720
  H  1.47579185  2.82290310 -1.74942673
  H  1.50388279  3.41272764 -0.08343092
  H -1.61076902  3.76197898 -0.48489674
  H -3.36837187  4.30499358  0.78547895
  H -4.98643550  3.92626570  0.49757902
  H  0.64399765  0.96987916  1.50695389
  H  2.57888044  2.05379100  2.08603105
  H  4.97735497  2.51412748  1.80012158
  H  6.24721915  1.40061687  0.00257971
  H  5.09932427 -0.18468509 -1.50409133
  H  2.70745513 -0.63964172 -1.21822515
  H  0.97064996 -2.57468506  2.00191004
  H  2.10351944 -2.53693692  0.62754711
  H  2.26270508 -1.37067635  1.94957119
  H -2.22226897 -3.09826676 -0.93595413
  H -2.99360550 -4.87521462  0.73914976
  H -3.28434238 -3.46749214  1.78514317
  H -4.22579062 -3.67047434  0.28937127
  H -0.73686721 -2.37174534 -2.07968515
  H  0.47124842 -3.15835808 -1.05442887
  H  0.84138058 -1.64113558 -1.87869477
