53
opt_min/./Product_5846_opt.xyz
  C  0.76005600  0.62493100 -0.60921600
  O  0.34411268  1.63939954 -1.13559564
  C  2.00149970 -0.02089862 -1.04036629
  O  2.68546702  0.37511532 -2.12828919
  C  2.46606075  1.62854060 -2.75070100
  C  2.51467738 -1.11881379 -0.39283211
  O  3.62002898 -1.67740201 -0.95729887
  C  4.69442150 -2.11467570 -0.13731202
  C  1.89141953 -1.70049161  0.78578331
  O  2.45492460 -2.51894358  1.49114001
  C  0.45284658 -1.32094190  1.10226400
  C  0.26393756 -1.51783187  2.61828737
  C -0.05798100  0.02240892  0.53568844
  C -0.25107231  1.14517157  1.55865796
  C -1.38698593 -0.42741096 -0.18673388
  C -2.06762783  0.60117282 -1.02687104
  C -1.88707399  0.62791331 -2.40701795
  C -2.52358814  1.58101043 -3.17981596
  C -3.34602852  2.52224431 -2.58670929
  C -3.51666853  2.51123633 -1.21332371
  C -2.88239728  1.56130279 -0.43421725
  C -2.26218623 -1.07656250  0.91709825
  O -3.21726346 -0.63421243  1.48126856
  O -1.73354671 -2.28036112  1.14368788
  C -0.51390095 -2.32033008  0.35549179
  C -0.07230781 -3.77471118  0.16941382
  C  0.96545650 -4.00435148 -0.88846340
  O -0.57558975 -4.64932442  0.81759906
  N -0.86411047 -1.62891191 -0.86231882
  C -1.81928409 -2.36162958 -1.69982996
  H  3.28448584  1.72690423 -3.46402039
  H  1.50937450  1.66241277 -3.27353146
  H  2.50459928  2.44691061 -2.02911989
  H  5.45928261 -2.44651801 -0.83683125
  H  4.40649411 -2.93516700  0.51992392
  H  5.08000651 -1.28526289  0.46094314
  H -0.48042019 -0.85466629  3.04239412
  H  1.20891980 -1.36923453  3.13367826
  H -0.06196228 -2.53889634  2.81201508
  H -0.39134132  2.08284675  1.02639596
  H -1.13039560  0.97676294  2.17554383
  H  0.62541572  1.22140885  2.19609379
  H -1.21805429 -0.08022136 -2.87135236
  H -2.36992922  1.58716494 -4.24889354
  H -3.84353263  3.26429260 -3.19344919
  H -4.14793499  3.24918263 -0.74082239
  H -3.03876511  1.55814793  0.63089302
  H  0.93120158 -3.23511483 -1.65357060
  H  1.94841395 -3.99591044 -0.42248172
  H  0.81881114 -4.99186528 -1.31887885
  H -2.73384503 -1.78683722 -1.84019307
  H -1.36572426 -2.54952409 -2.67296788
  H -2.08932351 -3.31596147 -1.24517940
