33
opt_min/./Product_349_opt.xyz
  C -1.95171613 -2.64902607 -0.06419593
  C -0.96254559 -1.55288410 -0.01608610
  C  0.36235056 -1.55347757 -0.15745926
  F  1.16517472 -2.57954988 -0.46323377
  C  0.86512407 -0.14154883  0.18423641
  C  2.26249108  0.26917096 -0.16428558
  C  2.49857771  1.54433986 -0.65947571
  C  3.78812577  1.93268907 -0.97401263
  C  4.84431165  1.05576195 -0.78805484
  C  4.60915811 -0.20786301 -0.27392617
  C  3.32206633 -0.60458614  0.04268553
  N -0.22511989  0.68824439 -0.31852170
  C -1.28716116 -0.09334385  0.33223310
  C -2.73433219  0.34364944  0.14777541
  N -2.86023460  1.49345726 -0.54044957
  C -4.16350796  2.08280779 -0.76778699
  O -3.66044542 -0.30276857  0.57562226
  C -0.70099078  0.01579501  1.77846379
  O -1.27069262  0.08623674  2.81751629
  O  0.62499695 -0.01989673  1.61558146
  H -2.32822249 -2.84201820  0.93907232
  H -1.49046965 -3.55155948 -0.45717400
  H -2.80555439 -2.36512403 -0.67500668
  H  1.67160133  2.22519553 -0.78917610
  H  3.97002942  2.92339949 -1.36067249
  H  5.84839548  1.36236578 -1.03665053
  H  5.43088125 -0.88933712 -0.11496187
  H  3.14940627 -1.58397044  0.45949200
  H -0.28132349  0.63391789 -1.33433535
  H -2.04552896  1.97753160 -0.87681403
  H -4.65607018  1.60940525 -1.62062997
  H -4.77932089  1.91167630  0.11516492
  H -4.06368644  3.14767981 -0.95028280
