38
opt_min/./Product_5054_opt.xyz
  O  2.21644568 -2.84559050 -1.02188426
  C  1.08519573 -2.53578357 -0.77325306
  O  0.44783574 -3.37849933  0.06489242
  C  0.38801892 -1.32423856 -1.32350772
  C -1.14123442 -1.41437437 -1.24747562
  C -1.71876000 -2.42378801 -0.27784287
  O -2.89399900 -2.49697378 -0.05685508
  O -0.92554680 -3.30959598  0.34172173
  C -1.60131884  0.02467429 -0.77865174
  C -1.94583597  0.02571205  0.72953030
  O -2.94792590  0.83247948  0.98989346
  C -3.34959789  0.93639913  2.35416890
  O -1.32370926 -0.61376130  1.53558444
  C -2.75195215  0.47701378 -1.52968161
  N -3.65704110  0.80065554 -2.14580937
  N -0.42928048  0.87223184 -0.93236622
  C -0.34443084  1.45765008 -2.26722941
  C  0.69249274  0.02019778 -0.55858804
  C  2.01497008  0.71899383 -0.76609009
  C  2.08107688  2.07495368 -0.45255063
  C  3.26980642  2.76954815 -0.57199232
  C  4.41640329  2.11814531 -0.99529675
  C  4.36108721  0.76760730 -1.28802052
  C  3.17034063  0.06745920 -1.17131118
  H  0.73827454 -1.19442656 -2.35296410
  H -1.59384921 -1.63432835 -2.22001828
  H -4.32743342  1.40994258  2.34320941
  H -2.63361171  1.54644718  2.90744819
  H -3.40245106 -0.05608550  2.80429924
  H  0.69274000  1.66861365 -2.51312213
  H -0.76311202  0.80974248 -3.04464315
  H -0.90061642  2.39535193 -2.26813711
  H  0.60698974 -0.20095181  0.51379713
  H  1.19329995  2.58268566 -0.10654060
  H  3.29870687  3.82166349 -0.33078439
  H  5.34527263  2.65940963 -1.09243188
  H  5.25003111  0.24400672 -1.60555241
  H  3.15934768 -0.98218010 -1.41191676
