49
opt_min/./Product_2124_opt.xyz
  C  3.09785642 -3.16382142  1.41524041
  C  3.09974725 -1.74313547  0.95628529
  O  3.60423444 -0.83156678  1.55400444
  C  2.35968163 -1.45515332 -0.36252374
 Cl  2.54763925 -2.80224312 -1.53130259
  C  0.88001170 -1.24267861 -0.06629516
  C  0.10470637 -0.15178155 -0.25165736
  C  0.24116965  1.22547782 -0.94897144
  C -0.89733347  2.06298700 -0.57203116
  N -1.74387902  2.79742185 -0.35250827
  C  0.02986577  0.94271026 -2.36348885
  N -0.14362300  0.71032062 -3.46929226
  C  1.45922763  2.24412132 -0.79517675
  C  2.76747265  2.10886551 -1.63589891
  C  3.69376709  0.90489671 -1.29482622
  C  2.60479697 -0.07543851 -0.93897704
  C -1.27845293 -0.54433614  0.26871616
  C -1.59231318  0.26559273  1.55433780
  N -2.73151979 -0.10714589  2.14976733
  C -3.16502924  0.47047469  3.40028129
  O -0.81059993  1.08132314  1.99447429
  C -2.33135181 -0.51858951 -0.82558928
  C -2.17862737 -1.41126670 -1.88186425
  C -3.08747806 -1.43296826 -2.92174134
  C -4.16073937 -0.55828261 -2.91854898
  C -4.32009818  0.32849543 -1.86856305
  C -3.41467322  0.34954713 -0.82141470
  O -1.10924769 -1.90219274  0.71099256
  O  0.24287596 -2.28972112  0.50858984
  H  3.45023492 -3.22028737  2.44153351
  H  3.75863887 -3.74787660  0.77661202
  H  2.09544854 -3.57779711  1.32857879
  H  1.03889950  3.20976752 -1.09769013
  H  1.69227341  2.32738092  0.26952591
  H  3.31246300  3.04477678 -1.50422454
  H  2.47999858  2.03807219 -2.68744593
  H  4.30228898  0.63748265 -2.15669780
  H  4.33925290  1.12315971 -0.44581991
  H  1.96388978 -0.07660445 -1.82325177
  H  2.18069874  0.46555671 -0.10154039
  H -3.28572984 -0.84029914  1.73703524
  H -3.91187699  1.24883089  3.22694519
  H -2.29930608  0.92121968  3.88312969
  H -3.58746361 -0.30078767  4.04111289
  H -1.34256581 -2.09552181 -1.88906915
  H -2.95062063 -2.12684580 -3.73637457
  H -4.86871824 -0.56655697 -3.73296865
  H -5.15234640  1.01580784 -1.86053011
  H -3.54447571  1.06188752 -0.02175939
