37
opt_min/./Product_385_opt.xyz
  C  0.86687202 -0.99635404 -2.03337097
  C  0.32185782 -0.58989271 -0.66216203
  C  1.15974896  0.47014955  0.13559398
  C  2.34920990  0.92681379 -0.53051720
  N  3.30521721  1.29598489 -1.04020414
  C  1.54849107 -0.29277909  1.43270820
  C  0.31629901 -0.41185052  2.33344088
  C -0.57660650 -1.40764738  1.56132704
  C  0.26761901 -1.77057662  0.33104790
  C  1.68570824 -1.72020225  0.90290417
  C  0.14608975  1.60522547  0.28226062
  C  0.34239048  2.90870262  0.95154398
  C  1.70166094  3.14398714  1.55831309
  O -0.54780011  3.72249722  1.00562142
  N -0.98048112  1.31494986 -0.25517895
  N -0.96304797  0.10997144 -0.81125636
  C -2.09224505 -0.47573806 -1.35098461
  O -3.12018794  0.37215772 -1.33312636
  C -4.33592674 -0.12852691 -1.87113201
  O -2.11453592 -1.60865679 -1.75648059
  H  1.66062537 -0.32972382 -2.36437282
  H  1.25630943 -2.01029772 -2.00519676
  H  0.07303993 -0.97069811 -2.77452017
  H  2.43094070  0.11760787  1.92248204
  H  0.61311833 -0.81898025  3.30042714
  H -0.17854435  0.54227477  2.50772892
  H -1.53748690 -0.97223017  1.29232706
  H -0.77751333 -2.30027105  2.15089522
  H -0.03741209 -2.69907226 -0.14622788
  H  1.84253203 -2.44534493  1.69810734
  H  2.46283640 -1.82284691  0.14840386
  H  1.91832488  2.39507707  2.31623210
  H  2.47042237  3.08427456  0.79107614
  H  1.71835218  4.13112765  2.01264617
  H -5.10086901  0.59241345 -1.59352596
  H -4.26764863 -0.20963222 -2.95772201
  H -4.56323166 -1.11300217 -1.45865598
