53
opt_min/./Product_1848_opt.xyz
  C  0.85008314 -1.48759698  0.32751783
  C  0.48066409 -0.50316760 -0.78048658
  C -0.90450663  0.24007238 -0.73969660
  C -2.03992889 -0.18532327  0.16568446
  C -2.21098181 -1.47103705  0.66566251
  C -3.29484232 -1.78888224  1.46613264
  C -4.24959095 -0.83793354  1.77224585
  C -4.12290335  0.43202837  1.23758697
  C -3.03874419  0.74913892  0.44146653
  C -1.36246790  0.14151663 -2.22486251
  C -1.87547001 -1.27800997 -2.49129614
  C -0.58656976 -2.11954503 -2.42566766
  C  0.51242966 -1.07085448 -2.21710586
  C -0.05014079  0.11227446 -3.00768242
  C -0.48146518  1.70269979 -0.35231165
  C -0.60329017  1.94577284  1.16684485
  O -0.90021345  3.20832983  1.41955541
  C -0.93328783  3.61190686  2.78386252
  O -0.36257119  1.10709211  1.99195334
  C -1.15593136  2.73825535 -1.09485570
  N -1.68460289  3.54135772 -1.71316810
  N  0.95714008  1.80910057 -0.50060956
  C  1.45883221  0.66139686 -0.68179029
  C  2.91963810  0.50536886 -0.69081505
  C  3.64463593  0.09829249 -1.80449522
  C  5.01958569 -0.03494888 -1.72358820
  C  5.68268392  0.23329897 -0.53888143
  C  4.96881973  0.66292150  0.56763161
  C  3.59562060  0.80280393  0.49108957
  H  0.54396466 -2.50298945  0.09240058
  H  0.40024477 -1.17694444  1.26741921
  H  1.93226695 -1.49557408  0.45734122
  H -1.50653621 -2.24827212  0.43197712
  H -3.39118243 -2.79434678  1.85058757
  H -5.08837282 -1.08426376  2.40557965
  H -4.87444573  1.18238627  1.43558249
  H -2.98415526  1.74279850  0.01884903
  H -2.07619583  0.91657020 -2.49995066
  H -2.62827867 -1.59513089 -1.77338153
  H -2.32368830 -1.32241154 -3.48441599
  H -0.41267586 -2.64797625 -3.36398670
  H -0.61686461 -2.86651506 -1.63523729
  H  1.49819950 -1.43216906 -2.50145661
  H -0.20607082 -0.11871634 -4.06051245
  H  0.53713824  1.02515258 -2.92936824
  H -1.69083532  4.38866179  2.86142248
  H -1.18440110  2.76123057  3.41988301
  H  0.04301310  4.00784900  3.06786432
  H  3.14710743 -0.06826524 -2.74738973
  H  5.57472544 -0.35089628 -2.59472720
  H  6.75494130  0.11952246 -0.48050130
  H  5.48139682  0.89320756  1.48962412
  H  3.02887014  1.13501185  1.34759328
