59
opt_min/./Product_2555_opt.xyz
  C -2.19516900 -2.09793200  2.81683500
  O -1.48687315 -1.57831478  1.69671759
  C -1.93714875 -1.86668482  0.48620242
  O -2.80024250 -2.65898520  0.23325773
  C -1.14551670 -1.11405607 -0.61531051
  C -2.14210885 -0.38068174 -1.54772463
  C -1.46772919  0.47326244 -2.59240004
  O -3.32872878 -0.53680813 -1.49852839
  C -0.29893459 -0.04371676  0.11110998
  C  0.91042612  0.12054776  0.72798196
  C  2.34920251 -0.32495687  0.39629991
  C  2.61828520  0.29366471 -1.02647438
  C  3.97779533  0.02530696 -1.60847275
  O  1.79171224  0.93863297 -1.61012698
  C  3.41216142  0.38413369  1.25187935
  C  4.25776920 -0.48189790  2.15164753
  O  3.62143912  1.56301996  1.13125538
  C  2.55189817 -1.87296102  0.28768086
  C  1.25857989 -2.16326335 -0.44382205
  C  0.42776380 -3.23842041 -1.10356742
  C -0.70048309 -2.28822639 -1.59378704
  C  0.68219024  1.30263523  1.70386432
  C  1.48486911  1.49945863  2.97155954
  O -0.65798070  1.16929527  2.03527436
  C -1.15725004  1.10471131  0.70773735
  C -2.69071607  1.12954383  0.78333032
  N -3.28959592  1.88347343 -0.14851417
  C -4.72209311  2.07542233 -0.11951688
  O -3.26953942  0.59002484  1.69831996
  C -0.45966936  2.41523149  0.17980421
  O -0.89051539  3.22463617 -0.58712288
  O  0.68016758  2.48531238  0.84278218
  H -2.62023415 -1.24269971  3.34272341
  H -2.99167621 -2.76170394  2.47956150
  H -1.48445971 -2.62936241  3.44825393
  H -2.07623586  1.35007996 -2.80512351
  H -0.46628447  0.77671295 -2.30056854
  H -1.41633848 -0.09695529 -3.51937856
  H  3.92713169 -0.87699799 -2.21779005
  H  4.24042205  0.85281673 -2.26375461
  H  4.74061395 -0.09831393 -0.84702639
  H  4.88263222 -1.13928943  1.55077691
  H  3.64487125 -1.10120148  2.79998211
  H  4.89674799  0.16027432  2.75332296
  H  2.61387106 -2.36742984  1.25417346
  H  3.45586138 -2.08997406 -0.28012422
  H  0.57129087 -1.89051111  0.34511731
  H  1.27169629 -1.40709482 -1.22849265
  H  0.07856316 -4.01923233 -0.43237178
  H  0.89789689 -3.70174659 -1.97251746
  H -1.62608662 -2.83649531 -1.78137635
  H -0.36036672 -1.85898288 -2.53504747
  H  0.77297305  1.78210971  3.74432741
  H  2.21166460  2.29379626  2.83835140
  H  1.97509756  0.57782647  3.26533991
  H -2.76670998  2.23888452 -0.93277272
  H -4.99218692  2.79456258  0.65618775
  H -5.20546340  1.12349912  0.10313412
  H -5.05442773  2.43757607 -1.08728819
