51
opt_min/./Product_2027_opt.xyz
  C -0.22848700  2.83648600 -2.04585400
  C  0.16225026  1.43873230 -1.69631398
  O  0.48564295  0.61892087 -2.52012946
  C  0.01842322  1.04268935 -0.22552533
  C  0.51926648  2.04201370  0.81451488
  C  0.53346955  1.53960381  2.23321632
  O  0.84379658  3.16991959  0.54520565
  C  0.55944583 -0.35078474  0.01819722
  C -0.08220095 -1.51190728  0.29976657
  C -1.48073451 -2.04511214  0.65399266
  C -1.46013331 -3.56367932  0.47395305
 Cl -1.58357348 -1.74381406  2.45587653
  C -2.83710664 -1.54703746  0.03327871
  C -3.54747895 -0.20099018  0.38759163
  C -2.88469568  1.11521214 -0.11313596
  C -1.45454713  0.63614291 -0.00453485
  N  0.97869872 -2.52247639  0.42667830
  C  1.39995996 -2.65778292 -0.98165115
  O  1.11800224 -3.57918484 -1.67371821
  O  2.12408416 -1.59356130 -1.29508521
  C  2.04358214 -0.74238283 -0.08984057
  C  3.05523840  0.34671793 -0.07679409
  C  3.39806562  0.99100761 -1.25793485
  C  4.29828028  2.04047610 -1.22506398
  C  4.85790438  2.44292351 -0.02440801
  C  4.52700340  1.78729931  1.14952276
  C  3.62574514  0.73861478  1.12754829
  N  2.04955495 -1.72467476  0.96472473
  H -0.24530657  2.94919993 -3.12678066
  H -1.20982761  3.05670539 -1.62847796
  H  0.47202721  3.53874584 -1.60014543
  H -0.31956301  1.97529100  2.75322527
  H  1.43006692  1.91093514  2.72488738
  H  0.49034422  0.45932244  2.31059119
  H -0.62279241 -4.00215265  1.00836941
  H -1.34861094 -3.80340835 -0.58155658
  H -2.37969589 -4.00982224  0.84423706
  H -2.75906362 -1.65299893 -1.05219992
  H -3.55765721 -2.29941924  0.36389539
  H -3.62967647 -0.14970170  1.47355296
  H -4.55762389 -0.28088684 -0.01806690
  H -3.18245999  1.35980536 -1.13227840
  H -3.14378231  1.94643011  0.54178530
  H -1.42859119  0.25228027  1.01282694
  H -1.48839796 -0.16803026 -0.73170402
  H  2.96162880  0.66136922 -2.18746875
  H  4.55932670  2.54760029 -2.14163871
  H  5.55563571  3.26667676 -0.00276937
  H  4.97094690  2.09246286  2.08531488
  H  3.36041161  0.21834441  2.03571924
  H  2.90525299 -2.27984830  1.00107881
