38
opt_min/./Product_4407_opt.xyz
  C -1.48280300  1.19485100 -0.61239000
  O -1.95851836  2.00402441 -1.37587017
  C  0.01488585  1.11278948 -0.35068376
  O  0.77621103  1.72404634 -1.36040207
  C  0.73642824  3.13487269 -1.46284251
  C  0.48310786 -0.37954334 -0.34551895
  O  0.34921064 -0.83130888 -1.63950163
  C  0.49603078 -2.21727118 -1.92064053
  C -0.36755734 -1.16905118  0.67955076
  O  0.14458435 -1.89061890  1.50534916
  C -1.81952395 -0.92018168  0.63970657
  C -2.65961338 -1.94627054  1.33408364
  C -2.32948278  0.18680952  0.06171797
  C -3.79255124  0.48480771  0.01084743
  N  1.82876412 -0.23183259  0.24204172
  C  2.80467133 -1.16981961  0.35035046
  C  4.06311905 -0.72249937  1.06633761
  O  2.70024412 -2.28823329 -0.10553233
  N  1.89986910  1.03725697  0.90040714
  C  0.53201352  1.48576307  1.05140411
  H  1.42094194  3.36609981 -2.27654010
  H  1.09263570  3.61741277 -0.54769604
  H -0.26207529  3.49675140 -1.70980017
  H -0.12811066 -2.82273666 -1.25663135
  H  0.15653472 -2.32112828 -2.94950582
  H  1.53085225 -2.54090267 -1.82198488
  H -3.36732767 -1.47902735  2.01573433
  H -3.21949513 -2.53365345  0.60615404
  H -2.01098901 -2.61679387  1.89400108
  H -4.39857971 -0.39880281  0.17906678
  H -4.04343453  1.23705256  0.75955541
  H -4.02420916  0.91332184 -0.96331587
  H  4.89792331 -1.24030511  0.59889187
  H  4.01135325 -1.04448375  2.10617725
  H  4.22768839  0.34788242  1.00758364
  H  2.38109070  0.95067460  1.79308686
  H -0.04028996  0.90656134  1.79701053
  H  0.48972943  2.54211952  1.30380382
