37
opt_min/./Product_887_opt.xyz
  C -3.10251100  0.55631900 -3.31236600
  O -2.50173756 -0.18226847 -2.25549523
  C -2.72473012  0.30761348 -1.02210100
  O -3.43554399  1.24803038 -0.79512585
  C -2.00426988 -0.47461268 -0.01252241
  C -1.85878713 -0.26507317  1.30182975
  F -2.30141232  0.70784394  2.06901953
  C -0.96669685 -1.36834635  1.83108698
  C  0.49452767 -1.08189345  1.36607726
  C  0.33921570 -1.29309864 -0.15799140
  C -1.15698162 -1.71188398 -0.25489871
  O -1.31565304 -2.42889199  0.95936615
  C  0.78082771  0.09041569 -0.67376402
  C  0.42462926  0.45534729 -2.11142201
  O  0.74456667 -0.53703209 -2.92322133
  C  0.49193678 -0.36336838 -4.31655681
  O -0.06155479  1.50364305 -2.42845674
  N  0.30681789  0.98382381  0.33759766
  C  1.03113524  0.36248743  1.44614548
  C  0.96390479  1.06742613  2.78039967
  C  2.43967860  0.21505580  0.81592147
  O  3.50219031  0.22375551  1.35098690
  O  2.23642267  0.07740838 -0.50753892
  H -4.18143581  0.62506241 -3.15960432
  H -2.88033141  0.01794209 -4.23010667
  H -2.68270336  1.56359656 -3.34289310
  H -1.09347076 -1.63538168  2.87583153
  H  1.16169899 -1.79870801  1.84408525
  H  0.98073020 -2.06980066 -0.57138178
  H -1.41973370 -2.31659499 -1.11628739
  H  1.35128957 -0.76584127 -4.85063035
  H  0.35372510  0.69469062 -4.54529738
  H -0.40812652 -0.92053753 -4.57926664
  H  0.55692378  1.95470416  0.17042803
  H  0.01120629  1.58137286  2.87720264
  H  1.06418368  0.34950105  3.58988887
  H  1.77294124  1.79018964  2.86327109
