84
opt_min/./Product_3181_opt.xyz
  C -3.65256600  1.27618600 -2.70645400
  C -2.66152616  0.37627367 -1.99048014
  O -2.62505029 -0.78735442 -2.31005423
  C -1.69925209  1.01014232 -0.96667763
  C -2.50555294  1.69086784  0.15186893
  C -3.89258354  1.64850190  0.24687493
  C -4.55515508  2.26586681  1.29378899
  C -3.85415888  2.92335013  2.28636535
  C -2.47338361  2.93108992  2.23275305
  C -1.81786825  2.31519861  1.18411573
  C -0.85505380 -0.03945688 -0.25354609
  C  0.40636998 -0.09458865  0.23055752
  C  1.75666440  0.56148722 -0.11909349
  C  2.62940741  0.75303755  1.12556603
  C  4.01484401  0.59521161  1.11008806
  C  4.78394526  0.89203101  2.22115939
  C  4.20130778  1.40911503  3.36509246
  C  2.84662221  1.68395104  3.35485433
  C  2.08016865  1.37099141  2.24460739
  C  2.33035697 -0.44107710 -1.14705535
  C  1.90473192 -0.38720297 -2.47226061
  C  2.39113303 -1.24927485 -3.43739723
  C  3.32076138 -2.21535029 -3.10299739
  C  3.74130807 -2.30330235 -1.79068855
  C  3.25115521 -1.43440393 -0.83085131
  C  1.93042859  1.98742736 -0.75978379
  C  0.99752380  3.13859333 -0.41044890
  C -0.24626970  3.27232781 -1.28421082
  C -0.95035899  2.03940266 -1.84867223
  C  0.39531569 -1.19844017  1.32771253
  C  0.05831497 -0.64627281  2.73167354
  C  1.54667106 -2.22526676  1.32727574
  O  1.58270494 -3.11582965  0.50362627
  N  2.47130219 -2.12919529  2.30350021
  C  3.46543765 -3.16521754  2.48306759
  O -0.73287088 -2.00398739  1.01628545
  C -1.59002275 -1.32017765  0.11435459
  C -2.93773331 -1.09777539  0.84110625
  N -4.04564844 -1.41300254  0.15086342
  C -5.35255420 -1.34149318  0.76000541
  O -2.96367000 -0.65997128  1.97479537
  C -1.64133317 -2.43289095 -0.97733583
  C -0.45693868 -2.52293655 -1.88442937
  O -2.47078363 -3.30450994 -0.90320178
  H -3.36017596  1.32108603 -3.75643228
  H -4.62845782  0.79306888 -2.68557317
  H -3.73076874  2.27898978 -2.30133348
  H -4.48551577  1.11312273 -0.47218907
  H -5.63355402  2.21572523  1.33641748
  H -4.37541698  3.39770018  3.10397587
  H -1.89964027  3.40491743  3.01610489
  H -0.74502698  2.28002177  1.18335341
  H  4.52002323  0.28850358  0.20822925
  H  5.85220914  0.73690784  2.18092868
  H  4.80246633  1.63916599  4.23186376
  H  2.37796123  2.14772894  4.21079408
  H  1.03696516  1.63639222  2.24692461
  H  1.16858083  0.33925043 -2.77807515
  H  2.03247698 -1.16646653 -4.45312403
  H  3.70177143 -2.89391373 -3.85081075
  H  4.45697645 -3.05773639 -1.49999029
  H  3.60732970 -1.55272119  0.17573272
  H  2.91420221  2.30177234 -0.39983249
  H  2.02977456  1.93135109 -1.84262530
  H  0.79456346  3.15075246  0.65712551
  H  1.56768964  4.05495279 -0.60101131
  H -0.97949800  3.90925807 -0.78468193
  H  0.07826896  3.80965605 -2.18207262
  H -0.27530940  1.49757845 -2.50945934
  H -1.70735403  2.48298740 -2.49656665
  H  0.90646673 -0.37491564  3.34974172
  H -0.50603738 -1.43056396  3.23390925
  H -0.61316914  0.20365031  2.63741263
  H  2.42340213 -1.40105965  2.99314848
  H  3.99427973 -3.34022528  1.54506663
  H  2.98981630 -4.10380403  2.77578443
  H  4.17074267 -2.85588546  3.24931453
  H -3.97490261 -1.83294918 -0.76481105
  H -5.61247033 -2.28834189  1.24029900
  H -5.33219144 -0.56226401  1.52134822
  H -6.09991278 -1.11105750  0.00234634
  H -0.65430340 -3.26512109 -2.65252826
  H -0.21726276 -1.56738014 -2.33253454
  H  0.38939605 -2.85805957 -1.28002303
