41
opt_min/./Product_4536_opt.xyz
  C  4.16483108 -0.56009250 -0.04137486
  C  3.52336865  0.71694072 -0.48930446
  C  4.41425570  1.92948863 -0.48929260
  C  2.25300344  0.82340372 -0.86680790
  C  1.25540073 -0.29946229 -0.90329644
  C  0.52748109 -0.53157037  0.44818884
  C  0.64303741 -1.95169590  0.92625429
  C  0.23269342 -3.04269025 -0.02315002
  C  1.13507826 -2.22162106  2.12562566
  C -0.93926605 -0.08533428  0.13662242
  C -1.24148590  1.27743872  0.80401607
  O -2.48287247  1.66249725  0.53935424
  C -2.86953983  2.92752685  1.06487207
  O -0.44632285  1.90651570  1.44235563
  C -2.04178252 -1.01721197  0.67313727
  C -3.14663724 -1.29893120 -0.29589203
  O -2.00274256 -1.43284708  1.79885578
  N -1.04358291  0.13612226 -1.27444389
  C  0.09961075  0.02899627 -1.82008566
  C  0.31842909  0.21652664 -3.20133085
  N  0.55724051  0.34892745 -4.31360918
  H  4.69024759 -0.39302311  0.89767519
  H  4.89864309 -0.88548928 -0.77869934
  H  3.43980536 -1.35282334  0.11443891
  H  5.43908768  1.65631696 -0.25557482
  H  4.06897113  2.65238717  0.24775346
  H  4.39489233  2.41541620 -1.46331942
  H  1.86632294  1.79536408 -1.14473731
  H  1.73741505 -1.21647844 -1.25754950
  H  0.93507050  0.13667436  1.20899018
  H  1.10147763 -3.43528410 -0.55562321
  H -0.21645489 -3.86794155  0.52276115
  H -0.47979026 -2.68710060 -0.76428738
  H  1.23198792 -3.23286092  2.48089743
  H  1.44141051 -1.44224640  2.80113045
  H -2.92133829  2.88108988  2.15463082
  H -2.15600841  3.69974986  0.77570235
  H -3.85214721  3.13955671  0.65021665
  H -3.66712968 -0.36428234 -0.49526000
  H -3.83754082 -2.02053912  0.13266296
  H -2.75076240 -1.65517712 -1.24333330
