63
opt_min/./Product_5915_opt.xyz
  C  4.00513700 -0.53957000 -0.57539500
  C  3.38545403 -0.22916187  0.75931959
  C  4.29707234 -0.18431572  1.95540876
  C  2.08305185 -0.00060911  0.90418491
  C  1.06282269 -0.09803792 -0.19007969
  C  0.38108420 -1.48385405 -0.11218546
  C  0.44851650 -2.27467026 -1.39213967
  C -0.00338514 -1.64006416 -2.67142401
  C  0.93746471 -3.50851365 -1.37676384
  C -1.04781517 -1.19555335  0.45513095
  C -2.22612977 -1.62176622 -0.47406177
  N -2.20234930 -2.94641998 -0.75926334
  C -3.22561824 -3.55056808 -1.58069966
  O -3.10491419 -0.88596676 -0.83183071
  C -1.30915420 -2.09778145  1.67099867
  O -0.50307823 -2.84909478  2.16242678
  O -2.57261818 -2.01008915  2.07644278
  C -2.95593217 -2.84378367  3.15956953
  N -1.12733050  0.23029299  0.73966583
  C -1.15653410  0.63121074  2.13886123
  C -0.11753117  0.89760254 -0.07602328
  C -0.69214195  1.21549608 -1.47291384
  O -1.84550737  1.31192555 -1.76122589
  O  0.31231436  1.53229790 -2.31828315
  C -0.05582497  2.04196186 -3.59109207
  C  0.15563709  2.32610562  0.35535547
  C -0.93580604  3.17906014  0.51112269
  C -0.74873525  4.51289023  0.81952136
  C  0.53114486  5.02618397  0.95440586
  C  1.61967694  4.19329953  0.76542928
  C  1.43524717  2.85603118  0.45677384
  H  5.07803174 -0.68424874 -0.48290675
  H  3.57537663 -1.45100924 -0.99153382
  H  3.82264905  0.26535664 -1.28682986
  H  4.11282165  0.71188805  2.54734212
  H  4.11793983 -1.04467804  2.59849083
  H  5.34082862 -0.18564100  1.65430851
  H  1.69407405  0.18500980  1.89681204
  H  1.56122844  0.03138030 -1.15049903
  H  0.89840400 -2.07654790  0.65120637
  H -0.09132663 -2.39224550 -3.45266625
  H -0.96152345 -1.13904477 -2.55378568
  H  0.72521164 -0.90029315 -3.00256386
  H  1.01958030 -4.12083348 -2.26153860
  H  1.28582006 -3.96707251 -0.46408348
  H -1.43568226 -3.52376027 -0.45497501
  H -3.57377872 -2.81231798 -2.30309066
  H -4.08150580 -3.86145940 -0.97551523
  H -2.81750189 -4.41418296 -2.10098330
  H -3.06704778 -3.87628418  2.82074780
  H -2.20511617 -2.81512155  3.95230767
  H -3.90841281 -2.45935197  3.51578839
  H -0.32513025  1.29193618  2.38924014
  H -2.09085098  1.16211253  2.33829557
  H -1.10257126 -0.21958944  2.81476488
  H  0.58775068  2.89643037 -3.79527577
  H -1.10483001  2.34367927 -3.57913915
  H  0.09106149  1.27305340 -4.35246326
  H -1.93432571  2.78895363  0.38653697
  H -1.60443005  5.15986853  0.94645049
  H  0.67718276  6.06932997  1.19503344
  H  2.62274942  4.58484339  0.85372840
  H  2.29552473  2.22679646  0.29351042
