52
opt_min/./Product_1838_opt.xyz
  C -5.60784900 -2.25155500  0.13760300
  N -4.47281393 -1.37425993  0.28404050
  C -3.46308902 -1.65039618  1.13276982
  O -3.43082996 -2.65841064  1.81725091
  C -2.42304923 -0.59918802  1.27124285
  C -2.10358570  0.56798840  0.67347589
  C -2.49308401  1.18873336 -0.59146483
  O -2.35483924  2.35748834 -0.84947368
  O -3.02980557  0.30464903 -1.46234526
  C -3.40116648  0.80586473 -2.74048271
  C -1.15611034  1.26998786  1.63397980
  C  0.26548691  0.63267844  1.62782684
  C -0.06969242 -0.78707320  2.10576124
  C -1.56549623 -0.60128468  2.52525726
  O -1.59908973  0.76974714  2.88769107
  C  0.35515428 -1.72180873  0.95374202
  C -0.66299917 -2.73398458  0.43466231
  N  0.73474299 -0.83997564 -0.15950612
  C  1.09109873  0.48291415  0.35244416
  C  0.80152793  1.63825502 -0.62190290
  C  0.43514993  1.29356165 -2.04048823
  O  0.92598084  2.77576317 -0.24628854
  C  2.60333830  0.53432432  0.60305447
  C  3.19114655  0.44273283  1.85671922
  C  4.57006105  0.42060901  1.99226908
  C  5.38787713  0.48563162  0.88029471
  C  4.81411115  0.55749884 -0.37806070
  C  3.43890936  0.57298703 -0.51261836
  H -5.84140239 -2.39158768 -0.91711908
  H -6.48405851 -1.84461989  0.64900722
  H -5.35179000 -3.20880529  0.58882629
  H -4.43247310 -0.54463592 -0.28414593
  H -2.56291036  0.70611296 -3.43230566
  H -3.68627314  1.85694395 -2.66517864
  H -4.23769121  0.20285300 -3.08650556
  H -1.16480323  2.35346179  1.57760153
  H  0.80869131  1.21670702  2.36842353
  H  0.48744308 -1.04739176  3.00790195
  H -1.90440627 -1.24736080  3.32850051
  H  1.22399798 -2.30017365  1.31201284
  H -0.15296701 -3.45767788 -0.19888099
  H -1.41320766 -2.23338806 -0.16943028
  H -1.14537245 -3.26248778  1.25021830
  H  1.50961042 -1.23993578 -0.67655145
  H -0.47247063  1.83545501 -2.29396592
  H  1.20987112  1.66591321 -2.70880430
  H  0.29360191  0.22578897 -2.16510302
  H  2.59361701  0.37647247  2.75251312
  H  5.00534527  0.35051472  2.97834814
  H  6.46184734  0.47472758  0.98926785
  H  5.43677806  0.60066411 -1.25941801
  H  3.00855484  0.61667602 -1.50201657
