52
opt_min/./Product_5745_opt.xyz
  C -0.20664200  1.19711800 -0.51450400
  O  0.66148895  2.04110271 -0.58784609
  C -0.01644420 -0.00713677  0.41480052
  O -0.09009599  0.37061913  1.77283483
  C  0.19954423  1.70779007  2.13284545
  C -1.03660428 -1.14601744  0.11128530
  O -1.08680751 -2.16710623  1.08097466
  C -1.78834856 -1.93257919  2.29319104
  C -2.43205388 -0.70141779 -0.29700742
  O -3.41012759 -1.35769989 -0.01898383
  C -2.51479012  0.51443192 -1.12486927
  C -3.82378778  0.76066075 -1.79684500
  C -1.46473581  1.35138728 -1.26561214
  C -1.54952792  2.56299915 -2.13696533
  C -0.37074084 -1.79030224 -1.14716108
  C -0.54396284 -3.31237707 -1.06081455
  O -1.73992048 -3.62777795 -1.55005366
  C -2.14168185 -4.99305619 -1.46283949
  O  0.26930951 -4.08914634 -0.65537972
  O  0.96441861 -1.38009041 -1.19717287
  C  1.34180137 -0.71792672  0.01337922
  C  1.78150834 -1.72566707  1.08238038
  C  2.47976368  0.23346147 -0.28704335
  C  2.83328534  0.52996440 -1.59788315
  C  3.88911476  1.38246271 -1.86432830
  C  4.60722744  1.94951226 -0.82658896
  C  4.27135735  1.64684456  0.48168397
  C  3.22212157  0.78814057  0.75120207
  H  0.33579127  1.68320258  3.21342539
  H -0.64073012  2.36765427  1.88871646
  H  1.10413377  2.08614734  1.65659321
  H -2.86087801 -1.81952502  2.12209942
  H -1.39732240 -1.06303083  2.81892652
  H -1.61108692 -2.83021052  2.88339624
  H -4.48877359 -0.08015704 -1.61782258
  H -3.69097531  0.90374604 -2.86771149
  H -4.28643746  1.66364446 -1.39740191
  H -2.34206303  3.22618491 -1.79173547
  H -0.60264473  3.09588145 -2.11568083
  H -1.77985376  2.27881230 -3.16261673
  H -0.87185567 -1.44676541 -2.06370552
  H -2.68130786 -5.22682174 -2.37851758
  H -2.79729658 -5.11240337 -0.59960596
  H -1.26506067 -5.63312719 -1.35478602
  H  1.20854179 -2.64086100  0.97959293
  H  1.61926916 -1.31790490  2.07579624
  H  2.83484745 -1.95605599  0.94374138
  H  2.27354967  0.08351490 -2.40387094
  H  4.15021532  1.60805712 -2.88774399
  H  5.42839470  2.61954429 -1.03524914
  H  4.83204291  2.07783817  1.29867750
  H  2.97887730  0.54889009  1.77505437
