31
opt_min/./Product_152_opt.xyz
  C -2.67491243  2.69637259 -0.03750095
  C -1.81590853  1.70099309  0.68973488
  O -1.32439500  1.93631575  1.76993860
  C -1.58676564  0.39057430  0.04204902
  C -2.19934059 -0.19624854 -0.98621819
  F -3.19318477  0.27307904 -1.74087258
  C -1.66506268 -1.57564595 -1.27568798
  C -2.71118555 -2.58096596 -1.11162130
  N -3.50100946 -3.38188713 -0.91445021
  N -0.65770404 -1.70851316 -0.26482475
  C  0.25930078 -2.80419842 -0.18958705
  C -0.51019030 -0.52859482  0.56152914
  C  0.86550915  0.09429718  0.42971964
  C  1.22551961  0.76017034 -0.73441565
  C  2.49512862  1.29085142 -0.87518803
  C  3.41978313  1.15557441  0.14646671
  C  3.06920941  0.48941007  1.30795469
  C  1.79890007 -0.04091881  1.44780911
  H -3.65817262  2.71649800  0.43215143
  H -2.24267079  3.68834830  0.07614374
  H -2.79703140  2.46488251 -1.08928321
  H -1.28542060 -1.65230551 -2.31599403
  H -0.04803529 -3.58090598 -0.88686301
  H  0.26267719 -3.23513813  0.81706124
  H  1.28478546 -2.49798040 -0.43650362
  H -0.68867042 -0.76783141  1.62251084
  H  0.50709891  0.86929260 -1.53541897
  H  2.76372083  1.81123373 -1.78269633
  H  4.41067213  1.57061931  0.03678643
  H  3.78642994  0.38171204  2.10810630
  H  1.52347393 -0.55537764  2.35644892
