29
opt_min/./Product_3545_opt.xyz
  C -3.51228600  0.36247100 -0.16514800
  C -2.33449459 -0.46314361  0.31144816
  C -1.04764401  0.28595072  0.76543130
  C -1.05831451  1.80234725  0.64462234
  C -0.02407845 -0.41455040 -0.16631495
  C  1.43522833 -0.43346317  0.14426177
  C  2.28895324 -1.02360088 -0.78090790
  C  3.64932107 -1.07157122 -0.54256722
  C  4.17071495 -0.52738409  0.62049921
  C  3.32214069  0.05951266  1.54320739
  C  1.95879079  0.10600059  1.30993127
  C -0.40796731  0.11983156 -1.57373696
  O  0.12981351  0.91442283 -2.27925251
  O -1.53029526 -0.55006949 -1.88197866
  N -1.84611113 -1.37910249 -0.74654781
  O -0.59196869 -1.73205190 -0.29463908
  H -3.84919285  1.01904915  0.63109167
  H -4.32672397 -0.30209671 -0.43911939
  H -3.25305118  0.95977207 -1.03433532
  H -2.66144860 -1.14438730  1.10399718
  H -0.82693784  0.01790037  1.80098478
  H -1.31563233  2.14004520 -0.35508312
  H -1.77153930  2.22615425  1.34763535
  H -0.06984958  2.19015220  0.88217680
  H  1.88683924 -1.44939850 -1.68757719
  H  4.30549325 -1.53040482 -1.26546262
  H  5.23285667 -0.56162534  0.80514276
  H  3.72314368  0.48293092  2.45194204
  H  1.31784245  0.56663522  2.04621295
