49
opt_min/./Product_5620_opt.xyz
  C -0.48478300 -0.72929000  1.16852200
  O  0.35529496 -0.63534016  2.03801735
  C -0.08570195 -0.58796902 -0.32593945
  O  0.18029980 -1.90466704 -0.71784901
  C  0.76268656 -2.12040806 -1.99331400
  C -1.18293270  0.20236607 -1.10188703
  O -0.86118494  0.07755830 -2.47736978
  C -1.42316906  0.99354717 -3.39756055
  C -2.58910950 -0.28528884 -0.81924232
  O -3.44101568 -0.29961562 -1.68047484
  C -2.86384569 -0.81847435  0.53516187
  C -4.29585493 -1.06832775  0.84872676
  C -1.88696128 -1.02501550  1.44972290
  C -2.19959127 -1.48317411  2.83781566
  C -0.84222457  1.63254091 -0.58163796
  C -1.57283877  1.97425624  0.71714017
  N -0.76084129  2.39298195  1.69670731
  C -1.21859297  2.72443942  3.01980000
  O -2.78117265  1.87414495  0.82649961
  N  0.58942519  1.64085792 -0.43364188
  C  1.04038224  0.44912986 -0.34800587
  C  2.45135120  0.15884635 -0.19635129
  C  2.90393500 -1.05627068  0.31778348
  C  4.26108237 -1.28734824  0.43912290
  C  5.17535331 -0.32429368  0.04595759
  C  4.73175481  0.88818474 -0.46420902
  C  3.37956200  1.13166500 -0.58241484
  H  1.19399423 -3.11748865 -1.94617332
  H  1.54468648 -1.38985827 -2.20762212
  H  0.00383608 -2.07950870 -2.77499719
  H -1.27175869  0.52717869 -4.36941295
  H -2.48769390  1.14809940 -3.22957504
  H -0.89370142  1.95285140 -3.38409015
  H -4.88164287 -1.01749079 -0.06398595
  H -4.65258187 -0.29981098  1.53403796
  H -4.42844228 -2.03632896  1.32764681
  H -2.91423620 -0.80947059  3.30632506
  H -2.64112909 -2.47816043  2.81705539
  H -1.28855131 -1.51053419  3.42868378
  H -1.14104636  2.39504424 -1.30902798
  H  0.22650972  2.43967258  1.48758474
  H -1.01219168  3.77244800  3.24553601
  H -2.29335084  2.55509073  3.04849142
  H -0.72532336  2.09062399  3.75690805
  H  2.19486157 -1.80323013  0.63649699
  H  4.61061424 -2.22624723  0.84221361
  H  6.23404037 -0.51672070  0.13865414
  H  5.44513175  1.63929570 -0.76939825
  H  3.00943995  2.06586193 -0.97589298
