41
opt_min/./Product_4279_opt.xyz
  C  2.04283900 -2.42058800 -0.59347800
  C  1.30655431 -1.09615033 -0.48412944
  C -0.21845845 -1.25304376 -0.39684976
  C -0.89951439 -1.55525186 -1.72986701
  C -0.65779080  0.05914402  0.29297212
  C -0.79223757  1.24836864 -0.67658368
  N -1.69159749  2.18812532 -0.32657738
  C -1.83198204  3.40182809 -1.10046212
  O -0.06165893  1.40262512 -1.63680161
  C -1.95177349 -0.21638812  1.03819449
  O -2.07150926 -0.31207993  2.22991358
  O -2.99042937 -0.35464244  0.19610718
  C -4.23726657 -0.68468808  0.79235508
  N  0.42406590  0.29004158  1.22683675
  C  0.38784527  1.41728851  2.13052596
  C  1.67838182 -0.30328487  0.77663589
  C  2.78346932  0.74493935  0.60415338
  C  2.99506150  1.36564868 -0.74373325
  O  3.41414284  1.10250709  1.57353768
  H  1.83741556 -3.04646084  0.27376331
  H  1.72909848 -2.95379955 -1.48780514
  H  3.11873671 -2.25791226 -0.64570269
  H  1.50250099 -0.49143796 -1.37011475
  H -0.43157602 -2.05729291  0.31770901
  H -1.08759457 -2.62164126 -1.82657452
  H -1.85219327 -1.03731578 -1.80563329
  H -0.27959093 -1.23442984 -2.56336548
  H -2.29605814  2.05882613  0.46604412
  H -2.00220709  3.15758280 -2.15017288
  H -0.91649639  3.99400479 -1.03418828
  H -2.67106502  3.97844230 -0.72356955
  H -4.92986269 -0.84779734 -0.02872690
  H -4.13259032 -1.58611127  1.39982952
  H -4.58231354  0.13035712  1.43252116
  H -0.19759912  2.24274415  1.71741516
  H -0.06864830  1.10505489  3.07586232
  H  1.39039496  1.78295606  2.34053358
  H  2.01857529 -0.98354130  1.58000997
  H  2.04302878  1.71114787 -1.14560058
  H  3.68981709  2.19785003 -0.65731298
  H  3.40351844  0.62770959 -1.43225916
