43
opt_min/./Product_4497_opt.xyz
  C  4.76397194  0.82098748  0.51281870
  C  4.33760781 -0.54005573  0.96763463
  C  5.32504578 -1.23662734  1.85660642
  C  3.22964447 -1.17255215  0.56178806
  C  2.16553424 -0.69232022 -0.29402866
  C  1.73737582  0.56197749 -0.44246458
  C  0.59320695  0.97277398 -1.33365487
  C  0.55892025  2.49307054 -1.44675552
  C  0.64055348  0.27927897 -2.71027522
  N -0.41403408 -0.74304970 -2.70874884
  C -0.03156936 -2.01883133 -3.25622819
  O -0.77757548 -0.93464468 -1.31734491
  C -0.75806154  0.36319383 -0.76984272
  C -1.89991264  1.10676974 -1.29246440
  N -2.81171746  1.64472482 -1.72243063
  C -0.82508096  0.34104388  0.73825756
  C -0.53142242 -0.81701452  1.44376061
  C -0.53464570 -0.80605638  2.82667745
  C -0.83499377  0.36033622  3.51060893
  C -1.15234230  1.50909581  2.80987651
  C -1.15252647  1.50431184  1.42538184
  H  4.28118394  1.09687060 -0.41992698
  H  4.52142320  1.57009615  1.26682609
  H  5.84357153  0.83668500  0.36689634
  H  6.10629636 -1.70378638  1.25497585
  H  5.80306315 -0.52407810  2.52561019
  H  4.84551857 -2.01089288  2.45055687
  H  3.09003503 -2.19566373  0.89538728
  H  1.64025089 -1.48249591 -0.81568984
  H  2.17659961  1.36372148  0.12796433
  H  0.46334687  2.94359924 -0.46122503
  H  1.48676279  2.84315075 -1.89587140
  H -0.27138692  2.82492035 -2.06678054
  H  1.63028152 -0.15229616 -2.89602218
  H  0.39923851  0.98328107 -3.51079919
  H -0.88188412 -2.69190842 -3.16518989
  H  0.19498029 -1.86746020 -4.30928851
  H  0.83930280 -2.46451280 -2.75663634
  H -0.31852256 -1.72555058  0.90398080
  H -0.30114972 -1.71012493  3.36939156
  H -0.83614425  0.37262421  4.59066402
  H -1.40270452  2.41729742  3.33928535
  H -1.42373307  2.39639481  0.87975295
