31
opt_min/./Product_3514_opt.xyz
  C -1.63956342  0.77614957  0.77546125
  C -0.63735411 -0.24866680  0.28622962
  C -0.61960801 -1.50167928  1.13590951
  C -0.28102454 -0.31463842 -1.18155627
  C -0.93071467  0.62252860 -2.18001123
  C  0.12223397 -1.63836066 -1.80182252
  N  0.59981657  0.28733257 -0.21945230
  N  2.19986128 -0.10837133  1.35672972
  C  1.87493664  0.15434526  0.15886582
  C  2.77563985  0.51695269 -0.83736112
  C  3.84001653 -0.50493718 -1.10500703
  O  2.72555495  1.59391555 -1.36782234
  O  2.30884647  3.38719597  0.70778996
  C  1.42005592  3.35599595 -0.01025147
  O  0.49933860  3.37487101 -0.69008187
  H -2.65082652  0.39121630  0.65993440
  H -1.55021174  1.70868298  0.22908771
  H -1.46327269  0.98006441  1.82938454
  H  0.28408543 -2.08105513  0.97878656
  H -1.48662722 -2.11964271  0.90861571
  H -0.65006778 -1.22642819  2.18687529
  H -0.40465170  0.57351379 -3.13106313
  H -0.89299163  1.64876855 -1.83170387
  H -1.96780050  0.33609503 -2.34250061
  H -0.76795337 -2.19711999 -2.08428325
  H  0.71065879 -2.24311271 -1.11772363
  H  0.71345828 -1.46149394 -2.69948121
  H  3.19059952 -0.02619688  1.55753545
  H  4.22598775 -0.90675758 -0.17071188
  H  3.39380042 -1.32847108 -1.66212729
  H  4.64456744 -0.06834837 -1.69070820
