47
opt_min/./Product_2249_opt.xyz
  C -2.13492828 -2.21703016 -2.47847860
  O -1.57037134 -1.20913880 -1.64159859
  C -2.19678739 -0.94193851 -0.50737272
  O -3.12839508 -1.55149478 -0.06594485
  C -1.57051311  0.29396317  0.17966405
  C -2.49043641  1.41352186 -0.36156817
  O -2.96984842  1.37208395 -1.46430774
  O -2.71428366  2.36004531  0.53178725
  C -3.58067548  3.42872913  0.15568793
  C -0.19461836  0.52105061 -0.35029565
  C  0.91802102 -0.22181785 -0.29378492
  C  1.46903056 -1.32960307  0.50839692
 Cl  2.65732516 -0.52936549  1.62841901
  C  0.58471159 -2.28330369  1.29662979
  C -0.11051846 -1.75702370  2.55244747
  C -1.48765311 -1.11419581  2.41734360
  C -1.67372586  0.23051614  1.71669494
  C  1.85280290  0.43929084 -1.32667071
  C  3.34549701  0.11586232 -1.28790455
  O  4.04885530  1.19733196 -1.04577117
  C  5.46525638  1.05708988 -0.95020962
  O  3.76827535 -0.99673068 -1.44746554
  O  1.28567822  0.04778270 -2.61817309
  C  0.16827421  0.76516116 -2.74412263
  O -0.57206918  0.78935283 -3.66504670
  C  0.12738844  1.60120059 -1.40502237
  C -0.54745132  2.86507290 -1.40412864
  N -0.99656575  3.91552438 -1.39771788
  O  1.53746226  1.78092223 -1.24166788
  H -2.98521760 -1.79849496 -3.01830608
  H -2.46352900 -3.06756791 -1.87910329
  H -1.35106410 -2.50358009 -3.17468699
  H -4.23779511  3.10919780 -0.65407005
  H -4.15128621  3.69366873  1.04346946
  H -2.97349320  4.27148481 -0.17800034
  H  2.10510792 -1.92529283 -0.15717374
  H -0.13729643 -2.74518705  0.62050532
  H  1.27028622 -3.06709584  1.63125333
  H -0.28687258 -2.63397449  3.18109078
  H  0.57351631 -1.10416040  3.09552031
  H -2.17506342 -1.83612690  1.97617629
  H -1.82609448 -0.94175657  3.44295649
  H -2.70030462  0.51831607  1.95371844
  H -1.01255085  0.98722997  2.14110142
  H  5.72827683  0.01220850 -0.77826290
  H  5.91612396  1.40587729 -1.87973298
  H  5.79004963  1.68073635 -0.11990665
