37
opt_min/./Product_295_opt.xyz
  C -0.48787650  2.46414113  0.85816890
  O  0.33548695  1.39826983  0.44135788
  C -0.11877635  0.07038211  0.44017925
  C -0.95067599 -0.40797935 -0.80277111
  C -1.30952493  0.68773312 -1.79462654
  C -2.14366658 -1.09715571 -0.07768603
  C -2.99475258 -0.01784750  0.55156357
  C -2.30767669  0.39503460  1.60833198
  C -1.03809624 -0.42761680  1.60924857
  O -1.49336565 -1.65551774  1.05866383
  C -0.02590389 -1.49126559 -1.41689154
  C -0.18241991 -1.68444823 -2.83769490
  N -0.30200868 -1.87144172 -3.95925804
  N  1.32624288 -1.07842830 -1.04431348
  C  2.33648990 -2.07541821 -1.35595783
  C  1.17244333 -0.79232498  0.37012895
  C  2.29777985 -0.02738304  1.05631850
  C  3.24196851  0.70884514  0.15537085
  O  2.38924934 -0.04691121  2.25694992
  H -1.47030866  2.45230502  0.38377203
  H -0.60843128  2.46324116  1.94585404
  H  0.05390554  3.36031787  0.55747043
  H -0.44959795  1.34258580 -1.92585462
  H -2.15215448  1.27465937 -1.43543539
  H -1.57558339  0.26280644 -2.76006153
  H -2.65957298 -1.86144742 -0.65348615
  H -3.94261331  0.31412614  0.17654245
  H -2.56074462  1.13691078  2.33884314
  H -0.52393195 -0.57216136  2.55440967
  H -0.27412305 -2.46096941 -0.92451542
  H  2.48492173 -2.77935265 -0.52685805
  H  2.04159391 -2.63425804 -2.24204233
  H  3.28225190 -1.57776607 -1.56710740
  H  0.99437005 -1.73149379  0.93868370
  H  2.71666858  1.05245181 -0.72916958
  H  4.03650576  0.02738493 -0.14498273
  H  3.69068597  1.53824606  0.69720214
