57
opt_min/./Product_2306_opt.xyz
  C -0.09960388  2.79301582 -2.76319820
  O -0.42449864  2.21287445 -1.50081477
  C -0.50812265  0.88874376 -1.43810981
  O -0.42526038  0.18687133 -2.41108840
  C -0.76907226  0.32051765 -0.03218639
  C  0.57730617  0.07765494  0.71848219
  C  1.83560233  0.74668216  0.18572914
  O  2.00054869  1.25322659 -0.88761025
  O  2.80089373  0.65047324  1.11519365
  C  4.07538885  1.19935580  0.80197583
  C  0.29523383  0.61524141  2.14835865
  C  0.40116575  2.14385333  2.12276450
  C -0.81662585  2.53808168  1.26389478
  C -1.52897491  1.19936843  0.98628216
  C -1.21165875  0.47962719  2.30563426
  C  0.82685599 -1.45424829  0.58713921
  C  1.93313958 -1.71031851 -0.53424410
  N  3.19596928 -1.85890026 -0.07589653
  C  4.28354940 -2.14584819 -0.98552305
  O  1.62746652 -1.77248453 -1.69253897
  C  1.30934643 -2.04014521  1.81307335
  N  1.74689251 -2.52132033  2.75721533
  N -0.38197855 -2.04873028  0.08864225
  C -0.69328974 -3.38401403  0.51965313
  C -1.42119776 -1.10073086 -0.23424213
  C -2.75203424 -1.42201948  0.50094579
  C -1.88415038 -1.34629681 -1.69592855
  O -1.64165241 -2.33578239 -2.32259549
  O -2.85366081 -0.46015008 -2.03150397
  C -3.40497678 -0.62463228 -3.33085789
  H -0.88312879  3.50799803 -3.01346132
  H -0.03260532  2.01154420 -3.51997973
  H  0.86087009  3.29534083 -2.65412696
  H  4.25745718  2.05045238  1.45974512
  H  4.82666259  0.43050555  0.97659003
  H  4.09628430  1.51883171 -0.24159672
  H  0.91431190  0.12064070  2.89457857
  H  1.33131188  2.53244711  1.71887515
  H  0.30578519  2.52378874  3.14203197
  H -0.51352282  3.03823800  0.35326439
  H -1.49099671  3.20376317  1.80407119
  H -2.57305001  1.33735125  0.71943008
  H -1.55310700 -0.53668133  2.41109591
  H -1.56872686  1.05301064  3.16228817
  H  3.38072256 -1.89118688  0.91469386
  H  4.05671178 -1.67721717 -1.94278482
  H  4.39324611 -3.22207402 -1.14101924
  H  5.21299429 -1.74169884 -0.58818231
  H -0.93334728 -3.46219004  1.59138605
  H -1.52577051 -3.75456567 -0.07162631
  H  0.16679744 -4.02361639  0.31172164
  H -2.59303433 -1.79530878  1.50754793
  H -3.27412170 -2.20183422 -0.05035676
  H -3.39424349 -0.54947369  0.53041372
  H -4.23203415 -1.33893002 -3.29950726
  H -3.76273521  0.35287357 -3.64737775
  H -2.63747477 -0.99643601 -4.01137385
