77
opt_min/./Product_3192_opt.xyz
  C  1.65418851  4.11722776 -1.07057283
  O  1.46667039  2.71724016 -1.13988467
  C  0.70691329  2.15435261 -0.16082648
 Br  1.60311280  2.53385424  1.66788913
  C  0.57392604  0.65505992 -0.43473601
  C -0.56084213 -0.07314680 -0.61660460
  C -2.10672017  0.13208386 -0.39169001
  C -2.39211264  0.12203613  1.11208791
  C -3.71558456  0.22645860  1.53862965
  C -4.02906561  0.27430339  2.88396562
  C -3.02916467  0.22564007  3.83953133
  C -1.71474319  0.09034960  3.43168527
  C -1.40226900  0.03329681  2.08377702
  C -2.83105890 -1.07843573 -1.00957934
  C -3.17518527 -2.18676063 -0.23992291
  C -3.81297035 -3.27848602 -0.80029941
  C -4.15392363 -3.27910496 -2.14028141
  C -3.87090354 -2.16475793 -2.90657151
  C -3.21687742 -1.08096505 -2.34900533
  C -2.87579473  1.39243526 -1.03209523
  C -3.00641839  2.77907365 -0.33008982
  C -1.71450844  3.63673837 -0.32761147
  C -0.74814259  2.52070872 -0.00356658
  C -0.14639178 -1.50451565 -0.95277407
  C -0.49146992 -2.46804351  0.08976303
  N -0.54969884 -3.26905957  0.90439047
  C -0.60569814 -2.06906029 -2.33154270
  C -0.32921826 -1.20016170 -3.52281755
  O -0.99234449 -3.20607734 -2.42541366
  N  1.30855450 -1.48953386 -0.91839487
  C  2.07614085 -2.45752482 -1.65359834
  C  1.83673943 -0.15865013 -0.67749497
  C  2.53728156  0.30164537 -1.97183905
  O  3.83696422  0.02773784 -1.98705079
  C  4.52517847  0.31298270 -3.19717040
  O  1.94662257  0.73931368 -2.92754597
  C  2.75359040 -0.20088772  0.54093937
  C  3.87719921  0.60388985  0.67522677
  C  4.67248360  0.51841035  1.80424081
  C  4.35101443 -0.36012366  2.82294677
  C  3.22692238 -1.15772177  2.70196357
  C  2.43760709 -1.08213062  1.56887608
  H  1.94639380  4.43242245 -2.07032890
  H  2.45499445  4.35423982 -0.36194890
  H  0.74530076  4.63436373 -0.76154512
  H -4.51773711  0.24898942  0.81694540
  H -5.06362959  0.35283643  3.18535856
  H -3.27334242  0.27899149  4.88948333
  H -0.91922301  0.03184455  4.15854347
  H -0.36798504 -0.11351835  1.81161949
  H -2.95379161 -2.20546002  0.81531663
  H -4.04141315 -4.13018619 -0.17905339
  H -4.64440303 -4.13338544 -2.58087870
  H -4.15148642 -2.13733956 -3.94942976
  H -3.01654826 -0.22969050 -2.98051312
  H -3.90563114  1.04666555 -1.14467002
  H -2.49334208  1.56032718 -2.04271093
  H -3.81495782  3.31750452 -0.82818733
  H -3.31024402  2.61526976  0.70495942
  H -1.53256530  4.06860497 -1.31307138
  H -1.78280618  4.43636871  0.40976937
  H -1.03963946  2.12121382  0.96757983
  H -1.07890688  1.86867036 -0.78426381
  H  0.30962638 -1.75863338 -4.20790750
  H  0.14855007 -0.26080337 -3.26511514
  H -1.25658486 -1.01044971 -4.05638587
  H  3.05016500 -2.56204829 -1.17210185
  H  2.23000586 -2.19643731 -2.71040934
  H  1.56444164 -3.41812561 -1.60568911
  H  5.58181175  0.17305484 -2.98425268
  H  4.20286857 -0.36981000 -3.98629869
  H  4.32414272  1.33762333 -3.51531395
  H  4.13158036  1.32780862 -0.08326444
  H  5.54041724  1.15517127  1.89017966
  H  4.96892882 -0.41808477  3.70632984
  H  2.95599263 -1.84405499  3.49010441
  H  1.58022124 -1.73167353  1.47989592
