55
opt_min/./Product_5702_opt.xyz
  C -1.85195800 -1.70901300  1.52103500
  C -0.78872569 -1.12646879  0.59494579
  C -0.52563685 -2.16821635 -0.52106786
  C  0.54076474 -0.71026429  1.30991027
  C  1.41885254 -1.89314047  1.71121007
  C  0.27024990  0.10047870  2.58846842
  C  1.15167251  0.24413038  0.23010361
  C  1.98672711  1.37332638  0.85089842
  O  2.82240364  1.21388794  1.70375862
  O  1.72385557  2.53174971  0.27302187
  C  2.44574909  3.65063754  0.76327693
  C  2.11225220 -0.38951101 -0.77190793
  C  1.77590605 -0.48772109 -2.11601380
  C  2.65688938 -1.04008046 -3.02823101
  C  3.89799893 -1.49113528 -2.61455207
  C  4.25534631 -1.36692298 -1.28307468
  C  3.37492696 -0.81479324 -0.36959969
  O  0.04210284  0.82120489 -0.44738265
  C -1.18551378  0.22404586 -0.06765647
  C -1.98397624  1.23706724  0.80530251
  N -3.24772332  0.86561638  1.06738057
  C -4.15579052  1.71539765  1.79784426
  O -1.49748450  2.28626764  1.17035891
  C -2.09265250  0.07007207 -1.29778159
  O -3.10481033 -0.61085647 -1.26904694
  N -1.70753058  0.79933904 -2.34928252
  C -2.46327906  0.85667668 -3.57701027
  H -2.72203645 -1.98711835  0.93035853
  H -1.46237977 -2.60977916  1.99258225
  H -2.16664918 -1.02109840  2.29875229
  H -1.21758983 -3.00137942 -0.42745223
  H  0.48047329 -2.56634333 -0.48314910
  H -0.66798410 -1.74360947 -1.51015165
  H  1.89526501 -2.38897282  0.87144080
  H  2.20539343 -1.55407143  2.38034566
  H  0.81542179 -2.62366062  2.24636941
  H -0.44860624 -0.40506696  3.22600206
  H  1.19124117  0.20838676  3.15596325
  H -0.09668007  1.09689227  2.36456030
  H  3.52085094  3.47948033  0.67023330
  H  2.13563657  4.50033214  0.16117022
  H  2.20687707  3.82281380  1.81465613
  H  0.81769823 -0.13053635 -2.45639438
  H  2.37385521 -1.11638277 -4.06815158
  H  4.58588171 -1.92330420 -3.32596540
  H  5.22940683 -1.69746874 -0.95353595
  H  3.68377075 -0.69261313  0.65631042
  H -3.62626277  0.06138370  0.58465348
  H -4.76574965  1.11328154  2.47045711
  H -3.56268011  2.42458497  2.37352769
  H -4.81238192  2.26814610  1.12096652
  H -0.89673089  1.39386268 -2.25274050
  H -1.78679949  0.85050414 -4.43108050
  H -3.11406450 -0.01593079 -3.61357079
  H -3.07940276  1.75845570 -3.61752050
