49
opt_min/./Product_5474_opt.xyz
  C -0.73385500 -1.42225400 -1.00225500
  C  0.04136533 -1.39405160  0.30909552
  C -0.35804463 -0.18144592  1.16140528
  N -1.75961700  0.09814197  1.17014924
  C -2.24541078  0.94784982  2.22417164
  C -2.60591768 -0.54233640  0.32311970
  C -2.20623493 -1.30071216 -0.71589803
  C -3.10677260 -1.96031572 -1.66325665
  N -4.43382649 -2.02601532 -1.33023503
  O -2.71759523 -2.39383693 -2.73488851
  C  0.58441942  0.92986587  0.60714908
  C  0.78017132  2.08481880  1.59566032
  C  1.69038149  1.77559759  2.75113438
  O  0.24379051  3.15319537  1.44787618
  C  0.10934824  1.51835098 -0.72982494
  O  0.85532873  1.63101196 -1.67116370
  O -1.15057856  1.90968880 -0.69971289
  C -1.66733038  2.47998350 -1.89551816
  N  1.83434845  0.21036644  0.43649793
  C  1.56694128 -1.21460224  0.18445736
  C  2.25654600 -2.01480956  1.31667195
  N  3.51783608 -1.61236533  1.55405235
  C  4.36332895 -2.22136416  2.55078520
  O  1.71921097 -2.92183845  1.91848094
  C  2.15366147 -1.68135653 -1.14508101
  H -0.42692329 -0.59954568 -1.65329218
  H -0.55108395 -2.34981412 -1.54533878
  H -0.16045404 -2.31322193  0.86518055
  H -0.03966877 -0.37694450  2.19773936
  H -1.88134751  0.60225965  3.19774324
  H -1.91156776  1.97663329  2.07019746
  H -3.33403456  0.93782385  2.23626743
  H -3.65285721 -0.36262913  0.52897950
  H -4.74733559 -1.91942148 -0.38382464
  H -5.01800143 -2.55899429 -1.95428611
  H  2.04530416  0.75169559  2.71692335
  H  1.15862788  1.97466287  3.68052965
  H  2.54094208  2.45423541  2.71423681
  H -1.09221231  3.36673839 -2.16807287
  H -1.61763652  1.75756719 -2.71354590
  H -2.70113317  2.73928516 -1.68408474
  H  2.35712251  0.63570222 -0.32757806
  H  3.86663152 -0.80391585  1.06417508
  H  4.65764653 -1.49340092  3.30885985
  H  3.78818346 -3.01991514  3.01789030
  H  5.25986610 -2.64170126  2.09188674
  H  3.23639908 -1.56009813 -1.13974648
  H  1.93298360 -2.73506365 -1.30608975
  H  1.74812010 -1.10261725 -1.97067658
