38
opt_min/./Product_1927_opt.xyz
  C  3.22573397  2.37059100  0.44761125
  N  2.67361945  1.04450131  0.26335116
  C  1.45206112  0.87913406 -0.26477383
  O  0.74355504  1.79535775 -0.58718618
  C  0.98062529 -0.62468551 -0.40350756
  C  1.89818903 -1.27159731 -1.45536906
  F  1.73112435 -2.58195062 -1.63206567
  F  3.19152494 -1.14242943 -1.08742781
  F  1.79488004 -0.69671993 -2.65133167
  C -0.55886654 -0.73822073 -0.69504056
  C -0.93269433 -2.08148666 -1.38565502
  F -0.43470749 -3.13729654 -0.74504682
  F -0.55629515 -2.14761474 -2.65732858
  F -2.26333666 -2.28086807 -1.36316784
  C -1.17040353  0.36510781 -1.61948428
  F -2.29451647 -0.09583068 -2.21032254
  F -0.36017461  0.69646977 -2.61670847
  F -1.57961429  1.47395326 -1.01700031
  C -1.20726311 -0.83732448  0.73776017
  C -2.02421958  0.39149086  1.22510297
  N -3.29605936  0.40948001  0.81487182
  C -4.19691605  1.48478899  1.16552737
  O -1.51382490  1.19072072  1.97752437
  N -0.14153377 -1.04270609  1.68687690
  C  1.11796511 -1.27086332  1.01426692
  C  1.44205658 -2.69480940  1.05377152
  N  1.71241603 -3.79334612  1.19960436
  H  4.15581501  2.46818762 -0.11118610
  H  2.49948656  3.09336698  0.08187495
  H  3.41588954  2.55074072  1.50608314
  H  3.30266583  0.28043279  0.45033044
  H -1.88258034 -1.70328053  0.75993263
  H -3.64000095 -0.29364941  0.17851609
  H -3.60328791  2.28797843  1.59725867
  H -4.93130045  1.14428696  1.89734510
  H -4.70894928  1.84468867  0.27512557
  H -0.10326392 -0.23181380  2.30727977
  H  1.92264483 -0.78543705  1.58099608
