37
opt_min/./Product_4384_opt.xyz
  C -0.61410817 -0.14192417 -2.00487902
  C -1.14260118 -0.15098735 -0.57849918
  C -1.56388287 -1.53881797 -0.08265275
  C -2.93234731 -2.00512173 -0.57372110
  C -1.45284174 -1.33130603  1.44933643
  C -1.25909873 -2.60045489  2.13914444
  N -1.12083514 -3.61081728  2.65121565
  C -2.63853068 -0.67850073  2.00123609
  N -3.52691297 -0.10602083  2.43341141
  O -0.31651372 -0.50792812  1.64048512
  C -0.10158400  0.30568395  0.48724453
  C -0.32563172  1.76534651  0.91486882
  O -0.71671807  2.51968835 -0.11956241
  C -0.94722730  3.90543020  0.13328366
  O -0.15058930  2.16761011  2.02776916
  C  1.34008577  0.11480335  0.03847942
  C  1.93460387 -1.13302344  0.18293037
  C  3.23647710 -1.34129671 -0.23628941
  C  3.96222554 -0.30804316 -0.80173123
  C  3.37893973  0.94119101 -0.93745223
  C  2.07695208  1.15098004 -0.51854913
  H  0.15916159 -0.89567274 -2.13680575
  H -1.42310667 -0.34952257 -2.70164458
  H -0.19382765  0.83140519 -2.24205268
  H -2.01485423  0.50816869 -0.51542319
  H -0.80208858 -2.27129369 -0.37066607
  H -2.94580239 -3.08047836 -0.73040329
  H -3.17104421 -1.52117347 -1.51813454
  H -3.71821072 -1.75333064  0.13659837
  H -2.01658720  4.10297003  0.06354033
  H -0.58810207  4.15861818  1.13267913
  H -0.41137523  4.47776558 -0.62234555
  H  1.39429924 -1.94140018  0.65170581
  H  3.68469639 -2.31630622 -0.11647263
  H  4.97800833 -0.47088399 -1.12659064
  H  3.93698664  1.75896749 -1.36679245
  H  1.63607039  2.12975471 -0.63749548
