52
opt_min/./Product_2857_opt.xyz
  C  2.28071000 -2.07102900 -1.23085300
  C  2.05944504 -0.61353437 -0.93052499
  O  2.74121363  0.22884966 -1.44411109
  C  1.00186525 -0.23223216  0.13491422
 Br  1.59146778 -1.17406102  1.72203962
  C -0.46625739 -0.59344983 -0.29777265
  C -1.33656420 -1.63547506  0.43219752
  C -0.81680389 -2.99813332  0.76735985
  O -2.48449266 -1.33964402  0.66513499
  C -0.45997392 -0.93263577 -1.81711712
  C -1.15220885 -2.18873185 -2.27251226
  O  0.15212924 -0.23418728 -2.57911978
  C -1.17808039  0.78259205 -0.10578814
  C -2.33471975  1.14978349 -1.04266882
  O -2.82920778  2.23338062 -1.08635093
  O -2.70698995  0.10647221 -1.78333606
  C -3.77427326  0.30607450 -2.71060321
  C -1.63241210  0.85869636  1.38015640
  O -1.00484314  0.30205086  2.24988492
  O -2.66915460  1.62441325  1.55552385
  C -3.03543450  1.89145808  2.90604755
  O -0.19028739  1.75829921 -0.30408944
  C  0.98012492  1.31638801  0.33646595
  C  0.97533566  1.88929268  1.77392807
  O  1.96358465  1.43323768  2.51640804
  C  2.04110589  1.87788677  3.86571639
  O  0.19101353  2.73604850  2.10415302
  C  2.14006865  2.12190108 -0.33156809
  O  1.96088430  2.89693304 -1.21862207
  O  3.27491310  1.98046338  0.35716271
  C  4.38779893  2.69158560 -0.17405199
  H  1.81054976 -2.74694426 -0.52788749
  H  3.35555687 -2.24459864 -1.23115126
  H  1.92956571 -2.26815869 -2.24327869
  H  0.05730184 -3.29386257  0.20195879
  H -1.62234374 -3.71671218  0.62886977
  H -0.56486514 -3.00199723  1.82781132
  H -2.08466252 -2.36443094 -1.74919703
  H -1.33828753 -2.10520610 -3.34112786
  H -0.48963620 -3.03835254 -2.11304251
  H -3.40697181  0.04688210 -3.70239628
  H -4.09324358  1.34860012 -2.68476008
  H -4.59661033 -0.34981015 -2.42615492
  H -3.98092140  2.42386620  2.85882482
  H -2.26606738  2.50988305  3.37103604
  H -3.13660109  0.95632961  3.46052807
  H  2.83949981  2.61641467  3.94861966
  H  2.27044490  1.00276634  4.47133374
  H  1.09139155  2.32047668  4.16866133
  H  4.61150777  2.32385239 -1.17660967
  H  4.16329960  3.75853837 -0.22637301
  H  5.21504020  2.49955082  0.50401037
