41
opt_min/./Product_918_opt.xyz
  F -2.92691090  0.36413414 -1.35021619
  C -2.19283013 -0.46473822 -0.52812149
  C -1.21009996  0.32505893  0.35528283
  C -1.70286227 -0.12449298  1.76600931
  C -1.45634801 -1.60927550  1.95802863
  C -2.34284446 -2.21977487  1.18523471
  C -3.12935250 -1.09991577  0.53429831
  O -3.10735973 -0.10164253  1.54192848
  C  0.19185094  0.00096693 -0.21739898
  C  0.98273076 -1.00326948  0.62291529
  O  1.47903844 -1.98064517 -0.12194686
  C  2.36682833 -2.88906276  0.52121785
  O  1.20002781 -0.86705193  1.79886304
  C  1.19554485  1.14111775 -0.22732139
  C  1.07387277  2.24488594  0.60587488
  C  2.04504404  3.23063238  0.59994617
  C  3.15544356  3.11464083 -0.21828608
  C  3.29838538  1.99914515 -1.02490504
  C  2.32972612  1.01214857 -1.02189491
  N -0.05561958 -0.53310455 -1.56331711
  C -0.20277096  0.48889120 -2.60071511
  C -1.25498883 -1.34923118 -1.38629677
  C -1.85564001 -1.80994664 -2.61353019
  N -2.34851801 -2.19459297 -3.57010223
  H -1.42053374  1.39127039  0.25251292
  H -1.41733724  0.52712432  2.58543325
  H -0.71562161 -2.01634973  2.61404656
  H -2.51776991 -3.26361853  1.01631673
  H -4.13700536 -1.30322025  0.18631888
  H  2.39307824 -3.78229211 -0.09771916
  H  2.01183807 -3.12232783  1.52642974
  H  3.36235855 -2.44660448  0.59002388
  H  0.22720385  2.34019923  1.26781839
  H  1.93491065  4.08904549  1.24471362
  H  3.91210553  3.88476138 -0.21736013
  H  4.17165840  1.88852196 -1.64979528
  H  2.44869168  0.13114003 -1.63370597
  H -1.06388540  0.27356082 -3.22909866
  H  0.68550711  0.48654876 -3.23205002
  H -0.33177734  1.48946234 -2.18401650
  H -0.97309871 -2.23858621 -0.80487157
