51
opt_min/./Product_5628_opt.xyz
  C  0.25729300 -0.68944200 -1.78212300
  C -0.71429059 -1.69586611 -2.32705125
  C -1.69889860 -2.19093422 -1.57027482
  N -1.84873576 -1.91685993 -0.24170217
  C -2.93265484 -2.52524958  0.48612260
  C -1.05560518 -0.90200916  0.36964060
  C  0.35511244 -0.78975078 -0.25600820
  C  1.22066756 -1.94084533  0.23365246
  N  1.25274127 -3.01939037 -0.56328454
  O  1.82470175 -1.88216251  1.28995575
  C  0.82635397  0.53889744  0.36564456
  C  1.98082801  1.15012590 -0.42001881
  O  2.91893237  0.23929331 -0.67277787
  C  4.08704354  0.70774680 -1.33249356
  O  2.04773830  2.29637688 -0.77713781
  C  1.28283008  0.32391739  1.83278721
  O  0.50695682  0.10988774  2.72980219
  O  2.56365782  0.63394996  2.00184075
  C  3.07714836  0.43416469  3.31233375
  N -0.35500257  1.38433950  0.31589205
  C -0.30443494  2.58401249  1.12298782
  C -1.57411172  0.57628209  0.31678439
  C -2.51048560  0.83614695  1.50759826
  C -2.42729126  0.85281838 -0.93317599
  C -2.16509345  2.15322039 -1.64197759
  O -3.31299940  0.10437389 -1.26662881
  H  1.24402841 -0.82917479 -2.22988333
  H -0.07375839  0.32232245 -2.03853095
  H -0.63519747 -1.96266528 -3.36754900
  H -2.41173099 -2.89767662 -1.96818298
  H -2.80512273 -3.61193879  0.52237761
  H -3.89341884 -2.29662228  0.01621151
  H -2.94534204 -2.14890063  1.50576394
  H -0.92875672 -1.14856118  1.43051896
  H  1.76728025 -3.83271864 -0.26733978
  H  0.65907723 -3.07173296 -1.38016006
  H  3.86430600  0.93509543 -2.37788207
  H  4.81690456 -0.09460447 -1.26302714
  H  4.45732607  1.61188038 -0.84627332
  H  4.07581686  0.86333930  3.31802305
  H  2.43728302  0.92493060  4.04871537
  H  3.11289924 -0.63600099  3.52172459
  H  0.65803298  3.06033731  0.94788601
  H -1.08400108  3.26911003  0.79443695
  H -0.41857815  2.40062765  2.19742486
  H -1.98726164  0.62746532  2.43771988
  H -3.37751261  0.18604516  1.42567525
  H -2.85670993  1.86669924  1.51563684
  H -1.10585455  2.39172822 -1.64511257
  H -2.55653967  2.10098872 -2.65542732
  H -2.69551262  2.94229240 -1.11238717
