49
opt_min/./Product_2203_opt.xyz
  C -1.78516538  0.64658823 -2.16496572
  O -1.03529736  0.71966778 -0.97082976
  C -0.29085672 -0.40232523 -0.50278251
  O -0.97863696 -1.00046860  0.56615343
  C -2.32213699 -1.37938597  0.37276366
  C  0.97200903  0.18585304  0.09921877
  C  1.88290639 -0.23940938  1.01152375
  C  2.16068469 -1.55913807  1.64515759
  C  3.14099400 -1.47580628  2.81712635
 Br  0.52914074 -2.33286793  2.49987004
  C  2.71832869 -2.57063205  0.61875472
  C  2.28407273 -2.42612183 -0.83775585
  C  0.78818754 -2.64677507 -1.10028201
  C  0.05601943 -1.40872062 -1.61758105
  C  2.84120767  0.93075002  1.21594944
  C  2.77910003  1.42476306  2.57320207
  N  2.71022634  1.84673281  3.63240646
  C  4.31685932  0.72983919  0.76126417
  C  5.17809258  1.89522775  1.10902322
  O  4.65761158 -0.23218347  0.13713832
  N  2.38867881  1.98207418  0.33022475
  C  1.35685865  1.53718468 -0.28209349
  C  0.72178171  2.32178887 -1.38373331
  O  0.11359145  3.40552224 -0.93083725
  C -0.49043038  4.26112949 -1.89284231
  O  0.85845905  2.02332458 -2.54528796
  H -2.43727901 -0.22765164 -2.21049375
  H -2.40468710  1.54300591 -2.15615190
  H -1.13279082  0.67391429 -3.04358317
  H -2.60922959 -1.85652247  1.30811351
  H -2.95992047 -0.50828045  0.19888297
  H -2.43643758 -2.09735240 -0.44630750
  H  4.10605734 -1.07969220  2.50527969
  H  3.30344522 -2.47667121  3.21387097
  H  2.74549111 -0.85874547  3.62097398
  H  2.48156129 -3.57701785  0.96917828
  H  3.80537732 -2.46170279  0.63298712
  H  2.59233447 -1.44887101 -1.21220711
  H  2.85790323 -3.16605127 -1.39902498
  H  0.29249055 -2.99646620 -0.19426464
  H  0.67086058 -3.42975708 -1.85171153
  H  0.65496800 -0.89201570 -2.36997952
  H -0.87263171 -1.73216653 -2.08805907
  H  4.71060854  2.79713213  0.71662593
  H  6.17108162  1.76488354  0.68715975
  H  5.24236766  2.00397637  2.19107770
  H -1.54099852  3.99223470 -2.01409133
  H  0.02157529  4.17036052 -2.85290068
  H -0.40886533  5.27456910 -1.50580777
