28
opt_min/./Product_3937_opt.xyz
  O  0.27877300 -2.22425800  0.94593000
  C  0.08714398 -1.65740563  1.92067272
  O -0.08546493 -1.08328470  2.89460952
  C -0.70028985  1.07365988  0.29023295
  C -1.99816245  1.06980751  0.03869127
  C -3.22744336 -1.92374333  0.15673498
  O -2.60920591 -2.05980101  1.11045594
  O -3.85346799 -1.79268962 -0.78920403
  C -2.22921916  1.21794476 -1.43226990
  O -0.93873947  1.19144595 -2.01668520
  C  0.04895067  1.23854854 -1.00590243
  C  0.78388420  2.60979931 -1.05248680
  C  1.64486260  2.93570400  0.13658102
  O  0.61285921  3.35765874 -1.97113738
  C  1.06548449  0.11892802 -1.26770720
  O  1.09532344 -0.54485891 -2.25941256
  O  1.92822820 -0.01049440 -0.24858682
  C  2.94641255 -0.99282642 -0.43199741
  H -0.19684564  0.98956748  1.23235749
  H -2.80604553  0.98034649  0.74032600
  H -2.72734254  2.17102874 -1.66451784
  H -2.82723874  0.40435232 -1.85905520
  H  2.47843828  3.55598672 -0.18499710
  H  2.00615879  2.04639550  0.63972855
  H  1.04344893  3.52141227  0.83132179
  H  2.50927377 -1.99189149 -0.41118606
  H  3.44279830 -0.84204458 -1.39171514
  H  3.64551077 -0.86082614  0.38974451
