39
opt_min/./Product_1191_opt.xyz
  N  2.07127241 -1.40522327 -2.65995016
  C  1.66063651 -1.13059937 -1.62972645
  C  1.18088255 -0.75638109 -0.32393514
  C -0.30275371 -1.11769065 -0.04145126
 Cl -1.14355435 -1.80927719 -1.46075752
  C -0.14032114 -2.20036508  1.07715119
  C  0.49433960 -3.40269553  0.40784895
  C  1.76139125 -3.06315598  0.22374182
  C  1.87743002 -1.65548566  0.77561413
  O  0.92906562 -1.64808591  1.81739122
  C -0.96398281  0.19325374  0.46416310
  C -2.32221931  0.40319065 -0.27534521
  N -3.35016091 -0.22921669  0.31704160
  C -4.69248937 -0.16599589 -0.21411364
  O -2.40503659  1.02286776 -1.30707266
  C -1.21061274  0.14932643  1.90256570
  N -1.45605987  0.25627686  3.01536007
  N -0.00298391  1.25443826  0.27518173
  C -0.38651363  2.56631792 -0.18339803
  C  1.28250725  0.77500618 -0.15469312
  C  2.36924743  1.24189132  0.82316753
  O  2.17132937  1.94434156  1.77071655
  O  3.57367417  0.81735360  0.42416076
  C  4.69412180  1.24069315  1.19873177
  H -1.01763797 -2.36266469  1.69660011
  H -0.04142794 -4.29023637  0.14246032
  H  2.55560433 -3.59758288 -0.25677467
  H  2.85385676 -1.32256507  1.10560773
  H -3.23467700 -0.64303785  1.22931877
  H -4.64332574  0.32980052 -1.18139321
  H -5.34539542  0.40084097  0.45107570
  H -5.09034224 -1.17294507 -0.34034592
  H -0.51525234  2.61753244 -1.27006585
  H -1.31636978  2.85754317  0.29786409
  H  0.39021660  3.26392687  0.13032667
  H  1.56290146  1.22960427 -1.12325287
  H  4.40040835  1.37398243  2.24101119
  H  5.07267229  2.18514418  0.80548763
  H  5.45167476  0.46644863  1.10362868
