40
opt_min/./Product_4046_opt.xyz
  C -2.38734300 -1.28619900  0.59742000
  C -1.24955686 -0.74630374 -0.27006698
  C -1.65957181 -0.99828913 -1.72387592
  C  0.11220752 -1.44987262  0.01659737
  C  0.22070910 -1.90627530  1.45036592
  O -0.10196095 -2.99967053  1.82384999
  C  1.16985462 -0.40834903 -0.38409132
  C  2.43394926 -0.53632947  0.47278022
  N  3.26908575  0.51421073  0.35321821
  C  4.53989989  0.58153140  1.03475048
  O  2.66392318 -1.50490077  1.16711801
  C  1.63428139 -0.56832525 -1.85191603
  N  0.52347868  0.89070094 -0.21082771
  C -0.92041968  0.76478516  0.01782142
  C -1.25341857  1.17085262  1.45734209
  C -1.55595272  1.72484269 -1.01134312
  C -2.60717318  2.69304135 -0.53078846
  O -1.18655596  1.73585732 -2.15824017
  H -3.29796276 -0.71970356  0.41276823
  H -2.16681670 -1.26545009  1.65985414
  H -2.57149852 -2.32379733  0.32574956
  H -2.67360565 -0.63849361 -1.89075109
  H -1.00867894 -0.48842086 -2.42393310
  H -1.64456875 -2.06656627 -1.92995531
  H  0.20223141 -2.35174022 -0.59449475
  H  0.57428143 -1.14897276  2.17614713
  H  3.04321684  1.25151924 -0.29676785
  H  4.59756207  1.48489155  1.64508165
  H  5.36808740  0.57558341  0.32473140
  H  4.60872142 -0.29634466  1.67651916
  H  1.57625824  0.39951544 -2.34400507
  H  1.01002905 -1.26867933 -2.39482877
  H  2.65854546 -0.93342677 -1.89602648
  H  0.95015061  1.45823890  0.51116507
  H -0.72879447  0.51801013  2.15125867
  H -0.91857545  2.19136342  1.64033886
  H -2.31521775  1.11593318  1.67276877
  H -2.15781888  3.42016317  0.14148423
  H -3.01803636  3.21939440 -1.38956938
  H -3.40417992  2.17740621 -0.00269405
