48
opt_min/./Product_2019_opt.xyz
  C  2.25167723 -2.63521121 -1.83117436
  C  2.06783285 -2.28020795 -0.37965097
  O  2.61851028 -2.83885569  0.52944889
  C  1.10165960 -1.15622814 -0.14580593
  C -0.15043642 -1.24461605  0.31350340
  C -0.85607750 -2.52084977  0.62310522
  F -0.73985563 -2.91321762  1.89556757
  F -0.41224890 -3.53532181 -0.13874478
  F -2.18074469 -2.43889899  0.38023194
  C -0.82289756  0.10205091  0.37980110
  C -1.98038156  0.20131694 -0.66432117
  N -1.57000842 -0.02539075 -1.92207527
  C -2.49074146  0.07982462 -3.03408707
  O -3.11707780  0.49391450 -0.36771110
  C -1.32592780  0.44463629  1.82412865
  O -0.66534987  1.18123617  2.52204304
  N -2.46317902 -0.15259372  2.18910375
  C -3.09575607  0.13444754  3.45620356
  N  0.26567496  0.99801962  0.06437139
  C -0.01093123  2.33092130 -0.39813342
  C  1.45845280  0.30043843 -0.35722415
  C  1.80288166  0.59746616 -1.73987311
  N  2.06668246  0.89656647 -2.81238034
  C  2.67951929  0.64576485  0.50828824
  C  2.50737466  1.32243300  1.70469842
  C  3.61314246  1.62228292  2.48150091
  C  4.88056653  1.24705734  2.06968014
  C  5.04367052  0.55287366  0.88256473
  C  3.94468669  0.24537337  0.10116502
  H  2.49263798 -1.75944421 -2.43120136
  H  1.31755006 -3.05434994 -2.20670142
  H  3.02973476 -3.38763420 -1.92321444
  H -0.60277494 -0.22517945 -2.11781393
  H -3.36496609 -0.54257051 -2.83804249
  H -2.00018184 -0.24984383 -3.94435692
  H -2.82965460  1.11041182 -3.15269648
  H -3.03245566 -0.59743633  1.48382166
  H -3.25538230 -0.79213443  4.00829287
  H -4.05195193  0.63377947  3.29634943
  H -2.43443444  0.78215456  4.02848425
  H  0.84612717  2.96657738 -0.17308755
  H -0.21653062  2.39214072 -1.47766417
  H -0.87693146  2.70300107  0.14229440
  H  1.51408117  1.57925001  2.04003228
  H  3.47841872  2.14698214  3.41542922
  H  5.74122278  1.48831799  2.67675799
  H  6.02887542  0.24662366  0.56478744
  H  4.07928233 -0.30459136 -0.81932210
