29
opt_min/./Product_3385_opt.xyz
  C -1.27944407 -0.53504311 -1.42831244
  C -0.57008599 -0.29709545 -0.09473498
  C -1.04679852 -1.36749246  0.90210050
  C  0.98374809 -0.21147515 -0.18277051
  C  1.44604960  0.38815008 -1.51206884
  C  1.73484475 -1.52242327  0.03502255
  C  1.27148644  0.83486711  0.96210924
  C  2.45635479  1.64305559  0.72484988
  N  3.41791827  2.23542796  0.55170303
  C  1.49059088  0.19331285  2.25149113
  N  1.60050700 -0.29025716  3.27966630
  N  0.07337833  1.66828204  1.05042997
  C -0.89486993  1.06126552  0.50310985
  C -2.25914338  1.64225893  0.48947739
  H -1.10965416  0.27404729 -2.13354115
  H -0.93875441 -1.46833515 -1.87148431
  H -2.35166276 -0.61915126 -1.26142254
  H -2.12409134 -1.28978719  1.03940059
  H -0.57703236 -1.24485450  1.87585420
  H -0.83034410 -2.36404235  0.52495932
  H  2.53032106  0.48797061 -1.52129040
  H  1.01506884  1.37565181 -1.67323280
  H  1.16888983 -0.26161521 -2.33804377
  H  2.80571263 -1.32592406  0.05453303
  H  1.53231079 -2.20540916 -0.78902231
  H  1.46557148 -2.01671072  0.96430064
  H -2.96601347  0.93293529  0.91416768
  H -2.27655459  2.55924055  1.07293285
  H -2.56089805  1.86701714 -0.53198245
