43
opt_min/./Product_4495_opt.xyz
  C  4.62303608  0.14195927 -0.48033522
  C  3.26079863 -0.47939174 -0.42942661
  C  3.19340572 -1.78008955  0.31827612
  C  2.21033250  0.10230632 -0.99794952
  C  0.80539772 -0.40299573 -0.93678691
  C -0.25093094  0.72320204 -0.95367732
  C -0.30941832  1.63012536  0.23651181
  C -0.05518396  1.09281177  1.61492092
  C -0.57152367  2.91857037  0.05974129
  C -1.51335908 -0.12968192 -1.28082438
  C -2.41762913  0.61006633 -2.14501513
  N -3.09606630  1.19299606 -2.85750388
  C -2.28235714 -0.56435983 -0.04496759
  C -2.16284517 -1.85390326  0.45253193
  C -2.86508289 -2.22586469  1.58614313
  C -3.69120865 -1.31599749  2.21985030
  C -3.81864062 -0.02994269  1.72135566
  C -3.11702744  0.34828224  0.59106323
  O -1.01650138 -1.25404128 -2.02169212
  N  0.41252678 -1.25673605 -2.06136907
  C  0.85819739 -0.80964366 -3.36794157
  H  4.63025677  1.04882189 -1.07700209
  H  5.34256033 -0.56158574 -0.89599460
  H  4.95031945  0.38559329  0.52945183
  H  4.12567365 -2.32496237  0.19840986
  H  3.05300916 -1.59729585  1.38339226
  H  2.38200728 -2.40310569 -0.04102069
  H  2.33804702  1.02861321 -1.54189713
  H  0.65911654 -1.01171160 -0.03797583
  H -0.05333296  1.35268052 -1.83095042
  H -0.97367398  0.69614888  2.04318297
  H  0.29532745  1.89426142  2.25884889
  H  0.68728155  0.30022299  1.61803974
  H -0.61337797  3.60562837  0.88533651
  H -0.77838599  3.33846881 -0.91099410
  H -1.52391274 -2.55372613 -0.06390383
  H -2.76821014 -3.23076992  1.96968401
  H -4.24536650 -1.60709232  3.09975737
  H -4.46577451  0.68042028  2.21337720
  H -3.21351373  1.34943900  0.19774039
  H  0.48016672  0.18041763 -3.64369615
  H  1.94494130 -0.80562404 -3.37343729
  H  0.49612761 -1.52987951 -4.09799646
