52
opt_min/./Product_5661_opt.xyz
  C -0.37534900 -0.98098900 -0.41113200
  O  0.27624675 -1.58990007 -1.22933031
  C -1.84964911 -1.06051963 -0.44837182
  O -2.48956631 -2.02428514 -1.14089349
  C -1.89558156 -3.29933522 -1.33073623
  C -2.63887489 -0.06416779  0.07280072
  O -3.97621367 -0.22218911 -0.07924675
  C -4.83827645  0.90169400 -0.06332446
  C -2.05989128  1.01410742  0.87180338
  O -2.75172294  1.71459530  1.59318251
  C -0.55408931  1.19530608  0.82426939
  C -0.15578760  2.07077322  2.01418735
  C  0.22971760 -0.13972069  0.71609227
  C  0.10078022 -1.03187062  1.96025139
  C  1.66861610  0.34521736  0.29723672
  C  2.57152973  0.78765381  1.48041746
  C  2.47850301 -0.69834455 -0.46550655
  C  2.92918578 -0.43902411 -1.75252226
  C  3.73335992 -1.35007624 -2.41290283
  C  4.10631304 -2.53087751 -1.79674450
  C  3.67212933 -2.79009150 -0.50788657
  C  2.87504077 -1.87828087  0.15636851
  N  1.34764662  1.47118239 -0.58435907
  C -0.04194159  1.83666919 -0.50454263
  C -0.23368424  3.34545551 -0.60762888
  C -1.66194850  3.80555230 -0.67481148
  O  0.70771469  4.09523072 -0.64135078
  H -2.68233508 -3.90727063 -1.77258011
  H -1.59387642 -3.73391679 -0.37418153
  H -1.03639277 -3.25708365 -1.99836663
  H -5.81883340  0.50135642 -0.31484844
  H -4.54230496  1.63206630 -0.82136418
  H -4.87202710  1.38085833  0.91464926
  H -0.08241964  1.48379597  2.92435248
  H -0.92939905  2.81701000  2.16948410
  H  0.78033663  2.58878173  1.83930397
  H -0.90210038 -0.94126030  2.37111239
  H  0.81496334 -0.76415196  2.73221613
  H  0.27020473 -2.07273189  1.69604036
  H  2.08745592  0.69846522  2.44595832
  H  3.48043666  0.19696690  1.50187921
  H  2.86308459  1.82660424  1.35529939
  H  2.62799646  0.47698620 -2.23453113
  H  4.07031958 -1.13385349 -3.41663377
  H  4.73136792 -3.24390224 -2.31312266
  H  3.96013162 -3.70717657 -0.01284802
  H  2.55655785 -2.09065275  1.16587065
  H  1.93653431  2.27812727 -0.40659751
  H -0.58928475  1.38353036 -1.34880488
  H -1.74059143  4.65589894 -1.34647402
  H -1.96411689  4.13847974  0.31727331
  H -2.32987440  3.01091331 -0.98756927
