39
opt_min/./Product_4721_opt.xyz
  C -0.58839861  0.91112383 -0.76855629
  C  0.21769219  0.04587115  0.19723044
  C -0.43568928 -1.33776050  0.38132043
  N -1.85815795 -1.34387047  0.17704462
  C -2.54918358 -2.60406091  0.27933493
  C -2.56297697 -0.17700549  0.09835462
  C -2.00333233  0.98791829 -0.27378862
  C -2.67966402  2.29210161 -0.31348410
  N -3.76757923  2.42559168  0.49607694
  O -2.28730180  3.21516263 -1.00202985
  C  0.44461549 -2.24328641 -0.54140139
  C  0.30494442 -3.64290963 -0.22428745
  N  0.16145276 -4.74549956  0.04247047
  N  1.80095777 -1.73681572 -0.33618005
  C  2.55761931 -2.32825173  0.75332830
  C  1.64272770 -0.28629972 -0.32940040
  C  2.76767930  0.51464572  0.34351463
  O  2.32989660  1.74888832  0.57922612
  C  3.26957857  2.70139033  1.06649175
  O  3.88219828  0.12896073  0.55118101
  C  1.82067630  0.10531350 -1.72923193
  N  2.01947911  0.31736657 -2.83421523
  H -0.15666190  1.90573091 -0.86876480
  H -0.59102635  0.44007542 -1.75725355
  H  0.26799896  0.55371349  1.16420701
  H -0.23149710 -1.68896831  1.41094486
  H -2.54502837 -2.98353808  1.30880738
  H -3.57876707 -2.47782206 -0.04598892
  H -2.07796642 -3.35235131 -0.35750878
  H -3.61486963 -0.27429179  0.32859889
  H -4.08301922  1.69600089  1.10599306
  H -4.29353126  3.28180403  0.46236841
  H  0.17966673 -2.10819424 -1.60048947
  H  2.24364711 -3.35889792  0.89507698
  H  3.61321541 -2.31883574  0.48460028
  H  2.43595962 -1.78990773  1.70080175
  H  4.28566816  2.37288557  0.84215383
  H  3.04925827  3.64338198  0.56888900
  H  3.14730546  2.80930859  2.14515490
