52
opt_min/./Product_5675_opt.xyz
  C -0.21530600 -2.57199200  0.30318000
  C  0.39074734 -1.35513695 -0.41567691
  C  1.37725214 -1.87758355 -1.45674077
  C -0.77369140 -0.55601766 -1.04677693
  C -0.33506957  0.38353342 -2.13757835
  O -0.81156281  0.38941245 -3.24159559
  C -1.31805878  0.24350559  0.16293044
  C -2.65413328 -0.26278781  0.76072600
  O -2.86929668 -0.21984762  1.94437058
  N -3.57707350 -0.70003543 -0.13423679
  C -4.88020288 -1.15302171  0.29810696
  C -1.54119231  1.74274244 -0.19463698
  O -0.93324769  2.63494539  0.34160479
  N -2.48721514  1.95973345 -1.13661325
  C -2.78214501  3.29391140 -1.60836531
  O -0.35207589  0.14532085  1.18538876
  C  0.87915661 -0.35608003  0.68074100
  C  1.56689489 -1.12730681  1.84332485
  N  2.88392616 -1.35039872  1.62662878
  C  3.71190818 -2.01490509  2.60431064
  O  0.98043858 -1.51663341  2.82186090
  C  1.78845618  0.82580512  0.35274310
  C  1.67674232  1.91168814  1.22112599
  C  2.46773153  3.03218480  1.06486600
  C  3.40437672  3.08866344  0.04645239
  C  3.54936199  2.00517088 -0.79898003
  C  2.75578038  0.87782989 -0.64511170
  H -0.83527447 -3.14746215 -0.38296724
  H -0.81821880 -2.26523582  1.15477737
  H  0.57577276 -3.22115532  0.67166572
  H  0.95376330 -2.76460211 -1.92550109
  H  1.56911779 -1.15560457 -2.24635943
  H  2.31469927 -2.16829701 -0.98794989
  H -1.50504154 -1.24801047 -1.47258281
  H  0.45160959  1.09809276 -1.84377092
  H -3.36541887 -0.79512450 -1.11310180
  H -5.11649180 -2.11480777 -0.15629900
  H -4.85044063 -1.25627573  1.38171483
  H -5.65116962 -0.42600516  0.03286661
  H -2.96747562  1.20014482 -1.58664288
  H -2.23313637  3.51099522 -2.52817893
  H -2.47203756  3.99867293 -0.83891037
  H -3.85002610  3.39135828 -1.79315711
  H  3.34496689 -0.89781577  0.85291238
  H  4.50855467 -1.35354356  2.94837855
  H  3.07318200 -2.28240139  3.44492410
  H  4.15244171 -2.92123781  2.18293724
  H  0.94388087  1.86770623  2.01003979
  H  2.35124556  3.86423407  1.74224598
  H  4.02169366  3.96538206 -0.08369976
  H  4.28399522  2.02709200 -1.59048668
  H  2.91433839  0.05711551 -1.32362202
