56
opt_min/./Product_2376_opt.xyz
  C -1.30397477  2.17166005 -2.45994006
  C -2.35094942  1.55467828 -1.56299775
  O -3.45695132  2.03503680 -1.44377029
  C -1.92464790  0.35245854 -0.84270436
  C -2.61637185 -0.43191100  0.01459066
  C -3.97980528 -0.39074062  0.50530351
  C -4.54085730  0.78857601  0.99408861
  C -5.83578942  0.79887965  1.47376945
  C -6.59466716 -0.36025232  1.46274843
  C -6.04212556 -1.53451151  0.98053767
  C -4.74145708 -1.56146286  0.51727794
  C -1.61110306 -1.49614395  0.45478955
  C -0.71361166 -0.72982200  1.45934595
  C  0.07343247  0.20270214  0.50104026
  C -0.51498425 -0.24250053 -0.86077657
  O -0.78851125 -1.62335597 -0.67911825
  C  1.58025936  0.03046593  0.86520807
  C  2.51914772 -0.82000855  0.01167398
  C  3.87946277 -0.50704768  0.06577636
  C  4.81748319 -1.29985023 -0.56707378
  C  4.42101599 -2.43506868 -1.25336177
  C  3.08045887 -2.76879661 -1.28527179
  C  2.13475483 -1.97684856 -0.65477220
  C  2.15241586  1.42961665  1.00805019
  C  2.26524215  2.21729985 -0.13242835
  C  2.75068963  3.50800185 -0.04332138
  C  3.12263764  4.02889056  1.18635041
  C  3.00549698  3.25073970  2.32332276
  C  2.51966478  1.95723623  2.23502695
  N  1.45601006 -0.62935263  2.19409655
  N  0.32420525 -1.48830754  2.11138954
  C  0.41604505 -2.79235373  2.14972134
  N  0.50051560 -3.93498714  2.26244639
  H -1.73861161  3.01190662 -2.99608905
  H -0.46896090  2.52399695 -1.85440347
  H -0.92776142  1.43838548 -3.16967362
  H -3.95593333  1.69351068  0.99656052
  H -6.25899592  1.71742933  1.85435491
  H -7.61176789 -0.34565469  1.82913761
  H -6.63155023 -2.43988967  0.96809110
  H -4.31903426 -2.47590088  0.12993587
  H -1.98756175 -2.46018341  0.78516856
  H -1.30327839 -0.18425099  2.20693310
  H -0.18027991  1.25023427  0.69038162
  H  0.10439713 -0.08843809 -1.73738798
  H  4.21069920  0.36576258  0.60972335
  H  5.86288262 -1.02956050 -0.51559986
  H  5.15128013 -3.05516019 -1.74884244
  H  2.75272625 -3.66074140 -1.79784523
  H  1.10538159 -2.28588943 -0.69324349
  H  1.98726357  1.80211884 -1.09198341
  H  2.83977801  4.11006404 -0.93535474
  H  3.50255384  5.03649333  1.25519412
  H  3.29175492  3.65002999  3.28661057
  H  2.41754320  1.35092090  3.12411494
  H  2.29094786 -1.15511830  2.44360003
