38
opt_min/./Product_405_opt.xyz
  F -0.53799500 -1.26782600 -1.85365900
  C -0.04866847 -0.92810447 -0.60822037
  C  1.05209253  0.14943515 -0.70462046
  C  2.28356017 -0.54771144 -0.10537138
  C  2.74097718 -1.60800574 -1.11203998
  C  1.64848137 -2.69093839 -1.00677687
  C  0.67725371 -2.11870754  0.03806440
  C  1.63756040 -1.40477503  0.98773688
  C  0.50857908  1.25852865  0.14870181
  C  1.26105451  2.51975690  0.38642764
  C  0.52515788  3.57755503  1.15371141
  O  2.39649086  2.64253624 -0.01266871
  N -0.63394687  1.04699446  0.65549641
  C -1.17160393 -0.21627814  0.24169458
  C -2.37674121  0.07241236 -0.71663790
  C -3.26776757 -1.08709829 -1.01749771
  O -2.53588038  1.17562158 -1.15445234
  C -1.72999300 -0.98157608  1.42843769
  C -2.06929336 -0.14708740  2.62622997
  O -1.91043152 -2.17411693  1.38156959
  H  1.21360277  0.50307383 -1.72215489
  H  3.06550134  0.14405291  0.19537204
  H  2.82082403 -1.19796614 -2.11781122
  H  3.71766617 -2.00112093 -0.83189424
  H  1.15375602 -2.88292883 -1.95718445
  H  2.05915532 -3.63548608 -0.64953608
  H  0.00702917 -2.86068580  0.46107135
  H  1.14129701 -0.81391330  1.75852873
  H  2.33757284 -2.09152942  1.45865546
  H  0.85586625  3.54573378  2.18961986
  H -0.54335050  3.39894810  1.11095511
  H  0.77708909  4.55880774  0.75883513
  H -3.70638568 -0.94914548 -2.00151233
  H -2.75159753 -2.03965763 -0.95558736
  H -4.07230857 -1.09142050 -0.28040861
  H -2.84984837 -0.63981588  3.20024136
  H -2.36608352  0.85194884  2.32604463
  H -1.18194612 -0.07511990  3.25205907
