49
opt_min/./Product_5351_opt.xyz
  C  2.22978700 -1.18079300  1.38051500
  C  0.88889946 -1.04939643  0.68896290
  C  0.21059786  0.32834937  0.81091645
  N  1.18479464  1.34862002  0.43952822
  C  0.74845696  2.61465942 -0.08858320
  C  2.50964282  1.14726270  0.64106584
  C  3.09335348  0.00912031  1.07035149
  C  4.52207946 -0.16620224  1.31138227
  N  5.35148109  0.91479322  1.08246510
  O  4.98244222 -1.20635770  1.75532727
  C -0.89252405  0.10934695 -0.27288693
  C -1.73789966  1.26248042 -0.75696218
  C -2.02432040  1.37542211 -2.11076604
  C -2.87368003  2.36665839 -2.56971464
  C -3.45920605  3.24865015 -1.67862285
  C -3.19354939  3.12984414 -0.32411673
  C -2.34487149  2.14067094  0.13623766
  C -1.94598985 -0.89224387  0.21611525
  C -2.42526605 -1.84745471 -0.67157069
  C -3.41212848 -2.73615965 -0.28371868
  C -3.94223146 -2.67744019  0.99231325
  C -3.47837603 -1.71982139  1.87764491
  C -2.49182518 -0.82978882  1.49325050
  N -0.12235670 -0.52339621 -1.34657216
  C  0.83814820 -1.16399713 -0.82614828
  C  1.81541962 -1.95692482 -1.60387852
  H  2.07292475 -1.25221592  2.46268382
  H  2.74323468 -2.09546380  1.07966134
  H  0.20261654 -1.81209271  1.08119142
  H -0.17248882  0.54376169  1.81119566
  H  0.08791053  3.13318604  0.61182511
  H  0.21423322  2.47928058 -1.02988223
  H  1.61790688  3.24195476 -0.27627256
  H  3.11737396  2.00837430  0.39973374
  H  6.33342124  0.69284853  1.15949425
  H  5.10865953  1.57931986  0.36943235
  H -1.55751895  0.68547298 -2.79618333
  H -3.08294171  2.44611191 -3.62606232
  H -4.12617858  4.01881715 -2.03685118
  H -3.65369702  3.80706538  0.38158666
  H -2.15911066  2.05448873  1.19618247
  H -2.01150731 -1.89386955 -1.66711593
  H -3.76785371 -3.47528108 -0.98614300
  H -4.71467181 -3.36734072  1.29798774
  H -3.88950221 -1.66355635  2.87519910
  H -2.15502897 -0.08818799  2.20030777
  H  1.89444278 -2.96031093 -1.18840712
  H  2.79723080 -1.48888924 -1.53391308
  H  1.51379392 -2.00786449 -2.64624968
