53
opt_min/./Product_5329_opt.xyz
  C -1.03282400  3.40959400 -2.44881000
  C -0.79294761  2.66698540 -1.16989651
  C -0.38725890  3.54121190 -0.02467595
  C -0.90157637  1.34525331 -1.10482066
  C -0.67385956  0.49225947  0.10650736
  C -1.34274959 -0.88498588 -0.03156846
  C -2.81423657 -0.88029199  0.30523153
  C -3.73089352 -1.29165649 -0.80569596
  C -3.25236517 -0.52907549  1.50329287
  C -0.51241383 -1.79739401  0.90134914
  C -0.41657827 -3.17434114  0.27315447
  C -1.30352206 -4.21996531  0.88374966
  O  0.30463265 -3.39283106 -0.67723849
  N  0.75654040 -1.13175042  1.01679104
  C  1.93845407 -1.83931232  1.41080024
  C  0.82294156  0.16283120  0.39276724
  C  1.32062804  1.14158138  1.49392124
  N  2.44231893  1.82240360  1.23308087
  C  2.99271909  2.77860442  2.16000395
  O  0.71514253  1.19640536  2.54808661
  C  1.60246787  0.18956420 -0.93173928
  O  2.20730547  1.17905335 -1.33256705
  N  1.54124016 -0.94725429 -1.62974790
  C  2.17775350 -1.10071722 -2.91537077
  H -1.33772562  2.73932858 -3.24907356
  H -0.12183063  3.92651011 -2.74928220
  H -1.81064197  4.16162486 -2.30172390
  H  0.67788084  3.76077449 -0.10985919
  H -0.92579413  4.48803985 -0.06222534
  H -0.55903594  3.07346005  0.93984215
  H -1.16678318  0.80383038 -2.00403584
  H -1.06783621  0.98252245  1.00004983
  H -1.20959525 -1.23076374 -1.06231996
  H -3.64509552 -0.59128955 -1.63674275
  H -4.76655342 -1.30944246 -0.47377929
  H -3.45818862 -2.28005754 -1.17573372
  H -2.58211443 -0.22415858  2.28876391
  H -4.30216799 -0.52036151  1.74168551
  H -0.99292324 -1.88344071  1.88764182
  H -1.30246050 -5.12001573  0.27425702
  H -2.31380895 -3.82826390  0.98923134
  H -0.93691295 -4.45977046  1.88174619
  H  1.68259769 -2.53943500  2.20955609
  H  2.40772451 -2.40748808  0.59177674
  H  2.66759946 -1.12962090  1.80038912
  H  2.76601193  1.81716178  0.26860787
  H  2.82680876  3.80192382  1.81265960
  H  2.49786180  2.64445667  3.12153565
  H  4.06555826  2.60980160  2.27185064
  H  1.08765020 -1.77753782 -1.25499187
  H  1.43731935 -1.37336177 -3.66940083
  H  2.94140669 -1.87901211 -2.87381216
  H  2.63693334 -0.14893848 -3.18028695
