37
opt_min/./Product_498_opt.xyz
  C  4.91553500 -0.05693400 -0.72642800
  O  3.77737361  0.77399775 -0.85816165
  C  2.88929179  0.75774398  0.15707119
  C  1.85076681  1.58073393  0.36515618
 Cl  1.28944267  2.88264154 -0.57653791
  C  1.14962960  1.06599662  1.59530019
  C  0.34837203 -0.23365321  1.20449284
  C  1.51869825 -1.16746232  0.85493813
  C  2.73847771 -0.29048496  1.26115565
  O  2.21237390  0.48028316  2.32237165
  C  1.34535533 -1.49530215 -0.63571173
  C  1.42882386 -2.98224103 -0.94631900
  N  0.02788035 -0.98016771 -1.01549183
  N -0.50885106 -0.23752189  0.07600729
  C -1.78513254  0.25026026  0.02139230
  C -2.28314189  1.07016216  1.04017799
  C -3.57043203  1.56173640  0.96395439
  C -4.38399646  1.26797461 -0.11734771
  C -3.89360312  0.45766213 -1.12813412
  C -2.61313760 -0.05239625 -1.06682876
  H  5.54493201  0.16774040 -1.58426833
  H  5.45792748  0.16040976  0.19694752
  H  4.64048070 -1.11528931 -0.74369542
  H  0.60631252  1.80794058  2.17054276
  H -0.17520248 -0.54472108  2.11522151
  H  1.48528849 -2.08830455  1.43816472
  H  3.62574004 -0.82601900  1.58673420
  H  2.13067952 -0.98325849 -1.21371866
  H  2.42087988 -3.36424162 -0.71874876
  H  1.22694581 -3.14515434 -2.00093852
  H  0.69237276 -3.53715090 -0.37092455
  H  0.10706837 -0.37233170 -1.83198238
  H -1.66359200  1.31937424  1.88635818
  H -3.94143415  2.19003229  1.76063330
  H -5.38624796  1.66360133 -0.16995389
  H -4.51871626  0.21628834 -1.97571103
  H -2.24793924 -0.70184909 -1.84477129
