58
opt_min/./Product_2549_opt.xyz
  F  1.09259700 -0.71757000 -2.26361700
  C  0.52608914 -0.86284456 -1.01268132
  C -0.99344324 -0.50868254 -1.04742148
 Cl -1.47008259  0.10471092 -2.67235072
  C -1.64887064 -1.87291949 -0.78196219
  C -1.40218609 -2.80050582 -1.98768947
  C  0.09653816 -3.14541875 -1.88381971
  C  0.54344607 -2.35612624 -0.64638312
  C -0.69730298 -2.50475918  0.23657529
  C -1.12519251  0.72847518 -0.10562043
  C -2.20895114  1.69401462 -0.67788175
  N -3.46036989  1.20061915 -0.53059227
  C -4.62344818  1.92001752 -0.99179905
  O -1.98230848  2.77011933 -1.16869220
  C -1.54087287  0.62598892  1.38724143
  O -1.29008279  1.54246666  2.14077922
  N -2.23596481 -0.45043465  1.82768284
  C -2.68603610 -0.52264976  3.20191359
  N  0.20647012  1.30322784 -0.24812638
  C  0.49937377  2.61538348  0.29868955
  C  1.17760979  0.22921685 -0.09814020
  C  1.39867198 -0.21110352  1.36728026
  O  1.36015207 -1.34224785  1.79334640
  O  1.68758269  0.82449928  2.14548772
  C  1.91738891  0.56295944  3.52229234
  C  2.54065077  0.61971807 -0.64820037
  C  3.70808110  0.09541875 -0.11150827
  C  4.93960659  0.45007708 -0.63632904
  C  5.01591829  1.32246958 -1.70660305
  C  3.85214924  1.82697985 -2.26220449
  C  2.62163240  1.47622303 -1.74077072
  H -2.71078070 -1.82335535 -0.53464630
  H -1.64330337 -2.31707078 -2.93095568
  H -2.02526046 -3.69045186 -1.89432847
  H  0.24947052 -4.21039312 -1.70678549
  H  0.64676397 -2.86806792 -2.77825001
  H  1.48736677 -2.68005664 -0.21958723
  H -0.93684551 -3.55349347  0.41421719
  H -0.59453678 -2.00325175  1.18999305
  H -3.60946324  0.30303143 -0.10279203
  H -4.27213632  2.83584602 -1.46324715
  H -5.27853197  2.17101768 -0.15555844
  H -5.17652200  1.32479534 -1.72083963
  H -2.50652821 -1.20015260  1.21851337
  H -2.73621076 -1.56449889  3.51144274
  H -1.97637460  0.01944053  3.82509647
  H -3.66980641 -0.06023334  3.31776713
  H  1.29902232  3.06028369 -0.29241205
  H  0.79247849  2.59870356  1.34751430
  H -0.38856196  3.22947926  0.19819571
  H  2.95159376  0.24289146  3.66757271
  H  1.72959472  1.49640020  4.04645322
  H  1.24549919 -0.22251611  3.87449289
  H  3.67088553 -0.60505424  0.71046699
  H  5.84202133  0.03910749 -0.20771667
  H  5.97786273  1.59896701 -2.11344519
  H  3.90300638  2.49368004 -3.11075685
  H  1.71290539  1.84821944 -2.18674569
