35
opt_min/./Product_3821_opt.xyz
  C -2.44128607  1.68794203  0.53841971
  C -1.42398097  0.55894751  0.43013779
  C -2.03753303 -0.63439074 -0.34585484
  C -1.77039022 -1.98526804  0.31034912
  N -1.45999967 -0.53495918 -1.68514994
  C -1.05482405 -1.59932848 -2.34317170
  N -0.76617939 -2.47422224 -3.03225049
  N -0.68639648  0.66178164 -1.74967331
  C -0.15074164  0.88291302 -0.41097200
  C  0.34676152  2.34751372 -0.44160920
  C  1.83168037  2.50453232 -0.63665561
  O -0.38621058  3.29286140 -0.35716205
  C  0.97731398 -0.04343915  0.02148611
  C  1.60388200 -0.93004753 -0.83992488
  C  2.61105783 -1.76961885 -0.39397024
  C  3.01968519 -1.72268880  0.92658695
  C  2.41805458 -0.82193243  1.78992314
  C  1.40583792  0.00752920  1.34795483
  H -2.72007997  2.04731413 -0.44844422
  H -3.32883641  1.31632649  1.04715772
  H -2.04459430  2.52265167  1.10679598
  H -1.14491784  0.23562662  1.43453725
  H -3.12043516 -0.49344312 -0.44366207
  H -2.24053121 -2.01621602  1.28965285
  H -0.70083801 -2.15410224  0.42888472
  H -2.18061395 -2.79010025 -0.29586971
  H  0.00639496  0.60177207 -2.49034468
  H  2.18547364  1.87293840 -1.44767209
  H  2.35817691  2.20812746  0.26839164
  H  2.05280982  3.54681779 -0.85227111
  H  1.31505901 -0.99930595 -1.87993835
  H  3.06820399 -2.46252125 -1.08275303
  H  3.80260824 -2.37703678  1.27683841
  H  2.73852337 -0.76362675  2.82028842
  H  0.95644497  0.71298788  2.03255747
