59
opt_min/./Product_2357_opt.xyz
  C  2.40417400 -3.62014700  0.99040300
  O  1.70457848 -2.87663256  0.00023740
  C  0.98745193 -1.84809336  0.45458085
  O  0.91998233 -1.57482541  1.62528089
  C  0.30543813 -1.07145173 -0.66380071
  C -1.03881504 -0.43177103 -0.18774188
  C -1.06652279 -0.24703418  1.34666338
  C -1.71030893 -1.29265910  2.22099840
  O -0.67306197  0.78412325  1.83505776
  C -2.09890933 -1.43360501 -0.71936032
  C -2.38664703 -1.25423453 -2.20726843
  C -1.01426425 -1.49718272 -2.84796251
  C -0.18570705 -2.09559407 -1.70072213
  C -1.28973980 -2.74094853 -0.83938788
  C -0.97870240  1.00747268 -0.80977357
  C -1.40814435  2.11247512  0.19441480
  O -2.63416252  1.88298163  0.70813707
  C -3.08956849  2.87687357  1.61919336
  O -0.81028915  3.13816996  0.34102432
  C -1.72537584  1.45151826 -2.11585492
  C -3.15696639  1.93127326 -2.04036768
  O -1.08361695  1.58708431 -3.12245451
  O  0.37641418  1.25869926 -1.10274515
  C  1.23655876  0.13486375 -1.01612196
  C  1.97459786  0.00186865 -2.35824098
  C  2.27966412  0.41242130  0.07129551
  C  2.16452003  1.53557125  0.87830631
  C  3.12156645  1.81280507  1.83860119
  C  4.21027595  0.97765952  2.00749687
  C  4.34159319 -0.13636505  1.19701211
  C  3.38791119 -0.41393368  0.23471621
  H  3.04849368 -2.95776330  1.57184043
  H  2.98978503 -4.36197001  0.45376129
  H  1.69790350 -4.10578473  1.66673058
  H -1.95507771 -2.21826506  1.71862149
  H -2.62191540 -0.85169517  2.62710423
  H -1.04247047 -1.48570540  3.05657772
  H -2.99218937 -1.46128214 -0.09870053
  H -3.06126507 -2.06635792 -2.50149079
  H -2.89310958 -0.34770265 -2.50026487
  H -0.58108775 -0.59330128 -3.26506930
  H -1.09219064 -2.22143258 -3.66094870
  H  0.59296967 -2.78067546 -2.02749430
  H -0.92090839 -3.14099168  0.10187588
  H -1.83193235 -3.51969271 -1.37241010
  H -3.23449557  3.82633368  1.09988378
  H -2.35329454  3.01262006  2.41240161
  H -4.03016404  2.51023278  2.02272879
  H -3.12426361  3.02142796 -2.07887233
  H -3.69365155  1.60844601 -2.93173302
  H -3.67817569  1.61715674 -1.14509428
  H  2.25228561  1.00567441 -2.66872176
  H  1.35307105 -0.43706713 -3.12762647
  H  2.87311792 -0.59651913 -2.25441568
  H  1.32043415  2.19402763  0.75706750
  H  3.00915901  2.68924063  2.45941148
  H  4.95528601  1.19290367  2.75969168
  H  5.19160589 -0.79500176  1.31151723
  H  3.52587130 -1.28104201 -0.39595517
