51
opt_min/./Product_1398_opt.xyz
  C  4.74596771 -1.01122356  2.68990467
  N  3.60402307 -1.07408249  1.81015716
  C  3.00883886  0.04733735  1.33720558
  O  3.39556342  1.16762031  1.61549030
  C  1.88046727 -0.18020645  0.41472316
  C  1.20140871 -1.26384484  0.00220602
  C  1.08505905 -2.61294094  0.53267281
  C  0.97573044 -2.81790585  1.91032132
  C  0.82639964 -4.09313450  2.41870811
  C  0.78914523 -5.18386649  1.56396803
  C  0.89086516 -4.98964000  0.19644444
  C  1.02865097 -3.71442771 -0.31876081
  C  0.28477744 -0.73944636 -1.10303724
  C -0.82184439  0.01547555 -0.33473720
  C -0.04007470  1.26524347  0.14128564
  C  1.35921366  0.96110418 -0.44896672
  O  1.05876129  0.29946140 -1.66824613
  C -0.82838311  2.50055711 -0.36111894
  C -0.91489453  3.56864590  0.73222380
  C -0.21901122  3.10340000 -1.64746797
  N -2.15817092  1.91970673 -0.55696958
  C -3.24281320  2.74308351 -1.05088032
  C -2.01844342  0.59410594 -1.13387275
  C -1.84185509  0.53383972 -2.67164328
  C -3.20549110 -0.18016240 -0.79733388
  N -4.14062121 -0.78934208 -0.54974281
  H  5.43040399 -1.82887577  2.46831145
  H  5.24296790 -0.05400546  2.53345882
  H  4.43783139 -1.07823167  3.73798521
  H  3.26273293 -1.97881148  1.52957976
  H  0.98596262 -1.96467025  2.57277566
  H  0.73378085 -4.23647905  3.48465395
  H  0.67474659 -6.17962433  1.96319058
  H  0.85884830 -5.83649622 -0.47273425
  H  1.11670100 -3.56692210 -1.38517654
  H -0.02642380 -1.45232432 -1.86160915
  H -1.20212011 -0.57468129  0.50571478
  H  0.01006602  1.28172561  1.23135959
  H  2.02104032  1.80728533 -0.58991898
  H -0.00538092  4.16310111  0.76483927
  H -1.75481947  4.23399588  0.54361631
  H -1.06222569  3.11302122  1.70919707
  H -0.99582245  3.49933600 -2.29536425
  H  0.45459283  3.92167945 -1.39780063
  H  0.33648288  2.35892126 -2.20920148
  H -2.91078447  3.57366453 -1.67981271
  H -3.94218504  2.13378448 -1.62119451
  H -3.79036164  3.15654819 -0.19766275
  H -2.31011821 -0.37116864 -3.06331983
  H -0.78950080  0.52593187 -2.93368020
  H -2.31888442  1.39506411 -3.13451226
