44
opt_min/./Product_4727_opt.xyz
  C  0.26573100 -3.25251000  1.41849500
  C  0.02988764 -1.74278255  1.44367618
  C  0.71412170 -1.07508281  2.64656357
  C  0.32940571 -1.02864676  0.07120485
  C  1.63126717 -0.29586252  0.05480257
  C  1.85729853  1.00969627 -0.05517835
  C  3.17185380  1.63618950 -0.08428262
  C  4.39037903  0.76920347  0.04100883
  C  3.26951081  2.95765527 -0.22059957
  C -1.03662011 -0.28738823 -0.14078143
  C -1.10472515  0.90612517 -1.03330980
  C -1.04233176  0.73419392 -2.41109768
  C -1.11432301  1.83270155 -3.25039677
  C -1.24356851  3.10702607 -2.72674479
  C -1.29356131  3.28249056 -1.35517631
  C -1.22126947  2.19099650 -0.50921484
  N -1.51663284 -0.14930479  1.23444533
  C -2.86396896  0.37166599  1.43834429
  N -1.40921420 -1.46777635  1.62482989
  O -2.10209154 -2.21252662  0.54076297
  C -1.88112983 -1.51694939 -0.57683771
  O -2.25524640 -1.84598338 -1.66187623
  H  1.21927093 -3.50661549  1.87446280
  H -0.53278700 -3.74047040  1.97581190
  H  0.25479722 -3.65062354  0.40565170
  H  1.15363293 -1.81623463  3.30620938
  H -0.02538152 -0.50838095  3.20939757
  H  1.48836174 -0.38602545  2.31899794
  H  0.41078466 -1.79119544 -0.71752014
  H  2.46520873 -0.98548547  0.13325469
  H  1.03374391  1.69998039 -0.13527484
  H  4.37574486  0.22982068  0.98826565
  H  5.29041028  1.37877834  0.00719784
  H  4.42854924  0.04250733 -0.76856439
  H  2.39619107  3.58146688 -0.31330255
  H  4.22128586  3.45951056 -0.24879647
  H -0.94960474 -0.25607084 -2.82496774
  H -1.06809719  1.68913666 -4.31992505
  H -1.29989465  3.96226526 -3.38424105
  H -1.38532694  4.27549237 -0.93836856
  H -1.23511603  2.33335198  0.55965674
  H -3.38026875 -0.29195168  2.13236925
  H -3.43580458  0.42790252  0.50830307
  H -2.80582227  1.36496245  1.88333069
