26
opt_min/./Product_3460_opt.xyz
  C -0.45263286  1.95568432  0.84399157
  C -0.79816502  0.89933171 -0.19014347
  C -1.72334305 -0.24224675  0.29652745
  C -1.40020070 -0.78407011  1.68259695
  N -1.46585933 -1.28571588 -0.68655323
  C -2.27079639 -1.39243462 -1.73755348
  N -3.02071417 -1.59045565 -2.58126799
  O -0.08369067 -1.24734895 -0.97452543
  C  0.38927008  0.09462688 -0.80096177
  C  1.71136298  0.01710753  0.00329289
  O  2.32750714 -1.10902124 -0.30120211
  C  3.59794011 -1.32531820  0.30002784
  O  2.13435133  0.86070915  0.74034989
  C  0.77298842  0.66766884 -2.08591592
  N  1.05611603  1.12279858 -3.09443531
  H -1.36983572  2.43931769  1.17275778
  H  0.05917091  1.53764383  1.70316855
  H  0.19403976  2.70837168  0.40093746
  H -1.30535332  1.39723763 -1.02823542
  H -2.77477465  0.04998352  0.23460641
  H -1.53575389 -0.01509617  2.43605621
  H -0.37458862 -1.14492888  1.71734300
  H -2.06585143 -1.61342652  1.90793408
  H  3.48955443 -1.44066749  1.38009997
  H  4.25804867 -0.48027745  0.09647803
  H  3.98698853 -2.23653370 -0.14432464
