49
opt_min/./Product_4980_opt.xyz
  C -3.36266700 -2.83026500 -0.97349200
  C -2.49948388 -1.83623887 -0.24120366
  C -2.83789840 -1.59912511  1.20086374
  C -1.51958002 -1.21103225 -0.88691653
  C -0.57934578 -0.19139709 -0.32442653
  C  0.88050313 -0.72069888 -0.25627799
  C  1.39059467 -0.62056768  1.15633786
  C  1.10761684 -1.82651723  2.01376187
  C  2.00019257  0.44184996  1.65647911
  C  1.61106413  0.11765116 -1.32750606
  C  3.05820980  0.46151325 -0.97879465
  O  3.72439381 -0.65186161 -0.63537353
  C  5.09723469 -0.48951249 -0.30410710
  O  3.56294312  1.54591319 -1.06093498
  C  1.66780519 -0.63033911 -2.67979013
  O  0.88778382  1.31892867 -1.46471255
  C -0.48584939  1.06924557 -1.22191923
  C -1.12732194  2.27044092 -0.58242201
  C -2.30517838  2.79302040 -1.10100488
  C -2.91150959  3.88237758 -0.50197639
  C -2.34220865  4.46807886  0.61602936
  C -1.16618560  3.95343351  1.13459881
  C -0.56532110  2.85732542  0.54197017
  H -3.85690150 -2.35701132 -1.82048894
  H -4.12638869 -3.24321880 -0.32018681
  H -2.76072898 -3.65322600 -1.35756735
  H -1.96411445 -1.32561271  1.78430048
  H -3.56467331 -0.78875351  1.28076630
  H -3.28055268 -2.49000721  1.64171565
  H -1.37043967 -1.44109069 -1.93483382
  H -0.91586665  0.10746208  0.66825039
  H  0.91065254 -1.77269257 -0.55253689
  H  2.02786991 -2.38648142  2.17906355
  H  0.72295684 -1.52583104  2.98679542
  H  0.38771801 -2.48841369  1.53975133
  H  2.31246447  0.47052036  2.68836018
  H  2.22133230  1.31924013  1.07499865
  H  5.57406310 -1.45212535 -0.47402529
  H  5.19125833 -0.20053766  0.74470270
  H  5.54789395  0.28330649 -0.92947157
  H  1.73676095  0.10863433 -3.47473775
  H  2.53341926 -1.28584652 -2.72228151
  H  0.77225453 -1.22818513 -2.82872715
  H -0.98926136  0.87609689 -2.18439154
  H -2.75084498  2.34286825 -1.97675438
  H -3.82820025  4.28373731 -0.91019629
  H -2.81240312  5.32305275  1.07935562
  H -0.71213476  4.40473086  2.00497760
  H  0.35210313  2.45844250  0.94701071
