39
opt_min/./Product_5069_opt.xyz
  O -1.67386300 -1.09879000 -3.11302500
  C -1.03483921 -0.20936953 -2.78022411
  O -0.39053846  0.67131234 -2.43940231
  C -0.46039619 -1.27248411  0.17065894
  C  0.78779574 -0.85309845  0.23087180
  C  2.70478779 -3.22489549 -0.55365185
  O  3.62964362 -2.57985336 -0.74893000
  O  1.77877052 -3.87944838 -0.39965778
  C  1.10150878 -0.31358776  1.60352177
  C  2.25453093 -1.08597197  2.26442837
  N  2.76835548 -0.47119885  3.34348579
  C  3.83945817 -1.04078599  4.12648845
  O  2.58187704 -2.19830629  1.89875158
  C  1.41408476  1.17838459  1.44388170
  O  0.66038514  2.07339657  1.70444626
  O  2.63667999  1.34435277  0.92945326
  C  3.01325492  2.68193669  0.61923115
  N -0.13764017 -0.49647259  2.35097029
  C -1.15870562 -1.10363523  1.49755787
  C -2.35700077 -0.15236580  1.38007030
  C -1.61855835 -2.51053820  1.92010789
  C -0.57018857 -3.38812573  2.54788431
  O -2.74421940 -2.88026065  1.70949181
  H -0.96753969 -1.72877284 -0.65865282
  H  1.52068588 -0.81700236 -0.55294129
  H  2.45530239  0.45711073  3.58083165
  H  4.09763972 -1.99951787  3.68087320
  H  4.71336818 -0.38884365  4.11469242
  H  3.51857079 -1.19349278  5.15827189
  H  2.22781509  3.16660463  0.03736262
  H  3.17686983  3.25281727  1.53517712
  H  3.93357464  2.61110970  0.04601706
  H -0.00132946 -0.98173855  3.22602320
  H -2.89708446 -0.33304786  0.45586857
  H -3.03814091 -0.30287650  2.21248747
  H -1.98625276  0.86811370  1.39511139
  H -0.45512448 -3.12618096  3.59939856
  H -0.89118367 -4.42511735  2.49278196
  H  0.38972714 -3.26867036  2.04973528
