31
opt_min/./Product_3938_opt.xyz
  O -3.96531400  0.78288800  0.68728100
  C -3.50051405 -0.24746697  0.50507269
  O -3.06098835 -1.28403402  0.30437706
  C -1.00059607  1.39324635 -0.26944178
  C -0.07569375  0.90240344  0.53680522
  C -0.92808610 -0.87489970  3.02195356
  O -1.99091197 -0.46050084  2.92607652
  O  0.13059146 -1.28614935  3.15237469
  C  0.94452867  0.10712757 -0.24748899
  C  2.29925206  0.81659256 -0.14347643
  C  2.98933091  1.08724244 -1.44708405
  O  2.74911372  1.14575039  0.92576615
  C  0.98897252 -1.34550468  0.28161798
  C  2.32820984 -1.89343850  0.65449180
  O -0.03264766 -1.98163489  0.32552333
  N  0.42961104  0.10070461 -1.62169713
  C -0.71685415  1.01738670 -1.70002401
  C -1.90576006  0.41208444 -2.43822787
  H -1.80963154  2.04718277 -0.00282695
  H  0.05584429  1.08448436  1.58662602
  H  4.05979420  1.18571553 -1.28630237
  H  2.61043812  2.03271471 -1.83325542
  H  2.76004597  0.31649850 -2.17499977
  H  2.75546088 -1.28819950  1.45156055
  H  2.99736146 -1.84089679 -0.20281289
  H  2.22750070 -2.92271377  0.98976311
  H  0.12192292 -0.83561201 -1.86671132
  H -0.38861288  1.92008207 -2.24052323
  H -1.67762484  0.30524827 -3.49622795
  H -2.14089499 -0.56944217 -2.03090183
  H -2.77782559  1.05314392 -2.33390434
