49
opt_min/./Product_1893_opt.xyz
  C -1.26496427  1.46665802 -2.30648887
  C -1.43527568  1.91598748 -0.89024935
  O -2.07339228  2.88694632 -0.57834674
  C -0.55359289  1.21732115  0.20128530
  C  0.49292188  2.36133928  0.15082213
  C  0.42566627  3.43027715  1.19128253
  O  1.25657232  2.42782023 -0.78339487
  C  0.04552592 -0.09304200 -0.21964384
  C -0.46698770 -1.29587245 -0.55102229
  C -1.81085564 -1.98389994 -0.42651426
  C -1.62061651 -3.46952438 -0.08272434
  F -2.40174109 -1.90780813 -1.69725139
  C -2.80757319 -1.40503924  0.58256189
  C -3.28765458  0.02417068  0.33421566
  C -2.82438236  0.98358756  1.42006912
  C -1.30055994  1.06301825  1.54583653
  C  0.71813980 -2.06428785 -1.16603035
  C  0.74924467 -3.46243319 -1.47718028
  N  0.89668279 -4.54834033 -1.80038106
  N  1.78152763 -1.59960831 -0.28502766
  C  1.54626889 -0.20850946 -0.54953429
  C  2.57007584  0.64601998  0.18072987
  O  3.63931821  0.83614681 -0.55891497
  C  4.67111722  1.63864188  0.00894595
  O  2.43369248  0.97751957  1.32921252
  O  1.61389630 -0.09826302 -2.00782614
  C  1.03190403 -1.20109844 -2.46565586
  O  0.80306885 -1.47915474 -3.59678246
  H -2.05218649  1.90061377 -2.91848506
  H -0.30151577  1.84643517 -2.65333630
  H -1.25657273  0.38777662 -2.42319967
  H  0.72787924  3.02072883  2.15286038
  H -0.58636496  3.82549750  1.25493421
  H  1.11124914  4.22695972  0.91224238
  H -0.69406842 -3.63074224  0.46120019
  H -2.43969105 -3.82590073  0.53620581
  H -1.60936129 -4.05861305 -0.99558380
  H -2.35413735 -1.48532673  1.57056270
  H -3.67174277 -2.07157247  0.55628044
  H -2.93022572  0.36198171 -0.63680210
  H -4.37898603  0.04664009  0.28897427
  H -3.23050458  1.97340471  1.20963727
  H -3.22694722  0.66864698  2.38542168
  H -0.90975662  0.16496875  2.02676965
  H -1.07434681  1.89662037  2.20383806
  H  2.71063206 -1.91180663 -0.55927952
  H  4.86962366  1.32718939  1.03619027
  H  5.54599401  1.49713345 -0.61977936
  H  4.36260758  2.68501111  0.00186163
