34
opt_min/./Product_189_opt.xyz
  C -1.87655205  2.47934780 -1.09009441
  O -0.74359905  1.76144436 -0.64968402
  C -0.94606798  0.52764140 -0.00137201
  C  0.27329478  0.27689021  0.93133764
  C  1.33498830  1.21295812  0.65322497
  N  2.20051221  1.91371246  0.39547642
  C -0.38285463  0.51365088  2.34273393
  C -1.16694166 -0.75278163  2.62725307
  C -2.20556066 -0.69106579  1.80685600
  C -2.07691134  0.62855120  1.08251581
  O -1.41225135  1.43692465  2.04455310
  C  0.74120368 -1.17078830  0.62204285
  C  2.26688714 -1.25129292  0.62458136
  C  2.96304774 -1.62841808 -0.65154967
  O  2.85957413 -1.05745978  1.65514387
  N  0.02689208 -1.61374654 -0.55688614
  C -1.03557740 -0.69497787 -0.95835229
  C -0.96936171 -0.33225599 -2.44604580
  H -2.61697716  1.82945531 -1.56683196
  H -2.33743049  3.03243419 -0.26657552
  H -1.49650040  3.19004045 -1.82410286
  H  0.29039804  0.89563731  3.10314842
  H -0.88107654 -1.50272878  3.33735704
  H -3.00009277 -1.39120123  1.64222048
  H -3.00379815  1.07112159  0.73236774
  H  0.43775648 -1.82733146  1.45541486
  H  2.75039859 -2.67377440 -0.87461760
  H  4.03463671 -1.50147884 -0.52518148
  H  2.62504015 -1.00910690 -1.48001156
  H  0.64407446 -1.81984175 -1.33026500
  H -1.99452557 -1.20032046 -0.76257763
  H -1.94575061 -0.42451025 -2.91390547
  H -0.28779773 -0.99716748 -2.97186240
  H -0.61082113  0.68605673 -2.57395874
