35
opt_min/./Product_458_opt.xyz
  C -0.00590300  1.88317500  2.33109600
  O  0.25361165  0.67000433  1.64785060
  C -0.32875546  0.44107686  0.40294941
  C -1.71634796 -0.28138141  0.41912773
 Cl -2.35427179 -0.40336887  2.08752989
  C -2.58626719  0.74417448 -0.38500170
  C -2.11120617  0.58534428 -1.81507639
  C -0.93044691  1.18518317 -1.85490625
  C -0.70158679  1.71251028 -0.45573568
  O -2.01623322  1.97724953 -0.00112412
  N -1.55997531 -1.53201467 -0.25521100
  C -2.21295162 -2.68932938  0.31614971
  N -0.18615367 -1.69151470 -0.69070176
  C  0.50813462 -2.88169041 -0.21713883
  N  0.50521803 -0.50947276 -0.27720568
  C  1.74462483 -0.22626932 -0.74896312
  O  2.45940550 -0.99199870 -1.34389726
  O  2.07603636  1.04707514 -0.43923846
  C  3.39873399  1.44768762 -0.76983832
  H  0.33408674  2.75371502  1.76720100
  H -1.06834074  2.00050042  2.55997386
  H  0.56481119  1.80150574  3.25467015
  H -3.65264854  0.71047775 -0.18574671
  H -2.63529230  0.03709264 -2.56936669
  H -0.22584420  1.26636861 -2.65699323
  H -0.04109693  2.56224436 -0.33737829
  H -2.23173470 -3.47528046 -0.43715328
  H -3.23952271 -2.40572778  0.53619805
  H -1.74516527 -3.05833497  1.23477054
  H  1.45792103 -2.90129927 -0.74928806
  H  0.70588318 -2.87631461  0.86121093
  H -0.06451586 -3.76103605 -0.49112544
  H  3.84013730  0.73078021 -1.46461989
  H  3.33529078  2.43383822 -1.22831832
  H  3.99824888  1.49511146  0.14094728
