39
opt_min/./Product_572_opt.xyz
  C -0.99288500  2.47360400  1.63870900
  C -1.48224123  1.13548345  1.16910397
  O -2.31318219  0.51506846  1.78039874
  C -0.80953182  0.56046558 -0.08894925
  C  0.12747376 -0.65392391  0.21234967
  C  0.22707038 -1.08017265  1.67560174
  F  1.26651718 -1.93686767  1.82644208
  F -0.82385584 -1.72333740  2.18502308
  F  0.45162566 -0.06171744  2.51290225
  C -0.37926101 -1.74844336 -0.75730721
  C -1.75597640 -2.31234655 -0.38114201
  C -2.69071125 -1.10285783 -0.57774711
  C -1.76378257 -0.03393248 -1.16820184
  C -0.78532409 -0.90143277 -1.97059171
  C  1.54421435 -0.14389718 -0.27147108
  C  2.64315371  0.09504271  0.78347206
  C  3.85369188 -0.77679539  0.62531363
  O  2.55962337  0.98038862  1.59012486
  N  1.33227874  1.12943618 -0.89890741
  C  0.13783144  1.52312911 -0.78852796
  C -0.31011908  2.78725828 -1.43721003
  H -1.21148382  3.25514917  0.91993757
  H -1.47742487  2.70501832  2.58441950
  H  0.08578755  2.42850227  1.78585800
  H  0.36813038 -2.52250194 -0.93483038
  H -1.99419504 -3.10885319 -1.08750823
  H -1.81941496 -2.73854072  0.61312212
  H -3.14423104 -0.78172506  0.35453128
  H -3.49115204 -1.33031700 -1.28136230
  H -2.28615229  0.73897400 -1.72894138
  H  0.02644082 -0.33987153 -2.42586910
  H -1.28598396 -1.49338523 -2.73247661
  H  1.93515750 -0.83409411 -1.02720503
  H  3.57379474 -1.82485679  0.55940803
  H  4.52852457 -0.62238348  1.46271226
  H  4.35627012 -0.49339659 -0.29869289
  H  0.18570064  3.63609826 -0.97170528
  H -1.38812027  2.90849863 -1.38610830
  H -0.00262905  2.77438878 -2.48151045
