33
opt_min/./Product_4051_opt.xyz
  C  0.66832592  1.94911703 -0.64820700
  C -0.59650769  2.39147687  0.01322326
  C -1.65619289  1.59244468 -0.02018001
  N -1.65915888  0.33872435 -0.58703749
  C -2.93910308 -0.28049585 -0.81033033
  C -0.44378934 -0.39509982 -0.83543662
  C  0.81932000  0.42971151 -0.53354309
  C  1.93460883  0.03823537 -1.53692291
  N  3.16131292  0.51494076 -1.24431530
  O  1.69173966 -0.55988809 -2.55792942
  C  1.15814455 -0.06897917  0.92823993
  C  1.73155872  0.89579388  1.80870518
  N  2.19497658  1.67364604  2.50711186
  N -0.09963798 -0.66210851  1.38120817
  C -0.27369651 -1.52491121  0.24307407
  C -1.27344500 -2.65838299  0.37820878
  O  1.04585123 -2.16283974  0.07588141
  C  1.96171287 -1.34482147  0.57611913
  O  3.12802033 -1.56242144  0.70401326
  H  0.64815967  2.20790360 -1.71479542
  H  1.53575183  2.44126683 -0.20582897
  H -0.64322428  3.37361800  0.44430709
  H -2.61542082  1.89982570  0.37387939
  H -3.61908982  0.45513152 -1.24394537
  H -3.38297760 -0.67299380  0.11288918
  H -2.84068375 -1.08554768 -1.53605671
  H -0.42155587 -0.77113575 -1.86480056
  H  3.92713568  0.19420634 -1.81853403
  H  3.40294362  0.85903284 -0.32826432
  H  0.02193102 -1.16654737  2.25863730
  H -0.71428474 -3.59120754  0.38772628
  H -1.82198100 -2.55269990  1.31259697
  H -1.97317228 -2.68922971 -0.44781461
