40
opt_min/./Product_4501_opt.xyz
  C  0.10612912  0.08397103  1.48034600
  C  1.58667338  0.39042595  1.27054151
  C  1.85898516 -0.14921841 -0.14717478
  C  2.27887082 -1.53929714 -0.10631139
  N  2.55478849 -2.64893487 -0.11669797
  C  2.95978401  0.69763883 -0.82026277
  C  4.34120544  0.50510471 -0.26912092
  O  2.69129608  1.45284349 -1.71644980
  N  0.60531080  0.01993879 -0.84996846
  C  0.45262612 -0.66899436 -2.10977442
  C -0.52729592  0.13923016  0.07528528
  C -1.13860656  1.56459142 -0.05280424
  N -0.34297719  2.43727498 -0.69236061
  C -0.75013297  3.80406140 -0.92715158
  O -2.20654693  1.85422578  0.44704759
  C -1.62441386 -0.87519962 -0.19523855
  C -2.50077037 -0.61531471 -1.24830813
  C -3.51692604 -1.49457704 -1.57157301
  C -3.68115148 -2.66094834 -0.84431000
  C -2.82051086 -2.92911444  0.20406776
  C -1.80428838 -2.04507060  0.52843187
  H -0.37411693  0.79994613  2.14583060
  H  0.00488021 -0.90747897  1.91796004
  H  1.78395165  1.46247743  1.30189969
  H  2.20681672 -0.10583918  2.01657323
  H  4.32996901  0.28022190  0.79248376
  H  4.94442324  1.38730863 -0.46851989
  H  4.79496472 -0.33995777 -0.78860352
  H  0.08399075 -1.69711016 -2.00391234
  H  1.41920472 -0.69837140 -2.61080339
  H -0.23680715 -0.11391215 -2.74454361
  H  0.47222036  2.07479682 -1.17151107
  H -1.79156021  3.83222978 -1.25042060
  H -0.11417995  4.24470966 -1.68932595
  H -0.67095548  4.38732872 -0.00687516
  H -2.40043283  0.29952528 -1.81389468
  H -4.18183569 -1.26473837 -2.39061103
  H -4.47101376 -3.35299576 -1.09282104
  H -2.93774155 -3.83299682  0.78431498
  H -1.15693854 -2.30804597  1.35150225
