33
opt_min/./Product_191_opt.xyz
  C  4.71071297 -0.02254656  0.48655026
  N  3.26841441 -0.02235253  0.44504266
  C  2.59032929  0.07356893 -0.71733995
  O  3.13256287  0.13271789 -1.80638916
  C  1.10975786  0.09124162 -0.60368875
  C  0.31586506  0.42370301  0.43143095
  C  0.72168545  0.78098237  1.72363188
  N  1.09651050  1.06842374  2.77132639
  C -1.13385001  0.33689083  0.01331689
  C -1.94580970  1.64519252  0.20354188
  C -1.80355648  2.33690929  1.51617367
  O -2.65072796  2.02476816 -0.69674723
  C -1.88920579 -0.70449870  0.89107083
  C -2.76026409 -1.63331590  0.11951783
  O -1.78049367 -0.68275794  2.08867703
  N -1.10478801 -0.05029967 -1.38378531
  C  0.27341019 -0.26334505 -1.80379593
  C  0.50405362 -1.72902533 -2.19762015
  H  5.07495603 -0.92809252  0.97369057
  H  5.07230580  0.01094943 -0.53976759
  H  5.07646889  0.85084767  1.02942056
  H  2.77800000 -0.06498328  1.32424780
  H -0.84595767  2.85845375  1.54217750
  H -2.60091131  3.06768400  1.63296129
  H -1.81462281  1.62352700  2.33744709
  H -3.54563903 -1.04796097 -0.35858244
  H -2.18782254 -2.10844596 -0.67083286
  H -3.20493677 -2.36761038  0.78703436
  H -1.59537106  0.63884764 -1.94470499
  H  0.55399235  0.36607148 -2.65631279
  H  1.52665499 -1.85581056 -2.53909623
  H -0.17771912 -1.99854002 -2.99882000
  H  0.32630222 -2.38326570 -1.34655373
