44
opt_min/./Product_823_opt.xyz
  F  1.49098700 -2.95450300 -0.69818200
  C  1.04666815 -1.94593584  0.05557628
  C  1.67623221 -0.85066914  0.49273774
  C  3.04087552 -0.38976622  0.31248357
  C  3.80774784 -0.87632587 -0.74893691
  C  5.10782770 -0.44430819 -0.92399416
  C  5.66397388  0.47494562 -0.05019048
  C  4.91198931  0.96162121  1.00555766
  C  3.60951996  0.53619900  1.18721288
  C  0.55356592 -0.09424506  1.20296209
  C -0.31259900  0.51320065  0.06330590
  C -0.98838412 -0.75376476 -0.49195092
  C -0.40168391 -1.83185873  0.47634384
  O -0.27496055 -1.13341118  1.69650094
  C -2.50993984 -0.49054696 -0.34170393
  C -3.20386476 -1.74258738  0.22640576
  C -3.44034436 -1.74015147  1.70383281
  O -3.51215259 -2.65639021 -0.49768351
  C -3.14513416 -0.13528479 -1.70201555
  O -2.62903791  0.57006146  0.58094749
  C -1.48524087  1.41777929  0.53188963
  C -1.32385113  2.01312459  1.92885386
  C -1.70015846  2.55554683 -0.48362946
  H  3.37933370 -1.58957247 -1.43445660
  H  5.69111002 -0.82648590 -1.74894640
  H  6.68116373  0.80980853 -0.19020322
  H  5.34364047  1.67494220  1.69223401
  H  3.03491208  0.90955245  2.02093844
  H  0.85598686  0.58257767  1.99185987
  H  0.31589309  1.03830125 -0.65499254
  H -0.73379072 -1.00510905 -1.51951272
  H -0.96042661 -2.75576785  0.58208452
  H -4.36373566 -1.19032645  1.88734681
  H -2.63353452 -1.23098670  2.22204690
  H -3.56293371 -2.75937627  2.06428299
  H -3.85298677  0.67729718 -1.55595963
  H -2.39985816  0.17858000 -2.42914862
  H -3.67207428 -1.00434921 -2.09247731
  H -2.18622869  2.63831365  2.14514687
  H -0.42391126  2.62020755  1.98922453
  H -1.28261943  1.21765162  2.66878437
  H -2.72175640  2.92010406 -0.39426662
  H -1.54825114  2.21403593 -1.50371818
  H -1.01242730  3.37214205 -0.27673101
