59
opt_min/./Product_2926_opt.xyz
  C -0.41991200  2.70136900  3.01468600
  O -0.99132888  3.01304553  1.75629000
  C -1.55742526  1.95926429  1.03820022
 Br -2.10465533  2.94232211 -0.65953409
  C -0.48658629  1.02951239  0.52019582
  C -0.18419338 -0.27216926  0.30644360
  C -0.95643494 -1.56375981  0.25143751
  C -2.14897855 -1.56882583 -0.74919819
  C -2.14550445 -0.61179952 -1.91156940
  O -3.01804228 -2.39458076 -0.62249041
  C -0.11885562 -2.79228152 -0.25321288
  C  0.11020212 -2.92922773 -1.72884169
  O  0.18935185 -3.66833299  0.50859622
  C -1.48275996 -1.97235861  1.65594705
  C -1.98604042 -0.77026080  2.43439930
  C -3.04842634 -0.01939350  1.62902759
  C -2.85944875  1.47867915  1.71043368
  C  1.30477064 -0.26445397 -0.13424119
  C  2.18644309 -1.42039525  0.20538638
  C  3.01675767 -2.01993512 -0.73132996
  C  3.85937230 -3.04688835 -0.34097199
  C  3.88782342 -3.46488562  0.97753865
  C  3.08585668 -2.84154292  1.91885736
  C  2.24260787 -1.81694584  1.53738479
  C  1.19644432  0.30737605 -1.57490281
  O  1.40549538 -0.21034280 -2.62901719
  O  0.80877616  1.56980881 -1.39695554
  C  0.81148903  1.76605017  0.06682987
  C  1.19600776  3.22759862  0.39536468
  N  1.01739082  4.06472298 -0.63175738
  C  1.35129492  5.46458197 -0.54227070
  O  1.70919958  3.51228180  1.45197827
  O  1.80976792  0.91770284  0.48989901
  H -1.13406604  2.21505340  3.68516808
  H -0.12342256  3.66152717  3.42761063
  H  0.46906333  2.07567974  2.90228055
  H -1.33666950  0.10811684 -1.89469488
  H -3.09406408 -0.07477838 -1.92974278
  H -2.10326678 -1.18780729 -2.83435862
  H -0.63606888 -3.63434314 -2.09881687
  H  0.04152133 -2.00502800 -2.28597456
  H  1.08536714 -3.38235337 -1.89254495
  H -2.29246312 -2.68670586  1.49962656
  H -0.67508109 -2.46957791  2.19236429
  H -1.13479575 -0.11869670  2.64103348
  H -2.39210443 -1.07769862  3.39845055
  H -2.96494258 -0.26678472  0.57330340
  H -4.04934896 -0.31107750  1.94536191
  H -3.70562281  1.98071513  1.24106201
  H -2.82933163  1.80351540  2.75177494
  H  3.00782738 -1.68381440 -1.75604639
  H  4.49571332 -3.52061949 -1.07347134
  H  4.54296739 -4.26970473  1.27501915
  H  3.11596837 -3.15485100  2.95113897
  H  1.62340501 -1.31835582  2.26803919
  H  0.59565206  3.73083136 -1.48526761
  H  0.44790590  6.07547104 -0.58525815
  H  2.01418226  5.74436144 -1.36108275
  H  1.85434731  5.62727239  0.40926015
