43
opt_min/./Product_4601_opt.xyz
  C -3.52909398 -0.71920900  2.40093103
  C -2.81672967 -0.53916668  1.09486984
  C -3.69824805 -0.49745703 -0.12210291
  C -1.49680055 -0.39237225  1.05641791
  C -0.64931096 -0.17774789 -0.15765307
  C  0.35516802  0.98692032  0.02267502
  C  0.14062070  2.14063014 -0.93158889
  C  1.33969677  2.95200209 -1.30803836
  C -1.06832070  2.48849621 -1.34653978
  C  1.75357775  0.30392872 -0.04565701
  C  2.76863962  0.90791984  0.90436818
  O  3.65421111 -0.00129081  1.30433390
  C  4.68858489  0.44623502  2.17207636
  O  2.77877226  2.05861887  1.25979934
  N  1.55690991 -1.11262353  0.21320840
  C  0.28041465 -1.42584526 -0.40490383
  C -0.27248362 -2.64263992  0.13927346
  N -0.69314552 -3.61048050  0.57908826
  C  0.46270967 -1.62330757 -1.92766826
  C -0.75999813 -2.10514851 -2.65758925
  O  1.50737233 -1.39478941 -2.47092911
  H -4.28286422 -1.50020170  2.32161082
  H -4.03529500  0.20772131  2.67488517
  H -2.83632208 -0.98280781  3.19592082
  H -3.35993430 -1.20026755 -0.88138388
  H -3.70046313  0.49944789 -0.56313507
  H -4.72086922 -0.74942783  0.14263446
  H -0.94299263 -0.44247788  1.98735958
  H -1.26978409 -0.01511956 -1.03753784
  H  0.25513349  1.39860906  1.03766488
  H  2.09459892  2.35228408 -1.81409003
  H  1.05361226  3.77125036 -1.96164601
  H  1.80266443  3.35680811 -0.40942608
  H -1.96864291  1.97963528 -1.05018153
  H -1.20898200  3.33573443 -1.99684012
  H  2.15682300  0.37538510 -1.06447285
  H  5.08449767 -0.44168198  2.65827424
  H  4.28717196  1.14914468  2.90536442
  H  5.46877803  0.94411240  1.59345636
  H  1.49383230 -1.28062700  1.21480830
  H -1.01001004 -1.40328245 -3.45192188
  H -1.61126427 -2.24640180 -1.99871341
  H -0.51947110 -3.05713834 -3.13063985
