52
opt_min/./Product_2122_opt.xyz
  N -0.17018057 -1.39718974  5.57160079
  C  0.36470729 -1.13359589  4.59110556
  C  1.00207235 -0.81671456  3.38860723
  C  1.95213850  0.08254690  3.11268495
  C  2.15645565 -0.01100143  1.61957125
  C  0.91840772  0.69802540  0.98002889
  C -0.20074522 -0.29767371  1.35481342
  C  0.64540295 -1.42619110  2.03164167
  O  1.87759711 -1.37462929  1.35289701
  C -0.92912720 -0.65748900  0.04537873
  C -1.05000345 -2.18130799 -0.08452226
  O -1.63299675 -2.88449101  0.69862372
  O -0.45354824 -2.64054789 -1.18439955
  C -0.43230582 -4.05581466 -1.33596078
  C -2.33544595 -0.08277754 -0.07301751
  C -3.19004454 -0.65465122 -1.01226986
  C -4.45493322 -0.14034643 -1.22735190
  C -4.88246422  0.96788520 -0.51685365
  C -4.02989066  1.56177745  0.39504300
  C -2.76491116  1.04388610  0.61433529
  N -0.10461684 -0.13798402 -1.04966426
  C  0.95117363  0.73146204 -0.56889577
  C  0.68896251  2.17239819 -1.07598204
  N  1.66214492  3.04098860 -0.77963292
  C  1.61061486  4.41529605 -1.22627630
  O -0.33562014  2.44114125 -1.67314266
  C  2.31039463  0.26182447 -1.12531237
  O  3.32898219  0.92524386 -0.96530567
  N  2.24761003 -0.88370340 -1.79475507
  C  3.40670300 -1.54750163 -2.33110732
  H  2.45507986  0.77429855  3.75854651
  H  3.12686629  0.29190172  1.24043339
  H  0.77852690  1.69526616  1.39764663
  H -0.91213072  0.08128363  2.08784380
  H  0.21647544 -2.42219997  2.04956745
  H -1.44361952 -4.45956334 -1.26248343
  H -0.00964818 -4.24597520 -2.31879720
  H  0.18478368 -4.50604018 -0.55635374
  H -2.85906345 -1.50685186 -1.58747886
  H -5.10477797 -0.60341806 -1.95413387
  H -5.86967176  1.37175401 -0.68268649
  H -4.34473386  2.43923173  0.93980390
  H -2.11571158  1.55016720  1.31259465
  H -0.69232539  0.40422096 -1.68680766
  H  2.55257971  2.64252353 -0.49873086
  H  1.20442673  5.05637718 -0.44026869
  H  2.60987902  4.75466687 -1.48610944
  H  0.95752887  4.48410553 -2.09679597
  H  1.34523758 -1.35047083 -1.79110292
  H  4.23484888 -0.84021084 -2.32316471
  H  3.21066082 -1.87131241 -3.35299881
  H  3.67297500 -2.41391864 -1.72181028
