45
opt_min/./Product_1767_opt.xyz
  C -2.87750601 -3.79021601  0.17432998
  C -1.61832152 -2.97704613  0.23624154
  O -0.51744342 -3.47033770  0.29194299
  C -1.76618987 -1.50497195  0.28475561
  C -2.75979610 -0.62631578  0.08709596
  C -4.03882206 -0.67611774 -0.67358930
  F -5.11504293 -0.58858784  0.12787806
  F -4.11918421  0.36579421 -1.52166960
  F -4.20134638 -1.77621051 -1.41525550
  C -2.23589727  0.71846122  0.58513381
  C -1.21534892  1.26443889 -0.43150822
  C -0.19853946  0.10600810 -0.46783964
  C -0.62885878 -0.63314441  0.84524356
  O -1.35577580  0.30239816  1.61100091
  C  1.14348834  0.81677757 -0.77782029
  C  1.11796224  0.89963616 -2.23682209
  N  1.03554993  1.06944226 -3.36546499
  C  2.42758914  0.17907764 -0.28151219
  C  2.57665098 -0.12723828  1.06544385
  C  3.75447353 -0.69087887  1.52061657
  C  4.79347442 -0.94879778  0.64246489
  C  4.65900639 -0.61579873 -0.69323827
  C  3.48407123 -0.04677864 -1.15431686
  N  1.00186957  2.19232429 -0.28171501
  C -0.35801514  2.42106561  0.16822325
  C -0.30197864  2.44856176  1.72081128
  C -1.41477189  3.22891745  2.37746960
  O  0.63919898  2.02278257  2.32937351
  H -2.69551579 -4.75339608  0.64645428
  H -3.12085428 -3.96772885 -0.87309256
  H -3.71714977 -3.29286147  0.64869500
  H -3.00149243  1.39604836  0.95468196
  H -1.59441496  1.55406362 -1.40961396
  H -0.38417279 -0.60112320 -1.28442271
  H  0.12198789 -1.14257857  1.43644728
  H  1.80160388  0.13368594  1.76617203
  H  3.86549977 -0.92182865  2.56952558
  H  5.71169532 -1.39261796  0.99751337
  H  5.47061475 -0.79498736 -1.38292095
  H  3.39203409  0.20922942 -2.20007318
  H  1.33280571  2.86562215 -0.96082350
  H -0.74763461  3.38909210 -0.16052493
  H -1.68256196  2.75889076  3.32023778
  H -1.02406200  4.22211349  2.59588872
  H -2.29010201  3.33053982  1.74430378
