38
opt_min/./Product_1328_opt.xyz
  F -1.30883600  1.41284000 -1.31213000
  C -0.72553189  0.86045180 -0.21243400
  C  0.80371717  0.59264490 -0.30104668
  C  1.41902292  0.59386465 -1.68766257
  F  2.75592465  0.71269221 -1.64805993
  F  1.16065899 -0.54443851 -2.34771043
  F  0.99632436  1.59991280 -2.45538114
  C  1.36187463  1.70331427  0.65794082
  C  1.02390900  3.03582722  0.03025654
  C -0.27760375  3.19759883  0.22878168
  C -0.72065804  1.93923010  0.94941790
  O  0.41819224  1.59979865  1.70485112
  C  0.87383609 -0.74878788  0.41930890
  C  2.13253172 -1.42228354  0.84735169
  O  3.20638992 -0.70384237  0.51330184
  C  4.46528244 -1.26134471  0.87290093
  O  2.16830284 -2.47136773  1.42907065
  N -0.24245003 -1.26684596  0.70854949
  C -1.32662284 -0.52666836  0.14868162
  C -1.78654913 -1.38691186 -1.08647384
  C -1.93171585 -2.83663722 -0.76027897
  O -2.01568978 -0.89391525 -2.14919792
  C -2.58641878 -0.46305162  1.03436485
  C -3.69142236  0.36859906  0.44206845
  O -2.66992259 -1.06652170  2.06344095
  H  2.37793156  1.53043142  0.99612647
  H  1.71919317  3.65886083 -0.49381373
  H -0.92963777  3.98161499 -0.09360317
  H -1.60683039  1.97667691  1.57189836
  H  5.21386729 -0.53705437  0.56803549
  H  4.61196143 -2.21229882  0.36065698
  H  4.50323572 -1.43238317  1.95301947
  H -1.36541187 -3.41615987 -1.48792421
  H -2.98023277 -3.11030132 -0.87725103
  H -1.59370406 -3.06317793  0.24497598
  H -3.67865959  0.33651809 -0.64342063
  H -3.57572053  1.40890640  0.74248573
  H -4.64586330  0.01634032  0.82607388
