42
opt_min/./Product_1718_opt.xyz
  F  0.19021718 -1.98272807 -2.12612463
  C  1.08167126 -1.58572297 -1.20546046
  F  2.17026517 -2.34282882 -1.39614461
  F  1.41677940 -0.33889702 -1.58117278
  C  0.59333572 -1.69078601  0.23624133
  C -0.84033229 -1.13552294  0.51929851
  C -1.40261139 -0.21827122 -0.53848130
  C -2.44996983 -0.59302312 -1.36809836
  C -2.94550546  0.28211127 -2.31836143
  C -2.40218568  1.54615439 -2.45600491
  C -1.35503612  1.92902902 -1.63808463
  C -0.86000703  1.05719325 -0.68580294
  C -1.59384142 -2.47136040  0.86298408
  C -1.64251433 -3.39966308 -0.33130747
  C -0.40862877 -3.86533835 -0.46425999
  C  0.37936301 -3.20246901  0.64665141
  O -0.59322517 -3.08818936  1.66841427
  C -0.66355146 -0.40282901  1.89677284
  C -1.51354048  0.75793385  2.04949546
  N -2.21680591  1.63990952  2.22955034
  N  0.73874308 -0.10035561  2.07464136
  C  1.55405191 -0.93718012  1.22412863
  C  2.67997831 -0.13382473  0.51243188
  O  2.39251197  1.16149890  0.47225984
  C  3.35469829  1.99468275 -0.16926189
  O  3.69144494 -0.63241951  0.11200981
  C  2.29390446 -1.85533893  2.09591875
  N  2.88090892 -2.52004467  2.81353593
  H -2.89238115 -1.56858119 -1.27158604
  H -3.76150835 -0.03147220 -2.95223997
  H -2.79116803  2.22846824 -3.19694721
  H -0.91560927  2.91006025 -1.73545167
  H -0.02384548  1.37682708 -0.08458192
  H -2.52337526 -2.32145726  1.40590140
  H -2.52252039 -3.64364574 -0.89056055
  H  0.00723955 -4.52262772 -1.20033776
  H  1.27456312 -3.70793079  0.99496502
  H -0.95546196 -1.10529020  2.69947663
  H  0.97290457  0.88284079  2.01974397
  H  3.03160425  3.01687334  0.00913997
  H  3.36908436  1.77445305 -1.23787223
  H  4.34380218  1.81283825  0.25279059
