86
opt_min/./Product_3214_opt.xyz
  C  3.39693632  4.85663422 -0.51628785
  N  2.56794184  4.00479480  0.30477359
  C  1.63982105  3.21014771 -0.24841980
  O  1.45277316  3.14046310 -1.44546804
  C  0.61058519  2.52317738  0.68408314
 Br  1.07558026  2.73843338  2.61319355
  C  0.63555476  0.99054039  0.39747735
  C -0.23366066 -0.03647637  0.18693535
  C -1.77790898  0.00472833  0.26010442
  C -2.38524723 -0.24750646 -1.11216571
  C -2.04268746  0.59392055 -2.17012247
  C -2.54237458  0.38932828 -3.44232986
  C -3.39758971 -0.66707691 -3.69805578
  C -3.75308168 -1.50799882 -2.66040910
  C -3.25398318 -1.29987129 -1.38437232
  C -2.35069837 -0.78042745  1.42194888
  C -3.73221013 -0.88984790  1.55807557
  C -4.28717083 -1.50693624  2.66512997
  C -3.47518846 -1.98818002  3.67747980
  C -2.10685892 -1.80547209  3.59185708
  C -1.55275273 -1.18876919  2.48497962
  C -1.87139536  1.46918151  0.67876184
  C -2.89801476  2.55879266  0.84715183
  C -1.89858593  3.69072127  1.20408325
  C -0.53140671  3.62034026  0.46736962
  C  0.50663023 -1.31234579 -0.22327165
  C  0.33259727 -1.42934823 -1.76880679
  N  0.12063736 -2.66022230 -2.26435919
  C -0.05332498 -2.88384175 -3.68036507
  O  0.51467449 -0.45839356 -2.47366263
  C  0.13866372 -2.57824541  0.53594020
  C -1.06657322 -3.23710736  0.30376338
  C -1.40099932 -4.38122922  1.00441107
  C -0.52922208 -4.90004206  1.94498429
  C  0.68236819 -4.27041243  2.16468841
  C  1.01889117 -3.12673823  1.46216253
  N  1.91058418 -1.00076460  0.00289520
  C  2.89672327 -1.59315242 -0.85986740
  C  2.04563004  0.35208385  0.53372508
  C  2.17298295  0.03132566  1.96609617
  N  2.19591901 -0.41062922  3.02321660
  C  3.26244734  1.06947026  0.01330224
  C  4.27573039  1.46135426  0.88275647
  C  5.43815873  2.02738341  0.38928965
  C  5.60497879  2.19423414 -0.97524410
  C  4.59226573  1.81790671 -1.84243417
  C  3.42481418  1.25919234 -1.35523964
  H  2.83034433  5.72799454 -0.85272803
  H  3.73077127  4.30221599 -1.39303450
  H  4.25905434  5.18292344  0.05832842
  H  2.72257764  3.99525768  1.30161190
  H -1.35033627  1.40712045 -2.02647431
  H -2.24487809  1.05587664 -4.23771802
  H -3.78257381 -0.83389447 -4.69374535
  H -4.42478565 -2.33634101 -2.83563210
  H -3.57958178 -1.96861137 -0.60242709
  H -4.38124378 -0.47751054  0.80024666
  H -5.36165344 -1.59504770  2.74091332
  H -3.90928640 -2.47465593  4.53850113
  H -1.45736550 -2.12701495  4.39196202
  H -0.48564002 -1.02982324  2.45846267
  H -1.33756533  1.47666423  1.63240067
  H -1.28869967  1.88826114 -0.12117719
  H -3.43567509  2.76508471 -0.07877948
  H -3.60464690  2.40590694  1.66271777
  H -1.71374367  3.66472656  2.28099983
  H -2.31612657  4.67135262  0.96931482
  H -0.71216756  3.68562621 -0.60941551
  H -0.02211900  4.55012167  0.75146009
  H  0.00203586 -3.43961096 -1.63593535
  H -1.11098094 -2.84250385 -3.95368159
  H  0.35293122 -3.85609055 -3.95256927
  H  0.47217994 -2.09485150 -4.21596940
  H -1.75062786 -2.84458809 -0.42777210
  H -2.34856231 -4.86267395  0.81158552
  H -0.79269932 -5.78957973  2.49715787
  H  1.37460352 -4.66706038  2.89156509
  H  1.96206576 -2.64385847  1.65679456
  H  2.87792295 -1.23570111 -1.89513429
  H  3.88733172 -1.40579162 -0.44501179
  H  2.72895831 -2.67301984 -0.86140534
  H  4.15816996  1.31928120  1.94784454
  H  6.21847230  2.32433188  1.07393270
  H  6.51884011  2.62561489 -1.35696385
  H  4.70781762  1.95874780 -2.90683623
  H  2.62503438  1.00386869 -2.03402213
