45
opt_min/./Product_5454_opt.xyz
  C -1.75860200  0.18163100  0.45185900
  C -0.91664154  0.71724974 -0.71033594
  C  0.23073660 -0.21770457 -1.14778629
  N  0.17100648 -1.56923907 -0.66670452
  C  1.04314905 -2.52187418 -1.32417967
  C -0.99199807 -2.06501871 -0.14534646
  C -1.96525753 -1.30260939  0.37414351
  C -3.24338235 -1.79026276  0.91095066
  N -3.41299125 -3.14198158  1.01232893
  O -4.11983133 -1.03206869  1.28475168
  C  1.49436104  0.59701855 -0.58597973
  C  2.68995940 -0.19826896 -0.19548454
  C  3.76558001 -0.38035642 -1.05673895
  C  4.84137571 -1.15400303 -0.65513464
  C  4.85053905 -1.74654015  0.59671486
  C  3.78039665 -1.56159913  1.45500316
  C  2.70138281 -0.79129615  1.06323772
  C  1.57898029  1.68630153 -1.66265018
  O  2.29425669  1.78749715 -2.61250336
  O  0.55947711  2.51448370 -1.37981653
  C -0.08729676  1.94059196 -0.21209107
  C -0.84330728  3.00717047  0.58838039
  N -1.18253403  4.07494966 -0.14962807
  C -1.90673270  5.18977759  0.41178115
  O -1.10571153  2.85648471  1.75783332
  O  0.94719993  1.35050943  0.49007613
  H -1.25015014  0.41639018  1.39189019
  H -2.72700361  0.68238237  0.48244131
  H -1.54977979  0.98153074 -1.55877296
  H  0.30930995 -0.23965047 -2.24573793
  H  1.79200089 -2.00230664 -1.91484763
  H  0.47680330 -3.18574372 -1.98530802
  H  1.56299433 -3.12601459 -0.57924986
  H -1.03293324 -3.14570703 -0.16783199
  H -2.79776086 -3.80247375  0.58129365
  H -4.31282142 -3.45377343  1.33159719
  H  3.76551628  0.08739955 -2.02832761
  H  5.67759541 -1.28760474 -1.32535287
  H  5.69503507 -2.34568703  0.90303920
  H  3.78110980 -2.01572527  2.43462122
  H  1.86342929 -0.63066363  1.72180720
  H -0.84726662  4.13538736 -1.09748018
  H -1.90213195  5.08456755  1.49494769
  H -1.43241262  6.12740902  0.12826971
  H -2.94171098  5.18810175  0.06412205
