38
opt_min/./Product_1861_opt.xyz
  C -3.66916100  1.73422600 -2.21987300
  N -2.67320925  1.82843677 -1.17530194
  C -1.88414687  0.78930773 -0.88720691
  O -1.92411902 -0.29100887 -1.42872796
  C -0.86886128  1.06587687  0.25372670
 Cl -1.72636358  1.85213333  1.60645165
  C  0.40604024  1.82142280 -0.21172764
 Cl  0.77117385  3.22764429  0.83603341
 Cl  0.20769912  2.46985778 -1.84992060
  C  1.53520911  0.75302812 -0.05557752
  C  2.82329009  1.30498297  0.64414261
  N  3.05211579  0.72700530  1.82507241
  C  4.23424276  1.00897707  2.60396288
  O  3.50198956  2.15553867  0.12186007
  C  2.11449750  0.11399134 -1.34560153
  O  1.80387859  0.36453581 -2.46937730
  O  3.01185028 -0.78155336 -0.96971235
  C  3.66412613 -1.51067174 -2.00742788
  N  0.96498979 -0.33568944  0.66443005
  C -0.28917927 -0.21656876  0.79358206
  C -1.10853784 -1.28995743  1.42329296
  O -0.64410126 -2.29063520  1.89911312
  O -2.40370635 -0.99450492  1.39046034
  C -3.27984773 -1.98843383  1.90521376
  H -4.43040188  1.00266721 -1.94356271
  H -4.12724089  2.70680608 -2.36611017
  H -3.20043853  1.40050838 -3.14620695
  H -2.53682149  2.70787812 -0.70478773
  H  2.47393498 -0.05772253  2.09370945
  H  4.92835958  0.16695495  2.57477584
  H  3.95410387  1.20733548  3.63776548
  H  4.71652878  1.88607691  2.17909906
  H  3.96154207 -2.46085715 -1.57227495
  H  2.98447121 -1.66345113 -2.84715159
  H  4.53864680 -0.95401930 -2.34661129
  H -3.08192849 -2.15198751  2.96674671
  H -3.13720955 -2.92823334  1.36917224
  H -4.28771522 -1.61045161  1.75819675
