31
opt_min/./Product_3849_opt.xyz
  C -3.15989500 -1.03857400 -0.59830900
  C -2.44708059  0.09054851  0.14135830
  C -3.42017768  0.83675694  1.04955884
  C -1.11473617 -0.34881567  0.83931049
  C -0.88198317 -1.83655781  0.70743497
  O -1.11059264 -2.63420865  1.57090370
  C -0.10159039  0.45410318 -0.01255032
  C  1.35055049  0.11679896 -0.04669316
  C  1.92437158 -0.80240144  0.81886251
  C  3.28458808 -1.05499056  0.75328226
  C  4.07388389 -0.39233770 -0.17027102
  C  3.50336071  0.53240397 -1.02848744
  C  2.14711956  0.79219571 -0.96561556
  C -0.40501548  1.92867171  0.37823194
  O  0.18461422  2.66155772  1.10291800
  O -1.55079639  2.20807947 -0.26320021
  N -1.94936444  0.99925934 -0.92449935
  O -0.74109317  0.44983073 -1.29399142
  H -2.54711545 -1.40735588 -1.41860517
  H -4.08727519 -0.65817483 -1.01813641
  H -3.38107859 -1.85947621  0.07987561
  H -4.19797197  0.16123311  1.39440052
  H -3.88183353  1.64691063  0.48833333
  H -2.92259759  1.26820322  1.91607055
  H -1.10717230 -0.09110168  1.90022287
  H -0.52109977 -2.14094648 -0.29329573
  H  1.32570335 -1.31484767  1.55613215
  H  3.72384959 -1.77269744  1.42925452
  H  5.13377475 -0.59268184 -0.21827573
  H  4.11472344  1.05802557 -1.74602049
  H  1.69698476  1.50949728 -1.63449152
