47
opt_min/./Product_5065_opt.xyz
  C  5.76532700 -0.39250100  1.09306600
  C  4.67242619 -0.35466184  0.06328498
  C  5.02768703 -0.76605517 -1.33549060
  C  3.44132520  0.03884095  0.41212988
  C  2.29794244  0.11962606 -0.46124214
  C  1.09502806  0.51821170 -0.04856956
  C -0.12031115  0.58694161 -0.93450679
  C  0.13509979  1.42538363 -2.19363774
  C -0.66453599 -0.82067710 -1.28782496
  C -2.12707101 -0.80728665 -0.77381605
  C -3.16213391 -0.81199401 -1.91491953
  C -4.59076463 -0.85474149 -1.46298832
  O -2.83018397 -0.71386980 -3.06332130
  C -2.34114932 -1.98382151  0.16978532
  O -2.52321928 -3.11644539 -0.18898988
  O -2.26294808 -1.60326210  1.44357581
  C -2.38351833 -2.63521612  2.41483460
  N -2.32938924  0.45511755 -0.09633983
  C -1.28809492  1.17562594 -0.18448912
  C -1.25196976  2.54337985  0.42617865
  N -2.38021084  2.83092488  1.10063093
  C -2.58289703  4.08827704  1.77411583
  O -0.31606107  3.30876857  0.30013228
  H  6.04283320  0.62139417  1.38544806
  H  5.43551483 -0.91356271  1.99169509
  H  6.65447805 -0.89001695  0.71360264
  H  4.66699241 -0.03506395 -2.05784341
  H  6.10476193 -0.85727988 -1.45394938
  H  4.57390439 -1.72777769 -1.58056656
  H  3.26046465  0.32720759  1.44027603
  H  2.44141869 -0.17122849 -1.49261748
  H  0.94836910  0.79673064  0.98680456
  H  0.88217840  0.94588535 -2.82017366
  H  0.48618421  2.41317471 -1.90514513
  H -0.78523396  1.52475129 -2.76778408
  H -0.65703035 -1.00233544 -2.36213420
  H -0.08885164 -1.60194182 -0.79075911
  H -5.03718473  0.12066967 -1.65827055
  H -4.68276558 -1.09046159 -0.40814800
  H -5.12653625 -1.58812726 -2.06310487
  H -2.44647511 -2.13797487  3.37958459
  H -1.50990233 -3.28950348  2.37843025
  H -3.27793971 -3.23139829  2.22535772
  H -3.09042382  2.11534323  1.12995353
  H -2.21654648  4.04674588  2.80446347
  H -3.64204681  4.33882435  1.77967411
  H -2.02160760  4.85636181  1.24148122
