51
opt_min/./Product_2281_opt.xyz
  N  2.02987894 -4.57736606  1.48560379
  C  1.97961713 -3.69844502  0.75044517
  C  1.91297379 -2.58138065 -0.08549752
  C  2.87072778 -1.87455587 -0.69810490
  F  4.17850057 -2.06632098 -0.73654459
  C  2.19708533 -0.63964439 -1.25957957
  C  1.92285685  0.20050023  0.03571809
  C  0.70842243 -0.55484833  0.60703990
  C  0.64447405 -1.76460441 -0.35424598
  O  0.92804004 -1.15588045 -1.59597072
  C -0.48582178  0.43324155  0.43932725
  C -1.20149821  0.76418923  1.77543822
  N -1.39291602 -0.28092409  2.61819532
  C -2.07968616 -0.09560375  3.87841012
  O -1.57850778  1.87859914  2.03841117
  C -1.54757018 -0.04565984 -0.54827221
  C -2.43428818 -1.06673532 -0.22293473
  C -3.38382273 -1.48940775 -1.13640542
  C -3.46398757 -0.89606054 -2.38371073
  C -2.59121396  0.12628684 -2.70678418
  C -1.64187567  0.55520048 -1.79650725
  O  0.05259506  1.65767418 -0.04214386
  C  1.44276686  1.64760530 -0.13817956
  C  1.87567363  2.23083106 -1.51843029
  O  1.08129353  2.45552106 -2.39531190
  N  3.21039131  2.37706422 -1.62653351
  C  3.80956048  2.97382925 -2.79975717
  C  2.06262911  2.52552607  0.96348708
  O  3.26061903  2.57306032  1.15417617
  O  1.16378546  3.22066892  1.60700241
  C  1.61293942  4.11048663  2.61963196
  H  2.65249737 -0.12530217 -2.09784379
  H  2.81616047  0.18094247  0.67057389
  H  0.85023338 -0.82085800  1.65410446
  H -0.28108280 -2.32864811 -0.39723157
  H -1.06682064 -1.20550363  2.39543359
  H -2.90091484  0.60735305  3.73093237
  H -2.46896815 -1.04989803  4.22507941
  H -1.40705428  0.32231503  4.63250568
  H -2.40730283 -1.54000183  0.74898216
  H -4.06512495 -2.28492836 -0.86534559
  H -4.20551521 -1.22879174 -3.09461310
  H -2.64403918  0.59871756 -3.67768281
  H -0.96504473  1.35251708 -2.05840678
  H  3.77622808  2.34336662 -0.78605645
  H  4.67693276  2.38888921 -3.10620667
  H  3.06219659  2.97655818 -3.59296291
  H  4.12485134  4.00192210 -2.60269785
  H  2.18802988  4.92522671  2.17468368
  H  2.24181035  3.58084640  3.33926006
  H  0.71325021  4.49070897  3.09659151
