45
opt_min/./Product_2650_opt.xyz
  C  4.32445136 -0.77595035 -1.10652579
  N  2.99110503 -1.21628067 -0.75338490
  C  2.23695064 -0.46834521  0.06814759
  O  2.66366797  0.50716412  0.64831629
  C  0.78597869 -0.96082226  0.35142151
 Br  0.65856567 -0.60704225  2.32240685
  C -0.19157149 -0.05160141 -0.34196558
  C -1.53580937 -0.02988822 -0.35051878
  C -2.62722607 -0.87515394  0.21197781
 Cl -3.84160449  0.27762776  0.93639373
 Cl -3.43325709 -1.64384558 -1.22034907
  C -2.38537003 -1.94255679  1.27040428
  C -1.73642255 -3.24377615  0.79173239
  C -0.22851905 -3.33301357  0.97033705
  C  0.62110275 -2.45811353  0.04656383
  C -1.99656912  1.18245405 -1.18141402
  C -2.25253867  2.30923904 -0.26819081
  N -2.34839071  3.25251087  0.36909819
  C -3.20514493  1.06732906 -1.99013891
  N -4.14486153  1.13586297 -2.63440884
  N -0.84741108  1.42376724 -2.02686060
  C  0.32775667  1.07697812 -1.22759251
  C  0.81477251  2.41865084 -0.54336963
  N  0.74223808  2.49113006  0.78183412
  C  1.10171672  3.72099658  1.45562815
  O  1.06852220  3.34309224 -1.28234006
  C  1.34931991  0.67580526 -2.17455593
  N  2.10767584  0.40709833 -2.98656281
  H  4.76437330 -0.28543940 -0.24050152
  H  4.29083269 -0.06843727 -1.93839240
  H  4.91595272 -1.64389691 -1.38699189
  H  2.56008072 -1.85193794 -1.40599833
  H -1.81840411 -1.50388719  2.08976456
  H -3.37284734 -2.19056696  1.66350209
  H -1.98966162 -3.42491497 -0.25274038
  H -2.17281341 -4.05722638  1.37315695
  H  0.05611711 -4.36559201  0.75241084
  H  0.03400355 -3.14725615  2.01227712
  H  1.61982717 -2.89923940  0.08275155
  H  0.23687946 -2.54809894 -0.97406123
  H -0.78387761  2.35858622 -2.42148813
  H  0.69145548  1.66390189  1.35483387
  H  0.59378248  4.55069515  0.96535380
  H  0.78604469  3.65417705  2.49216423
  H  2.17912766  3.88876917  1.40532376
