43
opt_min/./Product_431_opt.xyz
  C -2.56854307 -0.64996824  1.11362040
  O -1.16468279 -0.52807367  1.20422065
  C -0.45547025  0.05316070  0.13939029
  C  1.05198155 -0.39464538  0.21568516
  C  1.25506914 -1.51426400  1.23886044
  C  1.32847020 -0.85696423 -1.23909779
  C  0.70174986 -2.22958874 -1.50421219
  C -0.80440695 -1.93042037 -1.39521743
  C -0.86314962 -0.39668452 -1.28123894
  C  0.37792191 -0.00069561 -2.07979423
  C  1.83226915  0.88849975  0.63968750
  C  2.35435435  0.88151567  2.09692661
  C  1.89420606  1.98978636  3.00268373
  O  3.16533214  0.06546473  2.46029605
  C  3.11555974  1.16585306 -0.16728639
  O  0.96162315  1.98958634  0.43193499
  C -0.39551487  1.62345234  0.23859159
  C -1.23612761  2.23248419  1.38042080
  C -0.87361315  2.31167060 -0.95701780
  N -1.30912996  2.93268256 -1.81369744
  H -2.88253505 -1.15953601  0.19887677
  H -3.08484970  0.30968942  1.17182442
  H -2.85214307 -1.25728250  1.97580360
  H  0.97419935 -1.16863667  2.23160253
  H  2.29965425 -1.81204710  1.25712086
  H  0.62934800 -2.37120389  1.02132334
  H  2.37197560 -0.81157626 -1.53810975
  H  1.04959217 -3.01740177 -0.84530755
  H  0.95572012 -2.53509405 -2.52414770
  H -1.27348847 -2.42804817 -0.54913477
  H -1.32698485 -2.24728519 -2.30168952
  H -1.81369403  0.03496418 -1.59525536
  H  0.62257807  1.05624031 -2.09351514
  H  0.31992547 -0.35386853 -3.11202944
  H  2.71380499  2.26608315  3.66540233
  H  1.54591802  2.85042756  2.44149197
  H  1.08168750  1.60657559  3.61965865
  H  2.86423429  1.47413659 -1.17880959
  H  3.73932547  0.27813023 -0.18148993
  H  3.67170031  1.97359204  0.30505208
  H -2.29675470  2.15469544  1.17020733
  H -0.98683482  1.75127517  2.32090704
  H -0.98560204  3.29154346  1.45011967
