54
opt_min/./Product_1964_opt.xyz
  C  1.70242000 -3.62081800  2.11642900
  C  1.45366857 -3.48227163  0.64692381
  O  2.05896448 -4.07559428 -0.20458794
  C  0.28518042 -2.53880786  0.28467179
  F -0.47370375 -2.39018139  1.43254837
  C  0.82317574 -1.20448242 -0.17076276
  C  0.31447003  0.03013905 -0.06235844
  C -0.98384594  0.50729839  0.53974492
  C -1.21480567  1.93695171  0.03339109
  C -2.18168223  2.14345022 -1.10432685
  O -0.61257196  2.86544468  0.51375933
  C -0.82116485  0.55512153  2.09222437
  C -1.81431514  1.42458101  2.82239348
  O -0.01860831 -0.11486891  2.67137866
  C -2.21910121 -0.40355514  0.30994502
  C -2.21697029 -1.24597465 -0.97660536
  C -2.04086774 -2.74117581 -0.68974964
  C -0.59323650 -3.20110027 -0.80755820
  C  1.33822946  1.04101650 -0.53318382
  C  1.92672831  1.82410783  0.64633043
  O  2.06820562  3.10980038  0.33201645
  C  2.62551532  3.96038506  1.32487831
  O  2.31842467  1.31971797  1.66351374
  N  2.39871948  0.24764499 -1.14265320
  C  2.16051759 -1.16653714 -0.87268723
  C  2.19177829 -1.82151190 -2.27291308
  C  1.24527876 -1.21251376 -3.27445334
  O  3.01254551 -2.64380237 -2.56879058
  H  2.69035948 -4.04243423  2.28608445
  H  0.95299052 -4.29725502  2.52852999
  H  1.59559072 -2.66023921  2.61451311
  H -3.19827892  2.21006506 -0.71806185
  H -2.13622602  1.33441006 -1.82494602
  H -1.94563437  3.09053505 -1.58541719
  H -2.37369184  2.08982078  2.17490908
  H -1.27592024  2.00764300  3.56735844
  H -2.50492478  0.77166507  3.35665952
  H -3.09719522  0.24562112  0.32119021
  H -2.33254652 -1.06534573  1.16869302
  H -3.16491279 -1.10069150 -1.50452243
  H -1.43156532 -0.89825020 -1.64807642
  H -2.36964680 -2.94443053  0.33147756
  H -2.67826241 -3.34495462 -1.33985007
  H -0.54659818 -4.28856698 -0.70727272
  H -0.16346827 -2.94213003 -1.77318917
  H  0.95982596  1.76427656 -1.26573029
  H  2.39127398  3.57596926  2.31909348
  H  2.17758105  4.94069196  1.18214518
  H  3.71047275  4.01243135  1.20183060
  H  3.31312972  0.54506006 -0.82635097
  H  2.94620098 -1.64097330 -0.27437676
  H  0.97659055 -1.94824818 -4.02901732
  H  1.77965446 -0.39964495 -3.76522505
  H  0.36455299 -0.79867353 -2.79854562
