49
opt_min/./Product_5207_opt.xyz
  C  1.09703700 -2.84293600 -0.33620800
  C  0.80505253 -1.34743922 -0.41313156
  C  1.48585205 -0.80747921 -1.67923226
  C -0.70952009 -1.01826138 -0.52940743
  C -1.58484793 -2.04035517  0.14174375
  O -2.32406422 -2.78137469 -0.44589155
  C -0.85037340  0.37149216  0.13056174
  C -0.73851673  1.50883450 -0.92116529
  O  0.12959523  2.36066980 -0.80783560
  N -1.60256194  1.48069500 -1.94398788
  C -1.62401679  2.52931495 -2.94224416
  C -2.16738832  0.54572328  0.87833010
  C -3.38419182  0.20988102  0.29722198
  C -4.57257009  0.40171725  0.98234235
  C -4.56331706  0.93520406  2.25842208
  C -3.35356621  1.26427012  2.84911300
  C -2.16691126  1.07264266  2.16664584
  N  0.27770079  0.49139095  1.02748036
  C  1.26376549 -0.55463932  0.85625609
  C  2.70663155 -0.06529586  0.63171715
  N  2.83629168  1.20851673  0.21455217
  C  4.11695608  1.78523660 -0.11243051
  O  3.65879405 -0.79832651  0.82657531
  C  1.28517276 -1.37999704  2.14934086
  H  2.16634687 -2.98976253 -0.22512081
  H  0.77380663 -3.33063854 -1.25311734
  H  0.58546863 -3.31929225  0.49446272
  H  2.55756510 -0.98246212 -1.64201621
  H  1.09525069 -1.32580163 -2.55261394
  H  1.30858420  0.25599347 -1.80809832
  H -0.97913908 -0.99498708 -1.58648361
  H -1.50221468 -2.06458938  1.24206667
  H -2.35245560  0.81016316 -1.95302953
  H -0.60646823  2.71487115 -3.28504209
  H -2.01612683  3.45959504 -2.52507435
  H -2.24092654  2.21911800 -3.77858609
  H -3.42214163 -0.23612154 -0.68679732
  H -5.50654832  0.12560676  0.51557708
  H -5.49288603  1.08402350  2.78730517
  H -3.33246029  1.67345710  3.84845258
  H -1.22620624  1.31343505  2.62931305
  H  0.58950561  1.45044831  1.08240248
  H  2.01743168  1.73606602 -0.06305646
  H  4.20440021  2.77379468  0.33762561
  H  4.88912690  1.13240739  0.28763486
  H  4.24643756  1.87290892 -1.19310573
  H  0.32554700 -1.84525942  2.34671918
  H  1.50961433 -0.70420205  2.97250495
  H  2.06247073 -2.13380665  2.10194708
