36
opt_min/./Product_3651_opt.xyz
  C  3.35997300 -0.67652300 -1.65461900
  C  2.14434163 -0.35155586 -0.83759849
  C  2.37228177 -0.32241154  0.64730287
  C  0.98472647 -0.06939739 -1.42405325
  C -0.31173663  0.28447340 -0.75551806
  C -1.00044129 -0.89987474 -0.02589861
  C -2.36229986 -1.21145308 -0.60214431
  C -2.41064698 -2.35916556 -1.56062205
  C -3.42581810 -0.48044332 -0.30010853
  C -1.06664337 -0.36917301  1.39472127
  C -1.59547755 -1.16407137  2.52710599
  N -0.60596648  0.81006238  1.52255430
  N -0.15478403  1.26802643  0.32959997
  C  0.29757728  2.53018814  0.13326682
  C  0.33836677  3.38527346  1.37386478
  O  0.64048005  2.90717281 -0.96978447
  H  3.11612029 -0.74717500 -2.71092328
  H  3.79417979 -1.62053435 -1.33025689
  H  4.10970336  0.10164141 -1.52501930
  H  2.43350075  0.70593376  1.00054743
  H  3.30524305 -0.82028207  0.90052945
  H  1.56919537 -0.80876368  1.19628426
  H  0.93519945 -0.08887660 -2.50320699
  H -0.98132094  0.72193715 -1.50459745
  H -0.37794170 -1.79874384 -0.07125925
  H -3.40881361 -2.47618332 -1.97131544
  H -1.70399912 -2.20097628 -2.37413914
  H -2.12941976 -3.28350161 -1.05555036
  H -3.37038801  0.35103748  0.38221032
  H -4.39227006 -0.68106289 -0.72893654
  H -1.79329017 -0.52475067  3.38175058
  H -2.50542742 -1.67940875  2.22631170
  H -0.86613723 -1.91860212  2.82529021
  H  1.16792171  3.06964259  2.00155396
  H  0.47655985  4.42321023  1.08941675
  H -0.58142602  3.26916638  1.93975134
