52
opt_min/./Product_5512_opt.xyz
  C -6.19817133  0.95176091 -0.10725744
  C -6.00962237 -0.00565391 -1.24106819
  C -7.23897012 -0.16677144 -2.09433152
  C -4.94333986 -0.77716191 -1.50000186
  C -3.63168909 -0.89482105 -0.89690852
  C -3.00157950 -0.09084648 -0.03853191
  C -1.66352717 -0.38762275  0.56608898
  C -1.89504086 -1.01462257  1.95739555
  C -0.71358329 -1.25126383 -0.28019922
  C  0.68319290 -0.72410774  0.11740288
  C  1.31244819 -1.58532275  1.21959745
  O  1.06532688 -2.75296154  1.37668844
  O  2.18465866 -0.88630538  1.92789456
  C  2.89345137 -1.56416668  2.95658126
  C  1.71016138 -0.75160607 -0.99459507
  C  2.55192500  0.33400552 -1.19475564
  C  3.49354978  0.30078904 -2.20750998
  C  3.60706613 -0.81602897 -3.01806339
  C  2.77817828 -1.90553230 -2.80938236
  C  1.83266347 -1.87743085 -1.79999272
  N  0.46621230  0.62213819  0.60987121
  C -0.76500944  0.82290173  0.80484601
  C -1.22488468  2.14126628  1.34506143
  N -2.07296997  2.79813723  0.51675154
  C -2.53413846  4.13105145  0.84435269
  O -0.87917801  2.57374174  2.42109827
  H -6.52697988  1.92099412 -0.48081448
  H -6.98519297  0.56814743  0.54403158
  H -5.30705690  1.09198320  0.48952784
  H -7.84761695 -0.99253756 -1.72438948
  H -6.97599678 -0.38039473 -3.12737882
  H -7.85024062  0.73275961 -2.06826879
  H -5.07934844 -1.48557307 -2.31441215
  H -3.09826052 -1.77610929 -1.23125284
  H -3.47344092  0.79937851  0.34589931
  H -2.31916644 -2.01011197  1.84513366
  H -2.57882802 -0.40109540  2.53963765
  H -0.95572567 -1.09689909  2.50092337
  H -0.87564087 -1.05361326 -1.34158516
  H -0.80916584 -2.31689884 -0.08507594
  H  2.35384587 -2.46445786  3.25705978
  H  2.98334194 -0.87141799  3.79079418
  H  3.88362313 -1.83798646  2.58902019
  H  2.45428692  1.19168349 -0.54869834
  H  4.14369317  1.14969025 -2.36204347
  H  4.34316332 -0.84089560 -3.80793059
  H  2.87046008 -2.78275751 -3.43309037
  H  1.19761823 -2.73344579 -1.62748837
  H -2.19780438  2.47042891 -0.42716882
  H -3.37980280  4.07793816  1.53429510
  H -1.73157372  4.67981901  1.33826893
  H -2.83853806  4.65011704 -0.05978565
