46
opt_min/./Product_5183_opt.xyz
  C -1.83800300  1.34713400  1.24210400
  C -2.10328710  0.16197669  2.10951889
  C -2.06497233 -1.08755762  1.65937227
  N -1.70696277 -1.42877561  0.36551176
  C -2.01898837 -2.76856094 -0.07899240
  C -1.87998554 -0.39599566 -0.64686293
  C -1.33803176  0.94927661 -0.14635167
  C -1.70231190  2.11517088 -1.08390232
  N -2.38904168  1.80130885 -2.21107784
  O -1.44751006  3.26385987 -0.79964340
  C  0.19611673  0.66786698 -0.34873440
  C  1.03244859  1.92191092 -0.12520524
  O  1.99291977  2.09879669 -1.02730513
  C  2.85799779  3.21104317 -0.82754299
  O  0.89570890  2.62116295  0.84360207
  C  0.77305292 -0.33474944  0.65961326
  C  0.86601693 -0.04205830  2.01607318
  C  1.39286378 -0.96568199  2.90257857
  C  1.85144730 -2.19169570  2.45548875
  C  1.79725033 -2.47409464  1.10226274
  C  1.27997706 -1.55113657  0.21402257
  N  0.22113287  0.04113103 -1.67491534
  C  0.51038485  0.85638941 -2.84067961
  N -1.07622538 -0.61408613 -1.83577307
  H -1.11200248  2.02687496  1.68673744
  H -2.76181466  1.93124761  1.12929658
  H -2.36557753  0.36377848  3.13388670
  H -2.25646553 -1.92262530  2.31387718
  H -2.17616977 -3.40570265  0.78771568
  H -1.18278886 -3.18913418 -0.64410841
  H -2.92046807 -2.79435086 -0.70291896
  H -2.94399486 -0.34232544 -0.94011310
  H -2.57971359  2.57037488 -2.83558360
  H -2.30485205  0.88488131 -2.62334552
  H  2.43825028  4.08984154 -1.31957646
  H  3.81560251  2.94961007 -1.27268948
  H  2.96756995  3.41494316  0.23867364
  H  0.55057684  0.91576113  2.39251229
  H  1.45372268 -0.71445009  3.95127394
  H  2.25649888 -2.91105860  3.14947877
  H  2.17564679 -3.41535318  0.72996908
  H  1.27116364 -1.77168187 -0.84214914
  H  1.58344039  0.81575405 -3.02552175
  H  0.21387290  1.90695608 -2.75341167
  H -0.00795275  0.40779457 -3.68667621
  H -0.90261724 -1.60666742 -1.99053096
