39
opt_min/./Product_2434_opt.xyz
  C  2.90731720 -1.87281719  1.39093475
  O  2.03203954 -1.08810853  0.58076698
  C  1.53563727 -1.62705025 -0.52601421
  O  1.80063809 -2.72046013 -0.93605109
  C  0.54820605 -0.69031450 -1.22413904
 Br  1.31338729 -0.46888355 -2.98780892
  C  0.35566669  0.63064407 -0.47118694
 Br -0.26732111  2.04855081 -1.67743593
  C  1.59912473  1.21929874  0.18063347
  O  1.66081263  1.54827197  1.32948654
  O  2.55526658  1.32610437 -0.72890012
  C  3.79481260  1.89745022 -0.32362453
  C -0.76199692  0.27819417  0.51641149
  C -0.24028281 -0.28458110  1.75789001
  N  0.03011067 -0.81220113  2.73564272
  C -1.61233031  1.52360980  0.94556027
  C -3.07917835  1.40256395  0.69444756
  O -1.06922666  2.47866141  1.41539051
  O -1.55494676 -0.70205582 -0.13238741
  C -0.87904790 -1.31634163 -1.23138184
  C -0.83700138 -2.86253658 -1.03794165
  C -1.02388004 -3.34972883  0.36671309
  O -0.72775760 -3.58393247 -1.98837862
  C -1.68352310 -1.05528600 -2.50855776
  H  3.88879861 -1.40156973  1.39999452
  H  2.97391385 -2.88521190  0.99054535
  H  2.48137788 -1.87324912  2.39427931
  H  4.54951529  1.11018575 -0.30668625
  H  4.06303752  2.65173623 -1.06104275
  H  3.69196471  2.34493156  0.66602650
  H -3.31805485  1.98774076 -0.19409147
  H -3.61997771  1.84171647  1.52974205
  H -3.37826690  0.37190152  0.53673986
  H -2.03829614 -3.10695815  0.68161928
  H -0.88398811 -4.42689971  0.39406996
  H -0.33982665 -2.86656859  1.06099838
  H -2.71573142 -1.34134997 -2.31730823
  H -1.66201111 -0.01256363 -2.81297768
  H -1.29085344 -1.67796211 -3.30915546
