56
opt_min/./Product_2365_opt.xyz
  C  2.43750800 -3.24728400  0.82291000
  C  2.84217480 -1.90236372  1.34844074
  O  3.90959845 -1.75444997  1.88558361
  C  1.90577848 -0.67207344  1.19783669
  C  0.37969515 -0.83774714  1.39479875
 Cl -0.17050101 -2.43849109  1.94740809
  C  0.15424899  0.06885750  2.65901972
  C  0.39358707  1.52318002  2.31933605
  C  1.70887929  1.63585801  2.20623397
  C  2.23923842  0.24389026  2.44208183
  O  1.31532318 -0.25741532  3.39395824
  C -0.32409572 -0.39752865  0.09378192
  C -0.75262431 -1.61003494 -0.78454471
  N -1.80425546 -1.36375772 -1.59340585
  C -2.37653949 -2.39427042 -2.42821061
  O -0.12074474 -2.64264780 -0.83919637
  C -1.54815427  0.43231123  0.42914686
  C -1.66104606  1.77604796  0.09798028
  C -2.80866571  2.48475819  0.41390053
  C -3.85446229  1.86259057  1.07221007
  C -3.74888442  0.52357713  1.41208048
  C -2.60848100 -0.18782093  1.08825305
  N  0.70251006  0.36410663 -0.62187180
  C  0.49802454  0.49852538 -2.05646086
  C  2.05901412 -0.01699964 -0.20795650
  C  2.77003148 -0.94556385 -1.21182622
  C  2.96940853  1.23303192 -0.12811213
  O  4.13523759  1.14668478  0.18993003
  N  2.38995532  2.39196854 -0.50410767
  C  3.09651005  3.64827519 -0.49903129
  H  1.60077142 -3.22830189  0.13675728
  H  3.30957659 -3.70587819  0.35990746
  H  2.17156845 -3.86459093  1.68151692
  H -0.75275772 -0.15877655  3.21295664
  H -0.37722958  2.26253477  2.24393003
  H  2.31879977  2.50118818  2.05289223
  H  3.26655115  0.14278173  2.77735507
  H -2.36866367 -0.54623631 -1.41802556
  H -1.62479583 -3.17061124 -2.56018279
  H -3.26198391 -2.83301925 -1.96311036
  H -2.64763523 -1.97408133 -3.39603649
  H -0.83979943  2.28198007 -0.38414994
  H -2.88080376  3.52885170  0.14730699
  H -4.74478635  2.41840871  1.32426986
  H -4.55632995  0.03089555  1.93213543
  H -2.53567529 -1.23426590  1.34499424
  H -0.42644577  1.04993518 -2.23187560
  H  1.32648923  1.06137169 -2.48074710
  H  0.43109491 -0.45612821 -2.58828450
  H  3.03714742 -0.39033654 -2.10889080
  H  2.13636953 -1.78316021 -1.48687686
  H  3.69312741 -1.30963628 -0.77315467
  H  1.41006172  2.38970942 -0.73608060
  H  4.12337447  3.44360196 -0.19871201
  H  3.09528478  4.09512847 -1.49516914
  H  2.64184493  4.34829573  0.20528474
