39
opt_min/./Product_4605_opt.xyz
  C -2.42370177  1.41414807 -0.45220077
  C -1.07456347  0.77136575 -0.18024541
  C -0.59022235  1.20813910  1.20847266
  C -0.03267840  1.11337006 -1.25722419
  C  0.54941980  2.52100661 -1.29715722
  O  0.12477989  3.45007269 -0.67208760
  C  1.02810232  0.01368005 -1.03444876
  C  2.19853836  0.57631000 -0.19076852
  N  2.86742487 -0.36117527  0.48464597
  C  4.01228586 -0.06589244  1.31157383
  O  2.43128679  1.76791810 -0.17474212
  C  1.60031303 -0.42566690 -2.29734994
  N  2.11334262 -0.69426441 -3.28152541
  O  0.40611009 -1.03202504 -0.30043469
  C -0.99910433 -0.78621490 -0.25724809
  C -1.61974780 -1.48338891 -1.49784488
  C -3.09991836 -1.41675059 -1.70063818
  O -0.88207876 -2.10650032 -2.21767692
  C -1.61353449 -1.49415318  0.95393567
  C -0.69375838 -2.43934371  1.65818409
  O -2.77456061 -1.34481699  1.23547632
  H -2.73086571  1.30666575 -1.48927647
  H -2.34121327  2.47793483 -0.23940154
  H -3.18359616  0.98845473  0.19691304
  H -0.43681454  2.28465282  1.21281748
  H  0.35200676  0.73111795  1.47255840
  H -1.33215766  0.95229537  1.95970210
  H -0.48032622  0.98926826 -2.25446680
  H  1.29809205  2.63481429 -2.09868214
  H  2.56971333 -1.32179680  0.38783163
  H  4.89520992 -0.58520387  0.93568962
  H  3.82678147 -0.36981037  2.34260981
  H  4.18014908  1.00848204  1.27415717
  H -3.35782600 -0.53760245 -2.28608953
  H -3.62234313 -1.36561831 -0.74868254
  H -3.41433003 -2.29472964 -2.26257826
  H -1.21981087 -2.94371844  2.46396962
  H  0.15420094 -1.88579116  2.05756231
  H -0.30565682 -3.15812683  0.93848128
