51
opt_min/./Product_1774_opt.xyz
  C  1.50854788  3.55939804 -1.17760004
  C  1.43591146  2.06734143 -1.32196937
  O  1.50345775  1.50825222 -2.38178532
  C  1.43241751  1.20856896 -0.02049359
  C  1.12266054  1.95641528  1.17300565
  N  0.93702666  2.57523157  2.11738074
  C  0.46184658  0.06494222 -0.21239242
  C  0.56736307 -1.26876960 -0.21721198
  C  1.60133498 -2.26171933  0.27325924
  F  1.46406260 -2.37413217  1.63374969
  F  1.23086401 -3.50555955 -0.18272828
  C  3.08852976 -2.12948991 -0.08076685
  C  3.90851089 -1.34164864  0.94534064
  C  3.25118127 -0.01459534  1.31488333
  C  2.91859680  0.79792071  0.06425294
  C -0.71801208 -1.89285453 -0.73718234
  C -1.46647148 -2.75840444  0.28426319
  N -1.55577389 -0.77269824 -1.14367553
  C -1.93415296 -0.75928612 -2.53743866
  C -1.01540999  0.40515088 -0.49142223
  C -1.31115829  1.75079602 -1.16755113
  C -1.66853129  2.88229017 -0.24145666
  O -1.30633283  1.90001531 -2.36075898
  C -1.69945189  0.39328952  0.90557568
  O -1.11706360  0.37607282  1.95610837
  O -3.02026714  0.34958863  0.78366265
  C -3.75429674  0.22913684  1.99464680
  H  2.54219466  3.86310717 -1.34544990
  H  0.90931536  4.01844084 -1.96249461
  H  1.18903458  3.90655145 -0.19965479
  H  3.16533016 -1.71616764 -1.08550338
  H  3.47849079 -3.15047183 -0.12407354
  H  4.02309619 -1.93555397  1.85321168
  H  4.90234155 -1.16449719  0.53380344
  H  2.33467015 -0.21901930  1.86892524
  H  3.90702343  0.54905861  1.97530927
  H  3.12684495  0.21604410 -0.83155159
  H  3.53270428  1.70107338  0.00812167
  H -0.44809687 -2.50042107 -1.61348464
  H -1.15998094 -3.79812579  0.22506730
  H -2.53071242 -2.68303356  0.07734989
  H -1.28118699 -2.40034257  1.29429110
  H -2.29840414 -1.75612446 -2.78175280
  H -1.10966761 -0.49866202 -3.21220224
  H -2.74731154 -0.05088626 -2.68657772
  H -1.50857668  3.83275397 -0.74695066
  H -2.73415671  2.79431516 -0.02588265
  H -1.12604898  2.85283521  0.69726429
  H -4.80489390  0.26395304  1.71608393
  H -3.50612586  1.04706424  2.67441696
  H -3.51555951 -0.71691668  2.48426363
