45
opt_min/./Product_4712_opt.xyz
  C  4.02693500  1.79865000  0.62208800
  C  3.38660474  0.49200220  0.25465961
  C  4.34607644 -0.65930987  0.18761155
  C  2.08140978  0.41495592  0.01734740
  C  1.32472445 -0.84373896 -0.29613279
  C -0.05718503 -0.73563697 -0.98819901
  C -0.27880127  0.38447633 -1.96754934
  C -0.28924696  1.82661398 -1.53579511
  C -0.43130706  0.09061350 -3.25288702
  C -1.07900772 -0.90572951  0.21103621
  C -2.09701003 -1.97260104 -0.21071976
  O -2.77083101 -1.92182007 -1.20657175
  O -2.11235371 -2.99035295  0.64463813
  C -3.02713287 -4.04032099  0.35849778
  C -1.84720069  0.33262397  0.62771465
  C -1.52852970  0.97743431  1.81692604
  C -2.22161540  2.11111551  2.20123095
  C -3.24190068  2.60896098  1.40960225
  C -3.56748736  1.96279730  0.22914684
  C -2.87665660  0.82974646 -0.16256462
  N -0.29907450 -1.41449418  1.31723244
  C  0.92294151 -1.43095310  1.03229526
  H  4.73330032  2.10204550 -0.15111395
  H  4.58391933  1.69392858  1.55275304
  H  3.28660669  2.58498010  0.74271350
  H  5.29220017 -0.33716646 -0.24371039
  H  4.55220181 -1.03280042  1.19177054
  H  3.95608480 -1.48263052 -0.40476278
  H  1.49007674  1.30718610  0.12694909
  H  1.96709632 -1.52359344 -0.86041616
  H -0.16150881 -1.65966678 -1.57087260
  H -1.13614779  2.34113132 -1.98575198
  H -0.36140622  1.94311278 -0.46051635
  H  0.62287454  2.31649248 -1.88039120
  H -0.42667187 -0.92243516 -3.61692502
  H -0.58020477  0.86500797 -3.98636695
  H -4.05078110 -3.70956547  0.54571559
  H -2.76468582 -4.85620488  1.02803542
  H -2.94413274 -4.35015377 -0.68491873
  H -0.73890715  0.58380349  2.43823720
  H -1.96583341  2.60930208  3.12526636
  H -3.78084941  3.49408429  1.71375810
  H -4.36562827  2.34276247 -0.39213273
  H -3.13354053  0.33493353 -1.08561205
  H  1.65540626 -1.77929460  1.74613224
