29
opt_min/./Product_4509_opt.xyz
  O -0.94313535  2.79091479  2.43690220
  C -0.82465142  2.84597662  1.30201850
  O -0.68546691  2.91426415  0.16772907
  C  0.26242729 -0.24101661  2.14472696
  C -1.04103323 -0.69656925  2.28215165
  C -4.45240548  2.05723531  0.35429811
  O -5.48054826  2.35162679 -0.04523134
  O -3.39363177  1.72068821  0.63749928
  C -1.59842249 -0.70659200  1.00405902
  C -2.89272385 -1.08624032  0.63644689
  N -3.96223559 -1.39513354  0.35322985
  C  0.47985673 -3.96924745  0.73570340
  O  0.86542950 -4.85478316  1.34593675
  O  0.05907583 -3.10072200  0.12083818
  C  0.47255298  0.01547338  0.79131106
  C  1.68453211  0.49920727  0.13967954
  O  2.62174142  0.82601187  1.04922462
  C  3.83921981  1.32790057  0.51996931
  O  1.84318075  0.63457553 -1.05112998
  N -0.67112228 -0.27201200  0.11385807
  C -0.87590187 -0.14156985 -1.30050164
  H  0.98807877 -0.10560599  2.92075712
  H -1.54098171 -0.98742240  3.18446292
  H  4.31931807  0.57554199 -0.10947102
  H  3.65320995  2.22013000 -0.08171336
  H  4.46560865  1.56639487  1.37537971
  H -1.89833625 -0.42912303 -1.54124051
  H -0.69822476  0.88925392 -1.61060910
  H -0.17729356 -0.78222103 -1.83985319
