28
opt_min/./Product_3475_opt.xyz
  C  2.06312643 -1.16373023 -1.28081370
  C  0.61024741 -1.62813841 -1.14181600
  C  0.13935142 -0.98055809  0.19887227
  C -0.03092144 -1.98355354  1.24013195
  N -0.18022593 -2.75494090  2.06995947
  C -1.20239372 -0.26730600  0.12362248
  C -1.37441523  0.96135165  0.74805141
  C -2.60053055  1.59796361  0.67151066
  C -3.65757775  1.01886941 -0.00776924
  C -3.49099007 -0.21561946 -0.61862755
  C -2.26640037 -0.85424946 -0.54633825
  N  1.20274804 -0.09591373  0.63023927
  C  2.20620119 -0.20385323 -0.13209002
  C  3.46842918  0.55616998  0.10655048
  C  3.43481173  1.48745046  1.27990393
  O  4.42922031  0.39262152 -0.60621166
  H  2.78710158 -1.97393136 -1.18400632
  H  2.26796668 -0.65120618 -2.22224228
  H -0.00823506 -1.25793726 -1.96063672
  H  0.52886108 -2.71395019 -1.10378064
  H -0.54570875  1.40673741  1.27541508
  H -2.73328530  2.55649005  1.15337854
  H -4.61101181  1.52291964 -0.05742440
  H -4.31108928 -0.67843565 -1.14788241
  H -2.14603595 -1.82624711 -1.00456767
  H  2.48993915  2.02032941  1.31876922
  H  3.51578963  0.88940954  2.18716494
  H  4.27544694  2.17663175  1.23615397
