36
opt_min/./Product_868_opt.xyz
  C -2.73797700  1.02493300  1.92364400
  C -1.25843076  1.00253781  1.70037747
  O -0.44865989  1.35776561  2.51348243
  C -0.75878982  0.50371142  0.32481458
  C -0.59202306 -1.02599949  0.11871150
  C -1.05970213 -1.92451694  1.25122651
  F -0.82994620 -3.21548813  0.99887355
  F -0.42771882 -1.64570697  2.40698601
  F -2.37145570 -1.82047652  1.49962929
  C -1.49356410 -1.24349283 -1.16181581
  C -0.70646323 -0.62155546 -2.29529130
  C -0.82994607  0.68803275 -2.12192139
  C -1.70065150  0.84723161 -0.89157430
  O -2.51585939 -0.30335594 -0.94225472
  C  0.90239617 -1.13143354 -0.11809429
  C  1.61716961 -2.35467767 -0.53127740
  C  3.10883038 -2.28103000 -0.37416663
  O  1.02827559 -3.29851962 -1.00158778
  N  1.48359829  0.01381633 -0.08245918
  N  0.61072702  0.98535545  0.14902350
  C  0.89986915  2.34096574  0.16818076
  C  2.35937540  2.67358983  0.14943582
  O -0.00716513  3.13499283  0.16544698
  H -3.30495904  0.66398845  1.07344002
  H -3.02648161  2.04486633  2.17732576
  H -2.96441151  0.40243158  2.78929727
  H -1.86695772 -2.25449813 -1.28768252
  H -0.14672023 -1.17361746 -3.02223276
  H -0.40040047  1.50209486 -2.66917977
  H -2.26877328  1.76565661 -0.79506950
  H  3.50538506 -1.62345636 -1.14602583
  H  3.37638341 -1.86606666  0.59201790
  H  3.53320314 -3.27415740 -0.50008287
  H  2.55803770  3.35589876 -0.67551763
  H  2.96778461  1.78091360  0.06084932
  H  2.59751104  3.19555791  1.07532868
