48
opt_min/./Product_2535_opt.xyz
  C  0.23155719 -3.27495264 -0.59087068
  C -0.00483448 -2.54877931  0.70567087
  O  0.23098152 -3.04691168  1.76620606
  C -0.69152997 -1.13837091  0.59735844
  C -1.85907620 -1.45916851 -0.38387280
  C -1.98146928 -0.76017401 -1.70801402
  O -2.64098333 -2.31529524 -0.06285896
  C  0.26725180 -0.10464084  0.11485201
  C  0.16145927  1.21314822 -0.17564736
  C -0.76194522  2.28479496  0.32686844
 Cl  0.03715524  2.86468186  1.86267965
  C -0.72313848  3.52600782 -0.61266354
  F -1.77043433  4.34479221 -0.46479265
  F -0.74559332  3.13708700 -1.89856975
  F  0.33948388  4.30213374 -0.43263958
  C -2.24450585  1.93921491  0.58178970
  C -2.63478652  1.37091739  1.94900289
  C -2.62717572 -0.14300546  2.08612892
  C -1.26953631 -0.82732838  2.00594866
  C  1.43007321  1.49893228 -1.02575017
  C  2.03895924  2.74211287 -1.41609087
  N  2.62819241  3.63201201 -1.81925983
  C  1.13770260  0.61286354 -2.31864819
  O  0.77007684  0.96080792 -3.38666476
  O  1.36017916 -0.63880667 -1.91141994
  C  1.63619846 -0.50927531 -0.48761536
  C  2.54774669 -1.58522000  0.12091531
  O  3.31726789 -2.10991457 -0.80785590
  C  4.31815628 -3.02165379 -0.35300247
  O  2.59826540 -1.79296692  1.29592068
  O  2.38812878  0.65276102 -0.41477412
  H -0.55439485 -4.02682679 -0.67781280
  H  1.17549043 -3.81429516 -0.54348162
  H  0.21478010 -2.63486300 -1.46656159
  H -1.38387852  0.13755966 -1.80884948
  H -1.68576824 -1.45945555 -2.49078501
  H -3.03177550 -0.53065005 -1.88178539
  H -2.59912897  1.29045848 -0.21821852
  H -2.79000209  2.87872335  0.50453785
  H -3.66070783  1.69192499  2.14010629
  H -2.00995103  1.81829010  2.72013930
  H -3.31512201 -0.57904638  1.36202006
  H -3.03478627 -0.36650777  3.07443215
  H -1.37770911 -1.79382202  2.50071739
  H -0.52283946 -0.26354541  2.56546204
  H  3.89081626 -3.72566866  0.36318713
  H  4.68224168 -3.53524265 -1.23873513
  H  5.12679115 -2.47168072  0.13033028
