41
opt_min/./Product_670_opt.xyz
  C  3.30717400 -3.06871800 -1.85471900
  N  2.56364777 -2.24523347 -0.93270531
  C  2.99844409 -0.99889778 -0.59982237
  O  4.02710452 -0.54764621 -1.04745014
  C  2.14662998 -0.29024914  0.38983167
  C  2.27508066  0.95926137  0.89090395
  C  3.13714145  2.09719010  0.49952211
  C  3.00540656  3.31999249  1.38367608
  O  3.89222888  2.07579847 -0.43701588
  C  1.22022649  1.03590810  1.98865376
  C -0.13309779  1.16829395  1.22625866
  C -0.36268562 -0.28964247  0.77954245
  C  1.01139799 -0.91368913  1.19491773
  O  1.17811737 -0.29774913  2.46089498
  C -0.79644862 -0.13098731 -0.70037246
  C -0.34641949 -1.19247329 -1.69936983
  C -2.34730859 -0.02182015 -0.62743026
  O -2.92775419  1.03330288 -0.53089144
  N -2.98344768 -1.21095013 -0.59101779
  C -4.42750295 -1.27559728 -0.52274630
  N -0.33011269  1.17570194 -1.11079921
  C -0.05214298  1.87224929 -0.10280210
  H  3.91300605 -2.41004657 -2.47588015
  H  3.97291332 -3.75531491 -1.32510520
  H  2.62063481 -3.63904351 -2.47868767
  H  1.73707998 -2.63655318 -0.51830054
  H  1.96624464  3.60151874  1.52875162
  H  3.44644194  3.10399656  2.35590084
  H  3.54978503  4.14297372  0.92795335
  H  1.38320683  1.72279853  2.81109311
  H -0.92646579  1.57943717  1.85084629
  H -1.12408162 -0.79878199  1.37263038
  H  1.01536226 -1.99577436  1.30368264
  H -1.02221789 -1.21015222 -2.55146235
  H  0.64438105 -0.93864192 -2.06600368
  H -0.32130972 -2.18158677 -1.24624220
  H -2.47261381 -2.06766681 -0.70964305
  H -4.73463182 -2.29380330 -0.30386561
  H -4.77753366 -0.60393410  0.26152380
  H -4.87461290 -0.95145109 -1.46559220
  H  0.25253070  2.89946060 -0.21150436
