54
opt_min/./Product_5876_opt.xyz
  C -2.25712806 -0.68845925 -0.02260007
  O -3.31996545 -0.70240786  0.55810539
  C -0.99450481 -0.09837929  0.57639675
  O -0.94171044  0.04599814  1.96687673
  C -2.07710511  0.00169070  2.80691939
  C  0.30659305 -0.91084961  0.20189741
  O  0.48195888 -2.06510333  0.94000443
  C -0.35426167 -3.15400984  0.65674952
  C  0.32967948 -1.15687205 -1.32130048
  O  1.35844740 -1.05608393 -1.95212189
  C -0.93979712 -1.49966633 -1.97106843
  C -0.84450143 -2.03889530 -3.35969179
  C -2.13088932 -1.25246816 -1.38462106
  C -3.41748944 -1.53249485 -2.08340591
  C  1.41247822  0.11974876  0.52132464
  C  2.76195593 -0.23790085 -0.16236697
  N  3.24192560  0.76632900 -0.94178550
  C  4.42168660  0.53792477 -1.74868299
  O  3.39322475 -1.21221551  0.16300506
  C  1.80922542  0.21442639  2.01526618
  O  1.48597499 -0.52989950  2.89675020
  N  2.61318233  1.30847422  2.20981928
  C  3.25529157  1.51479605  3.49134328
  N  0.84638734  1.35961179  0.00881491
  C -0.61133924  1.28896169 -0.07042795
  C -0.95864952  1.38622569 -1.48025257
  N -1.17617181  1.56411362 -2.58834104
  C -1.41928510  2.38208030  0.66531277
  C -0.69431996  3.11152563  1.75725766
  O -2.56518079  2.58011494  0.37023575
  H -2.82828029  0.74536874  2.52826083
  H -1.67104909  0.23596290  3.79331807
  H -2.53889812 -0.98758274  2.83594700
  H -0.21428791 -3.52994332 -0.36546048
  H -0.06335562 -3.92273694  1.37274880
  H -1.41465698 -2.90397820  0.80066538
  H -1.31037703 -1.33842503 -4.05449002
  H -1.36210521 -2.99440891 -3.44517122
  H  0.20064097 -2.16348471 -3.63447280
  H -4.24949456 -1.37055356 -1.40085263
  H -3.52222910 -0.86051404 -2.93757296
  H -3.44588040 -2.55518574 -2.45934578
  H  2.54369430  1.37795257 -1.34757344
  H  4.15575275  0.15619019 -2.73714837
  H  4.97298580  1.47364097 -1.85314525
  H  5.03662686 -0.20177417 -1.23637636
  H  3.10897760  1.67592893  1.40834844
  H  2.78411044  0.84426914  4.20963737
  H  3.11896803  2.54978020  3.81220973
  H  4.32141995  1.28910435  3.43737212
  H  1.16456923  2.17590930  0.51720959
  H -0.13330566  2.41536794  2.37969128
  H -1.42574809  3.65084713  2.35845427
  H -0.00888021  3.83974055  1.31855323
