51
opt_min/./Product_5418_opt.xyz
  C  5.11036011  0.90648545  0.01422870
  C  4.40888361  0.58994152  1.30314310
  C  5.26671525  0.64124447  2.52863355
  C  3.10896030  0.27729642  1.38122913
  C  2.19285531  0.20941730  0.27061287
  C  0.90091521 -0.08991258  0.42469821
  C -0.13849340 -0.16426903 -0.65673525
  C  0.47257281 -0.34510781 -2.04747566
  C -1.12475989 -1.31573183 -0.36519275
  C -2.51452992 -0.68290221 -0.18605342
  C -2.96301074 -0.75236078  1.29696248
  N -3.88846851  0.15510116  1.60585909
  C -4.41978940  0.28784903  2.94078315
  O -2.55536946 -1.62814853  2.03609627
  C -3.64077924 -1.42831145 -0.90518191
  O -4.46986102 -0.84773352 -1.57672257
  N -3.61528748 -2.75884081 -0.70476237
  C -4.65514856 -3.63042205 -1.19758980
  N -2.44798746  0.68753625 -0.64865524
  C -1.06421978  1.13454728 -0.61659842
  C -0.81986641  2.01395788 -1.73431941
  N -0.68614361  2.71520382 -2.62755103
  C -0.80966180  1.90781429  0.70191177
  C  0.24973376  2.97166911  0.62568390
  O -1.45280829  1.68622100  1.69010044
  H  4.81410699  0.22553701 -0.78033328
  H  4.87393309  1.92203556 -0.30579193
  H  6.18774046  0.83647225  0.14181600
  H  5.91410875 -0.23598366  2.56593661
  H  4.66517045  0.66042108  3.43365445
  H  5.90680952  1.52217360  2.50873511
  H  2.67932848  0.06336227  2.35076744
  H  2.59488392  0.42220057 -0.70792835
  H  0.52712107 -0.29656832  1.41975784
  H -0.31158918 -0.46004640 -2.79447720
  H  1.09515569 -1.23752783 -2.05453157
  H  1.08412910  0.50701750 -2.33471781
  H -1.12411188 -2.02535651 -1.19328268
  H -0.85498515 -1.84689552  0.54938852
  H -4.07968377  0.86954708  0.91960918
  H -4.75208647  1.30909102  3.10410552
  H -3.63806793  0.03757640  3.65804866
  H -5.25986456 -0.39560689  3.08894649
  H -2.99008100 -3.12745546 -0.00370400
  H -5.28175154 -3.99555164 -0.38142229
  H -5.26716817 -3.05410315 -1.88926888
  H -4.21454963 -4.48048513 -1.71950259
  H -2.86555318  0.77877982 -1.57268060
  H -0.16871934  3.82870451  0.09785106
  H  0.53445148  3.27979349  1.62861806
  H  1.12280629  2.62883560  0.07752723
