44
opt_min/./Product_1181_opt.xyz
  C  0.43625307 -0.51138380  2.23954894
  O -0.11291678  0.46555524  1.37620781
  C -0.61653007  0.06180327  0.11454664
  C -1.53602066  1.16738093 -0.40075822
 Br -2.74046798  2.84499773 -3.68152382
  C -2.94595455  0.75948679 -0.19037686
  C -3.17863156  0.47738601  1.29990370
  C -2.43239176 -0.85267156  1.53838291
  C -1.66768918 -1.07507847  0.22348084
  C -2.77795442 -0.66505268 -0.76070253
  N -1.00850335  1.86073206 -1.33387124
  N  0.27663053  1.47596120 -1.53879843
  C  0.88858046  1.91889302 -2.76237112
  C  0.48870023  0.10146465 -1.02760814
  C  0.24396904 -0.90365107 -2.16441722
  C  1.90539182 -0.00995095 -0.51550006
  C  2.58165114  1.13300083 -0.09938012
  C  3.88719829  1.05598551  0.35056696
  C  4.54031922 -0.16421425  0.39014506
  C  3.87494887 -1.30642655 -0.01969654
  C  2.56914342 -1.23099215 -0.47160148
  H -0.03643649 -0.39412865  3.21861351
  H  0.26955312 -1.52678512  1.88059155
  H  1.50965916 -0.34917203  2.35879445
  H -3.68530335  1.39712914 -0.66699465
  H -2.77158305  1.27948698  1.91319430
  H -4.24283553  0.38386244  1.51267364
  H -3.13560722 -1.67561662  1.67451464
  H -1.79779615 -0.80908656  2.41741947
  H -1.27695700 -2.08540309  0.11173697
  H -3.67283867 -1.27205582 -0.63394972
  H -2.49504000 -0.67216975 -1.80991146
  H -1.90669334  2.49671481 -2.53826335
  H  1.94681905  1.66575959 -2.73376023
  H  0.43616431  1.47599736 -3.65749895
  H  0.78654614  3.00182606 -2.82219380
  H  0.05377491 -1.89927005 -1.77520933
  H -0.61432482 -0.60266950 -2.76083275
  H  1.11346667 -0.94514761 -2.81681773
  H  2.07112569  2.08309675 -0.11481200
  H  4.39557035  1.95330426  0.67118473
  H  5.56064081 -0.22527655  0.73829808
  H  4.37423688 -2.26384689  0.00967623
  H  2.07109500 -2.13695269 -0.78119908
