34
opt_min/./Product_528_opt.xyz
  C -4.32181700 -2.47767500 -1.10201500
  O -2.98103151 -2.11837772 -0.79120594
  C -2.74663388 -0.82685694 -0.58339028
  O -3.57293998  0.04552505 -0.64094284
  C -1.31586035 -0.57903778 -0.31103210
  C -0.22384557 -1.26558677 -0.66859382
  F -0.10285552 -2.41724316 -1.29641411
  C  0.96712580 -0.48291701 -0.13549557
  C  2.35051419 -0.81955343 -0.70158399
  N  3.20282542 -1.29941666  0.21406638
  C  4.52795984 -1.74781305 -0.14399530
  O  2.60207006 -0.63100772 -1.86841903
  O  0.88345976 -0.66576768  1.33655345
  C -0.20323037  0.02942492  1.72069311
  O -0.59308264  0.13157101  2.83482437
  C -0.77338588  0.65130473  0.39516966
  C -1.76246270  1.80357060  0.52937298
  C -1.76804379  2.74551557 -0.63828188
  O -2.45388756  1.91368182  1.50059633
  N  0.48153874  0.85263184 -0.34111221
  C  1.33951538  1.95191821  0.08504315
  H -4.92377607 -2.48667493 -0.19122397
  H -4.27554255 -3.47221525 -1.53806756
  H -4.75109036 -1.76256469 -1.80604505
  H  2.87107502 -1.46786320  1.15191010
  H  4.84873015 -1.19407252 -1.02515618
  H  4.52987692 -2.81415547 -0.38193451
  H  5.21154752 -1.56033130  0.68142466
  H -1.34647298  2.27739628 -1.52118309
  H -2.79051124  3.06545228 -0.82175948
  H -1.18137871  3.62787570 -0.38565463
  H  2.31711291  1.58267578  0.39512673
  H  1.47360669  2.63280141 -0.75512874
  H  0.89757931  2.49386483  0.92249278
