52
opt_min/./Product_5398_opt.xyz
  C  2.19482168 -1.72566245 -1.07075636
  C  2.22365210 -1.20779767  0.33460035
  C  3.53580635 -1.41461386  1.02837657
  C  1.21490448 -0.60201877  0.95569766
  C -0.14236431 -0.32113616  0.39933565
  C -1.23788318 -0.33630565  1.47012788
  C -1.70534993 -1.69190213  1.95303214
  C -1.16436647 -2.92092814  1.29138244
  C -2.54721717 -1.75680523  2.97544907
  C -2.37723856  0.52930546  0.84362431
  C -3.68152656 -0.27108851  0.64283207
  N -3.57270099 -1.15519741 -0.36833324
  C -4.65135766 -2.02537130 -0.76466201
  O -4.67471903 -0.11821461  1.31518777
  C -2.62895047  1.64121091  1.74920914
  N -2.74660713  2.51155501  2.48054411
  N -1.86327590  0.94976159 -0.45751782
  C -2.63361570  2.00972004 -1.08563818
  C -0.40534982  1.03558716 -0.34460054
  C  0.32389284  0.95836641 -1.69063194
  C -0.41878409  0.34129380 -2.84395315
  O  1.46269599  1.33784047 -1.79159021
  C  0.07226335  2.35983346  0.29705656
  C  1.18119206  2.34410920  1.30313730
  O -0.42040601  3.39306232 -0.08100988
  H  2.76503498 -2.64993636 -1.13679547
  H  1.18678564 -1.91252281 -1.42570670
  H  2.65903113 -0.99721240 -1.73317260
  H  4.33581611 -0.96646205  0.44288047
  H  3.53932850 -0.97601241  2.02284649
  H  3.75172351 -2.47890871  1.12293704
  H  1.35995286 -0.31064382  1.98619778
  H -0.38308391 -1.07990837 -0.35253614
  H -0.86024583  0.20274526  2.34751162
  H -1.54457643 -3.80690393  1.79091371
  H -1.44953464 -2.97607119  0.24076917
  H -0.07657944 -2.92531466  1.34155016
  H -2.91984569 -0.87186558  3.46281478
  H -2.91303849 -2.69588850  3.34983585
  H -2.73136383 -1.14660138 -0.92420173
  H -4.98506766 -1.80075935 -1.77964157
  H -4.33490990 -3.06777523 -0.70990370
  H -5.47670473 -1.86304718 -0.07481721
  H -3.68373895  1.71882954 -1.04156210
  H -2.33335543  2.10523880 -2.12575058
  H -2.52254118  2.98048988 -0.59738197
  H -0.63192569  1.12865913 -3.56636103
  H  0.22873225 -0.37818821 -3.33996063
  H -1.34996134 -0.12442614 -2.53973194
  H  1.47897866  3.36970814  1.50248981
  H  0.84991489  1.88600698  2.22985352
  H  2.01836378  1.77947436  0.89889867
