54
opt_min/./Product_2043_opt.xyz
  C  3.89070300 -0.06732900 -3.15138200
  N  2.60391494 -0.42373132 -2.59860121
  C  2.27553085 -0.11843737 -1.31902227
  O  3.04514438  0.48814879 -0.61153338
  C  0.88668941 -0.64090988 -0.88338140
  C  1.20922479 -1.99133214 -0.19482721
  C  1.51220595 -3.14778449 -1.11336220
  O  1.24662394 -2.09934434  0.99888406
  C  0.04569984  0.25195366  0.08057903
  C -0.00136571  1.72357981 -0.39246281
  O -1.02901863  2.23054840 -0.81364159
  N  1.15806011  2.37865745 -0.28570334
  C  1.25816040  3.79178340 -0.55994026
  C  0.60744918  0.41028459  1.51519197
  O  1.79723340  0.43459644  1.74327715
  N -0.31940408  0.67288296  2.45506552
  C  0.10637282  1.02153586  3.79281068
  C -1.37939860 -0.37368635 -0.11461702
  C -2.54043368  0.58180069  0.19448877
  O -2.74740036  1.00511762  1.33281927
  N -3.40088650  0.75056256 -0.80786931
  C -4.50168617  1.67900554 -0.71283749
  C -1.54394029 -1.69366430  0.69687266
  O -1.32101295 -2.75259921  0.12996896
  N -2.00634616 -1.60361428  1.94153522
  C -2.04355240 -2.73584541  2.83290424
  N -1.42851921 -0.75484506 -1.53043458
  C -0.08475723 -0.71645577 -2.07741496
  H  3.76648060  0.38173993 -4.13622811
  H  4.35751902  0.65327569 -2.48230555
  H  4.53536375 -0.94474058 -3.23050875
  H  1.96650353 -0.90819676 -3.20471888
  H  0.58587133 -3.48266199 -1.57415563
  H  2.22703320 -2.87343072 -1.88247075
  H  1.90788269 -3.96358292 -0.51544704
  H  1.95561584  1.90646998  0.13192958
  H  2.27945007  4.02731343 -0.85001929
  H  0.57528504  4.04510852 -1.37060243
  H  0.98506310  4.38105709  0.31846352
  H -1.25500079  0.97045254  2.17560111
  H  0.43894516  2.06202112  3.84977379
  H -0.72436359  0.87356353  4.47919395
  H  0.94043984  0.38000177  4.07037147
  H -3.07315812  0.45159939 -1.71718322
  H -4.13392876  2.70790946 -0.69340551
  H -5.16012114  1.54339523 -1.56593778
  H -5.04441129  1.48990891  0.21214230
  H -2.19027234 -0.68541027  2.31946343
  H -1.65785186 -3.60009608  2.29707103
  H -1.41942647 -2.54926982  3.70745137
  H -3.06780244 -2.92740439  3.15540329
  H -1.82518444 -1.68871405 -1.59897696
  H  0.07451453 -1.56245501 -2.74630408
  H  0.01185813  0.21905702 -2.64660356
