36
opt_min/./Product_4291_opt.xyz
  C  0.64216700 -1.39902200 -0.24798199
  O  0.67197374 -2.59087720 -0.46476337
  C -0.62810930 -0.73199148  0.31914895
  O -0.52510881 -0.73160797  1.72132135
  C -0.65464622 -1.97766070  2.37819409
  C -0.82691256  0.71916732 -0.20240918
  O -1.78085855  1.39098883  0.58127733
  C -1.32942275  2.13665351  1.69499253
  C  0.43459516  1.52056120 -0.43689459
  O  0.37598711  2.72395095 -0.58446978
  C  1.72645072  0.80363446 -0.47893623
  C  2.93125425  1.66273372 -0.67582517
  C  1.82760673 -0.54195156 -0.37681701
  C  3.13337061 -1.25480226 -0.50414367
  C -1.50927642  0.43359879 -1.59307749
  C -2.43888290  1.54190667 -2.05799948
  N -2.21694465 -0.80043445 -1.41034853
  C -1.81201874 -1.41082688 -0.37254514
  C -2.35820308 -2.65097152  0.02230891
  N -2.79454891 -3.65808653  0.34982849
  H -0.18265889 -1.84337776  3.35123669
  H -0.15206768 -2.78642124  1.84313436
  H -1.70677280 -2.23943307  2.51899546
  H -0.66648993  1.54726602  2.33095695
  H -0.83318092  3.05985825  1.38372966
  H -2.23518470  2.38771306  2.24441428
  H  3.60720923  1.57800875  0.17376780
  H  2.62576730  2.70108926 -0.77928179
  H  3.47658433  1.35443867 -1.56662754
  H  3.48033751 -1.21711066 -1.53720565
  H  3.01483350 -2.29987904 -0.23015624
  H  3.89152918 -0.79102140  0.12196642
  H -0.73010315  0.26384374 -2.34872840
  H -1.88511229  2.47418336 -2.12418053
  H -2.84280623  1.28257917 -3.03235943
  H -3.25177990  1.66084215 -1.34938712
