44
opt_min/./Product_5434_opt.xyz
  C -0.64435400 -1.73995200  0.74611500
  C -0.04917967 -2.81077263 -0.11552567
  C  0.74151252 -2.49894805 -1.14444758
  N  0.99769682 -1.22124543 -1.56086946
  C  1.87021768 -1.00522262 -2.68875297
  C  0.40740314 -0.11473577 -0.90644885
  C -0.85321085 -0.45480644 -0.07628291
  C -2.06807324 -0.42357263 -1.00264506
  N -2.92737552 -1.45840106 -0.93368900
  O -2.24688468  0.50830628 -1.75828588
  C -0.83594423  0.71496600  0.89001411
  C -2.02146615  1.13901208  1.67798916
  O -2.98724893  0.20939338  1.61164704
  C -4.19282774  0.51621583  2.29874027
  O -2.12686353  2.17218276  2.27598214
  N  0.28521505  1.28393963  1.03128431
  C  1.26445673  0.69527962  0.16239106
  C  2.11653808  1.77503399 -0.50618623
  O  3.07262925  1.54394879 -1.19886885
  O  1.63430427  2.97760937 -0.25423390
  C  2.32511412  4.08896700 -0.81072932
  C  2.19545228 -0.22364706  0.95524471
  O  2.12665434 -0.39901970  2.14177438
  O  3.06877555 -0.81962166  0.15791836
  C  3.98397254 -1.70404714  0.79132594
  H -1.58020010 -2.05563970  1.21147994
  H  0.03579750 -1.50898667  1.57528868
  H -0.23695705 -3.83908804  0.14161138
  H  1.20132074 -3.26319590 -1.75230316
  H  1.57148649 -1.64308999 -3.52424226
  H  2.90939114 -1.21550269 -2.42734091
  H  1.81100663  0.03337198 -3.00227192
  H  0.10851064  0.62918060 -1.66054779
  H -3.68526008 -1.47362940 -1.59547304
  H -2.72566584 -2.29402760 -0.41797536
  H -4.05450712  0.39160568  3.37459995
  H -4.48721712  1.54768288  2.09743257
  H -4.94164965 -0.17910462  1.92845908
  H  2.77450279  3.81787130 -1.76794135
  H  1.58843538  4.87843111 -0.93649426
  H  3.10774021  4.41343986 -0.12254004
  H  4.61321816 -1.15578177  1.49447607
  H  4.58693461 -2.13566438 -0.00248655
  H  3.44197711 -2.48254640  1.33216980
