55
opt_min/./Product_2438_opt.xyz
  C -2.24162120  3.48259807  0.67672774
  O -1.76899219  2.40394131 -0.08838105
  C -1.42033928  1.21699854  0.60927773
  C -0.29709070  0.59238089 -0.18609735
  C  0.15256038 -0.62593354 -0.51757379
  C -0.51119123 -1.99842014 -0.52043561
  C -1.56059046 -1.96768449 -1.65288860
  F -2.30626292 -3.08179144 -1.69735034
  F -2.42283939 -0.95650375 -1.54112499
  F -0.99376313 -1.83336983 -2.85680817
  C  0.48536901 -3.12610892 -0.91486021
  F  1.08170166 -2.99899236 -2.10424875
  F -0.12081603 -4.32425550 -0.97647599
  F  1.45913199 -3.26350062 -0.00833612
  C -1.10191524 -2.52246636  0.81676072
  C -2.47958714 -2.07125418  1.29154211
  C -2.61739778 -0.69990309  1.93810209
  C -2.71487925  0.49146537  0.99370188
  C  1.61390738 -0.49401733 -0.92670201
  C  2.55230280 -0.74210598  0.24997573
  C  2.15112785 -0.68174889  1.57550647
  C  3.06815172 -0.84587045  2.59913147
  C  4.40226522 -1.06619144  2.30850040
  C  4.81788180 -1.10531117  0.98863520
  C  3.89852857 -0.94459281 -0.03083271
  N  1.79647096  0.89599529 -1.31148666
  C  2.12416355  1.12270688 -2.70204686
  C  0.67433573  1.65081042 -0.75271691
  C  1.21276865  2.70340498  0.24013858
  C -0.08394519  2.29760677 -1.82114081
  N -0.61724648  2.73531455 -2.73254016
  H -2.12225590  4.36343068  0.04664193
  H -1.65627770  3.61448347  1.59514878
  H -3.29983043  3.37566835  0.94066971
  H -0.92692777  1.49541196  1.56681150
  H -1.20197923 -3.60480741  0.70176904
  H -0.35684674 -2.34898937  1.59672950
  H -2.74923195 -2.79725332  2.06585312
  H -3.21392996 -2.17525142  0.49189402
  H -1.83117278 -0.53930902  2.68026998
  H -3.57078213 -0.73670700  2.47457070
  H -3.26584548  1.26051246  1.54435837
  H -3.29578006  0.25581038  0.10509194
  H  1.92347893 -1.13424084 -1.75171393
  H  1.11623203 -0.48706651  1.81970582
  H  2.73587348 -0.80377131  3.62661223
  H  5.11681077 -1.20231076  3.10731317
  H  5.85986152 -1.26432654  0.75261811
  H  4.22514475 -0.97828234 -1.06002060
  H  3.04260478  0.58217841 -2.92775867
  H  2.30757184  2.18648561 -2.84560903
  H  1.34338525  0.79826261 -3.40187439
  H  0.85898151  2.52335476  1.25007283
  H  0.93085505  3.70916880 -0.06027616
  H  2.29784483  2.62800018  0.24266703
