51
opt_min/./Product_1492_opt.xyz
  C -3.69915900  0.40396000  2.02570000
  N -2.71076199  0.20347858  0.99184743
  C -1.59258053 -0.52028838  1.24750124
  O -1.44507767 -1.13271777  2.27379908
  C -0.54597830 -0.44848199  0.11636982
  C  0.50408638 -1.60494738  0.14273481
  F  0.17910410 -2.61708555  1.01411004
  C  0.43604820 -2.16752647 -1.29137965
  C -0.88626929 -2.93915067 -1.42288889
  C -1.95018055 -1.82172342 -1.41161016
  C -1.10929859 -0.53852900 -1.31059761
  C  0.12774010 -0.92711640 -2.12567870
  C  1.82276493 -0.93521579  0.65757872
  C  2.54258844 -1.82262698  1.68252280
  C  2.84629211 -0.73384451 -0.47324820
  O  3.19740365 -1.58771278 -1.24713957
  O  3.36376876  0.50180237 -0.47973992
  C  4.39358540  0.75948735 -1.42466248
  N  1.32288284  0.27735304  1.27423231
  C  2.21329498  1.21767892  1.91761432
  C  0.31469824  0.80894571  0.39834803
  C -0.48656990  1.95492541  1.01054980
  N -1.08424501  2.73137280  0.06769717
  C -1.87841011  3.88009413  0.43781416
  O -0.63379854  2.15639557  2.19215528
  H -3.80746352 -0.52407397  2.58452385
  H -4.64985902  0.67849618  1.57387775
  H -3.37770115  1.18688019  2.71789964
  H -2.79514494  0.75272049  0.15524825
  H  1.31420281 -2.74045459 -1.57175232
  H -1.02627761 -3.64767388 -0.61056725
  H -0.89903919 -3.48960429 -2.36344335
  H -2.53744745 -1.82120913 -2.33079764
  H -2.63485593 -1.92454534 -0.57113060
  H -1.63142230  0.35770239 -1.65015691
  H  0.92309639 -0.18429444 -2.12286331
  H -0.11256115 -1.17702852 -3.15801165
  H  3.53461690 -1.43735275  1.90471335
  H  2.64029923 -2.83255501  1.29321446
  H  1.94806433 -1.84615027  2.59153259
  H  5.34553463  0.38590605 -1.04316085
  H  4.43657608  1.83895350 -1.54747061
  H  4.16903976  0.26341415 -2.37039297
  H  1.75337226  1.54515290  2.85100748
  H  2.39607668  2.09878429  1.29077230
  H  3.16594423  0.74765730  2.13487594
  H  0.75372990  1.18584231 -0.55281121
  H -0.86501625  2.60348232 -0.90606316
  H -1.25303011  4.76402429  0.59017402
  H -2.61180982  4.08644122 -0.33864851
  H -2.38265899  3.65511318  1.37652293
