39
opt_min/./Product_1637_opt.xyz
 Cl -2.38033229 -1.10776413  0.92627846
  C -1.04385203 -0.53343890 -0.11694986
  C  0.10307496  0.23729836  0.60811680
 Br -0.28130485  0.74973246  2.44814617
  C  0.23742559  1.51439816 -0.26166038
  C -0.92228490  2.47941471  0.01145494
  C -2.14399171  1.68529706 -0.48378437
  C -1.51657137  0.46843985 -1.18291902
  C -0.17428674  1.02942061 -1.65770317
  C  1.34267823 -0.70950202  0.53776679
  C  2.60598917  0.14922600  0.44592813
  O  2.77315061  0.82053031  1.58188090
  C  3.88966826  1.69529334  1.67890145
  O  3.32647903  0.23714908 -0.51145037
  C  1.53098050 -1.68177983  1.72591489
  N  1.09608068 -1.40699173 -0.72059370
  C  2.01983836 -2.43723786 -1.14515191
  C -0.32125038 -1.75878184 -0.75192393
  C -0.74432289 -2.01392057 -2.12827345
  N -1.07085236 -2.28779872 -3.18697231
  C -0.63903208 -3.01198790 -0.05794738
  N -0.83832439 -4.02904276  0.42263159
  H  1.21588798  1.98115609 -0.18228172
  H -1.00995858  2.79080729  1.04928727
  H -0.77170661  3.37945558 -0.58851337
  H -2.78861228  1.37780344  0.33808295
  H -2.74675893  2.26289190 -1.18375448
  H -2.15868468  0.01989109 -1.93665532
  H -0.29285771  1.85356695 -2.35831574
  H  0.49607799  0.29256312 -2.08783146
  H  3.56792075  2.55570761  2.26266504
  H  4.70543010  1.18064890  2.19048351
  H  4.21662742  1.99854279  0.68244422
  H  0.96883681 -1.36825722  2.59716854
  H  1.19041067 -2.67868454  1.45593875
  H  2.58171375 -1.74465135  2.00060699
  H  1.83493876 -2.64317591 -2.20073724
  H  3.03105403 -2.05392898 -1.04179961
  H  1.92635045 -3.37461082 -0.58362663
