38
opt_min/./Product_3959_opt.xyz
  C  5.30806284  1.24025425  0.69731194
  C  3.98822242  0.59370666  0.38433182
  C  3.88247276 -0.09461866 -0.93949622
  C  3.00467469  0.66497468  1.29330510
  C  1.62544315  0.23462792  1.23913580
  C  0.89503562 -0.14726026  0.19144423
  C -0.57655644 -0.47498355  0.29786068
  C -0.79211817 -1.66805408  1.23216552
  C -1.19242405 -0.74100759 -1.09719343
  C -2.38621487  0.21191053 -1.11223016
  C -3.00750885  0.52231754 -2.37685073
  N -3.63859955  0.70255555 -3.31383401
  C -3.61720838 -0.47812093 -0.39914117
  O -3.77232983 -1.67556320 -0.38209849
  N -4.45576171  0.42275260  0.12754821
  C -5.67973486  0.05199807  0.79527121
  O -1.97752705  1.34226279 -0.36889040
  C -1.37130430  0.78176148  0.77831864
  H  5.58334133  1.08905242  1.73907628
  H  6.10463679  0.84829588  0.07120905
  H  5.24125629  2.31687294  0.52590543
  H  3.41705796  0.56107871 -1.67694153
  H  4.86996754 -0.36507537 -1.31008581
  H  3.28675207 -1.00117491 -0.85707720
  H  3.26151598  1.13206576  2.23932578
  H  1.12404898  0.30318199  2.19465974
  H  1.32119945 -0.19813524 -0.79589067
  H -0.48430063 -2.58486937  0.73509229
  H -0.20180778 -1.56023156  2.13876422
  H -1.83997043 -1.76824409  1.50676471
  H -0.49676052 -0.46945764 -1.89241847
  H -1.52466110 -1.76796000 -1.23503317
  H -4.21961870  1.40162390  0.04779468
  H -6.47603272  0.73970894  0.51484075
  H -5.93878297 -0.95953571  0.48443266
  H -5.55639749  0.06671040  1.88146760
  H -2.14502598  0.49312551  1.50045457
  H -0.71604381  1.53162280  1.21869714
