44
opt_min/./Product_821_opt.xyz
  F -0.36836600 -1.33800900 -1.73956300
  C -0.55385430 -0.91406738 -0.44066308
  C  0.61550036 -0.08529644  0.19143529
  C  1.89118690  0.08896319 -0.61252428
  C  2.30908565 -0.85808039 -1.54265960
  C  3.51132712 -0.71189672 -2.21443378
  C  4.34095061  0.36161263 -1.95325814
  C  3.97534557  1.26373685 -0.96946080
  C  2.77466336  1.12088533 -0.29921289
  C  1.02276918 -1.07538300  1.35593102
  C -0.07727132 -1.09696759  2.39152220
  C -1.05913045 -1.79541439  1.83882098
  C -0.53630508 -2.18543690  0.46933296
  O  0.85196688 -2.32689831  0.71812987
  C -0.10509763  1.21309889  0.68125041
  C  0.28466019  1.61646277  2.11398796
  C -0.81540075  2.20375539  2.95159599
  O  1.42956134  1.56019667  2.49217982
  C  0.14754014  2.48365135 -0.16698109
  O -1.50012709  0.90885009  0.65586697
  C -1.79722602  0.00660793 -0.40052626
  C -1.92860960  0.74086301 -1.74918865
  C -3.13238612 -0.67964672 -0.06104967
  H  1.72176228 -1.73649443 -1.74376525
  H  3.80121838 -1.45657305 -2.94137662
  H  5.27517728  0.47829589 -2.48235868
  H  4.63221165  2.08086008 -0.70954004
  H  2.55451532  1.79571191  0.50978975
  H  2.03908267 -0.93780914  1.71267086
  H -0.03596240 -0.65847167  3.36751131
  H -2.02086032 -2.05208501  2.23404183
  H -0.94318905 -3.07713023 -0.00030218
  H -0.73607321  3.28903066  2.88437230
  H -0.67093282  1.92961323  3.99408301
  H -1.79123035  1.89437863  2.59663520
  H  0.57079641  2.25269987 -1.13946138
  H -0.80819410  2.98683814 -0.29933173
  H  0.82058033  3.16998573  0.34339670
  H -0.95982953  1.00714693 -2.16104083
  H -2.52260089  1.64111113 -1.61107454
  H -2.42790919  0.09555978 -2.46752588
  H -3.00053260 -1.71398724  0.23390465
  H -3.59329600 -0.13290357  0.75763022
  H -3.80605183 -0.65807517 -0.91221169
