53
opt_min/./Product_2328_opt.xyz
  N  2.17574586  2.27158006  1.48530051
  C  1.80131033  1.87549849  0.48122236
  C  1.20576192  1.46486622 -0.76844269
  C  2.08182370  1.73822759 -1.88545269
  N  2.73059332  1.92190400 -2.80679957
  C  0.75730835 -0.00916604 -0.84793249
  C -0.49614082 -0.53071709 -1.02961425
  C -1.95011223 -0.04388611 -1.25494530
 Cl -2.63571211 -1.22627709 -2.49115038
  C -2.75685249 -0.15422718  0.02748603
  C -4.11505964 -0.44429727 -0.00269624
  C -4.86469154 -0.45351254  1.15765815
  C -4.27348395 -0.15844624  2.37275673
  C -2.92061100  0.12311294  2.41741923
  C -2.16846252  0.12161387  1.25719992
  C -2.43798984  1.31022044 -1.95580963
  C -2.33160176  2.73374256 -1.33647795
  C -0.90524818  3.34187193 -1.27540395
  C -0.19845912  2.05796901 -0.93820635
  C -0.25006914 -2.04773612 -1.05279430
  C -0.65406841 -2.84893710  0.20474766
  C  0.00568499 -4.19581000  0.25316604
  O -1.41652515 -2.44977543  1.04057089
  O  1.14244908 -2.19589337 -1.29715028
  N  1.73451289 -0.95918527 -0.91540674
  C  3.01974433 -1.02245657 -0.36570904
  C  4.05614189 -1.50158591 -1.16107627
  C  5.33774789 -1.56223161 -0.64922835
  C  5.59166612 -1.14041047  0.64661937
  C  4.55377756 -0.69258003  1.44512476
  C  3.26250166 -0.64787512  0.95297498
  H -4.59665388 -0.68669225 -0.93841018
  H -5.91728501 -0.69058022  1.10739482
  H -4.85937712 -0.16204690  3.27914417
  H -2.43969146  0.33555738  3.36001172
  H -1.10617255  0.30136733  1.33207311
  H -2.04066920  1.33376301 -2.97497516
  H -3.51453434  1.14366338 -2.04723648
  H -2.73310130  2.69584101 -0.32125492
  H -2.99068606  3.37248228 -1.92601910
  H -0.58743984  3.75201963 -2.23430590
  H -0.85311250  4.12014388 -0.51581317
  H -0.46964193  1.48700953 -1.81383113
  H -0.72207898  1.69513331 -0.05368829
  H -0.75509880 -2.53735724 -1.89588900
  H  1.08696850 -4.07004132  0.24993019
  H -0.30566523 -4.73128784  1.14539051
  H -0.25895310 -4.76619648 -0.63397598
  H  3.84023587 -1.81833163 -2.16787226
  H  6.14310644 -1.93021089 -1.26615316
  H  6.59654500 -1.17688754  1.03905541
  H  4.74176920 -0.38818342  2.46374244
  H  2.44450332 -0.35462817  1.59282636
