49
opt_min/./Product_1754_opt.xyz
  C -1.63506100 -3.06650000 -2.03360400
  N -1.17758144 -2.38797441 -0.84588918
  C -0.59136399 -1.17904224 -0.89798669
  O -0.39611469 -0.60018612 -1.95382694
  C -0.13760422 -0.56326930  0.42200541
  C  1.36794493 -0.84017136  0.73606035
  C  2.06104096 -1.87153528 -0.14177553
  C  1.26911812 -1.25101544  2.23242165
  C  0.67698447 -2.64664699  2.25835961
  C -0.60950834 -2.48197139  1.98046483
  C -0.78659643 -0.98463987  1.77789082
  O  0.16731892 -0.47845306  2.69327741
  C  1.98803639  0.58184705  0.54401870
  C  3.50466043  0.68742189  0.36273245
  N  3.85868661  1.84581612 -0.20585357
  C  5.23222190  2.23160666 -0.40908827
  O  4.28019106 -0.16551417  0.74289176
  N  1.17460061  1.19933508 -0.48735478
  C -0.10476094  0.99056766  0.21483364
  C -1.27984996  1.65145835 -0.42276183
  C -1.09459784  2.88851093 -1.03152590
  C -2.15906844  3.55425725 -1.60838461
  C -3.42486256  2.99580490 -1.58035240
  C -3.61551350  1.76617093 -0.97717190
  C -2.55050862  1.09616653 -0.40051773
  C  0.31548287  1.62907172  1.55791294
  O -0.33884400  2.29245353  2.29874074
  O  1.64297501  1.40271678  1.66990989
  H -1.16737717 -4.05087111 -2.10291325
  H -1.35054151 -2.46246314 -2.89398742
  H -2.72140213 -3.18076512 -2.02510021
  H -1.30673132 -2.84500109  0.04245555
  H  3.05279757 -2.07162474  0.25768816
  H  2.16416810 -1.50054419 -1.16091549
  H  1.49347487 -2.80164979 -0.17748468
  H  2.16626674 -1.06559851  2.81207299
  H  1.24461237 -3.53660134  2.44429127
  H -1.40849525 -3.20149257  1.97841888
  H -1.76864951 -0.56199071  1.97411795
  H  3.12453438  2.49185866 -0.45691892
  H  5.40905576  3.22686488 -0.00170516
  H  5.47453186  2.22866884 -1.47523189
  H  5.86123421  1.50561194  0.10326443
  H  1.18844659  0.69179189 -1.37096579
  H -0.10412399  3.31765552 -1.05084902
  H -1.99580915  4.51289559 -2.08010953
  H -4.25993983  3.51551441 -2.02654042
  H -4.60047337  1.32371265 -0.95576961
  H -2.71634419  0.13249358  0.05599535
