36
opt_min/./Product_3896_opt.xyz
  C  2.30220194 -1.31311914  0.42692992
  C  2.31560991 -0.29304386 -0.67729323
  C  3.65012705 -0.13592467 -1.34799570
  C  1.29063114  0.44666522 -1.09586325
  C -0.14198059  0.53784461 -0.66581107
  C -0.65467440 -0.27295208  0.54456966
  C -1.33468599 -1.58352749  0.25853298
  C -1.94923787 -2.24488670  1.45767827
  C -1.38517034 -2.14747847 -0.93805893
  C -1.55776481  0.81884745  1.23538342
  C -2.01054258  0.52944765  2.57951965
  N -2.31585854  0.32891177  3.66156344
  N -0.75154738  2.02197881  1.15875317
  C -0.62491607  2.00520268 -0.29076079
  C  0.07586324  3.20279847 -0.88603771
  C -2.11424686  1.86462004 -0.62902703
  O -2.72667781  2.25557360 -1.57286284
  O -2.64440345  1.12049493  0.36630836
  H  2.26331060 -0.83758181  1.40642440
  H  3.21136092 -1.90725453  0.39230140
  H  1.45490587 -1.98744889  0.33106691
  H  3.58234456  0.49266505 -2.23122361
  H  4.35929265  0.31907705 -0.65629095
  H  4.04686006 -1.10617601 -1.63725404
  H  1.47421212  1.08436954 -1.94976222
  H -0.74054192  0.26128052 -1.54269612
  H  0.14317112 -0.44845954  1.26908493
  H -1.33417912 -2.10533337  2.34422070
  H -2.07917424 -3.30880656  1.28485360
  H -2.92798159 -1.81178685  1.66219316
  H -1.87303866 -3.09783737 -1.07091983
  H -0.94338897 -1.72764122 -1.82346887
  H  0.13194771  1.94877473  1.65115580
  H -0.05543058  4.05421901 -0.22442967
  H  1.13861315  3.02138592 -1.01561892
  H -0.37212801  3.44214910 -1.84705641
