49
opt_min/./Product_1872_opt.xyz
  C -0.75963411 -0.18741162 -2.09009682
  C -0.04445573 -0.48889902 -0.77209076
  C  1.03963239  0.56102689 -0.34811385
  C  1.54841414  1.37311371 -1.42869183
  N  1.91730090  1.98591438 -2.32224619
  C  2.20948560 -0.43069033  0.05051684
  C  2.79481624 -0.79562897 -1.29931847
  C  1.89816989 -1.60059445 -1.85230833
  C  0.82143650 -1.77896118 -0.80776833
  O  1.53748408 -1.62199321  0.41115249
  C  0.39459121  1.40820391  0.76933172
  C  1.41582389  1.78521219  1.87756976
  N  0.88112502  1.76352017  3.10724757
  C  1.62850606  2.17074596  4.27453253
  O  2.56645144  2.06522932  1.62861575
  C -0.13439598  2.75481078  0.21808509
  O -1.31189033  3.01023695  0.20587751
  O  0.83535808  3.55304408 -0.16959075
  C  0.49187229  4.81753288 -0.73079888
  N -0.71051481  0.64229148  1.29953981
  C -0.97424071 -0.53248245  0.49276412
  C -0.73490647 -1.80378567  1.37200252
  C -0.29301977 -1.56037415  2.78299533
  O -1.00788899 -2.89898372  0.95707182
  C -2.46711128 -0.59968116  0.15928670
  O -3.25924557  0.19998477  0.58673646
  O -2.77295903 -1.63961250 -0.59776542
  C -4.15268034 -1.82747502 -0.88413768
  H -0.82736594 -1.09211447 -2.69363664
  H -1.76163005  0.20068514 -1.93175710
  H -0.21190987  0.55844742 -2.66467788
  H  2.87113303 -0.08613255  0.83604019
  H  3.69309047 -0.37872494 -1.70563200
  H  1.89068195 -2.06003951 -2.82072309
  H  0.26150319 -2.70833385 -0.83081109
  H -0.10042922  1.53845663  3.18721950
  H  1.72728261  3.25958975  4.31376022
  H  1.11504658  1.82364522  5.16753038
  H  2.62840922  1.73820415  4.22907066
  H -0.57844001  4.85257219 -0.94037037
  H  1.07392423  4.92337775 -1.64572902
  H  0.76539536  5.59801565 -0.01837149
  H -1.55891606  1.21651903  1.33135449
  H  0.08905693 -2.49698258  3.18604973
  H  0.46238489 -0.78843129  2.83394313
  H -1.16813488 -1.25294006  3.35715531
  H -4.54661481 -0.96458440 -1.42697897
  H -4.71712798 -1.94112875  0.04323577
  H -4.21391107 -2.72996790 -1.48677613
