63
opt_min/./Product_2848_opt.xyz
  C -4.32075200  2.94752800 -0.18959900
  N -3.36264335  2.14866941  0.53696730
  C -2.26538383  1.64955511 -0.06259310
  O -2.04171657  1.74094756 -1.24437577
  C -1.38391434  0.70943277  0.81868777
  C -1.34062692  1.04564836  2.31855660
  F -2.50402076  0.75279781  2.94399815
  F -1.10711121  2.32060438  2.63479948
  F -0.39294739  0.34284648  2.95684383
  C  0.04488243  0.78482997  0.31985497
  C  0.94552275 -0.18100353  0.03277893
  C  0.78948918 -1.66691264 -0.27043211
  O -0.16973352 -1.70581514 -1.30190987
  C -0.40530854 -2.87772724 -2.06093698
  O  2.09269827 -2.03841972 -0.70805840
  C  2.42252053 -3.32523196 -1.18998062
  C  0.43317510 -2.47951378  1.00466219
  C -1.02426033 -2.89675147  1.17668533
  C -1.97233076 -1.78806238  1.61895674
  C -2.15030306 -0.63099142  0.62372513
  C  2.31972317  0.45528886 -0.09720664
  C  3.11053847  0.25331195  1.23299525
  N  3.59753876 -0.97281484  1.44028105
  C  4.42113713 -1.28928236  2.58180207
  O  3.20191237  1.18126072  2.01085011
  C  3.12168336  0.02911170 -1.34537832
  C  2.39536140  0.31616265 -2.62253217
  O  4.24020918 -0.41231389 -1.27879892
  N  1.99889128  1.85997649 -0.23839630
  N  0.66504651  2.04005136  0.23096286
  C  0.30426535  3.36050933  0.22616261
  O  1.11503597  4.22328398 -0.01246164
  O -0.98246825  3.59818564  0.53494333
  C -1.38120342  4.96303084  0.51964759
  H -5.30913239  2.48712236 -0.13833399
  H -4.37481979  3.95795902  0.21625626
  H -3.99507741  2.98873445 -1.22695791
  H -3.46633605  2.11374173  1.53660060
  H  0.20136482 -2.87382051 -2.97164033
  H -1.45777739 -2.83917893 -2.34853532
  H -0.21957302 -3.79784380 -1.50596964
  H  2.16388322 -3.44684207 -2.24363247
  H  1.97025399 -4.13238308 -0.60709162
  H  3.50785434 -3.38764042 -1.09602774
  H  1.04451258 -3.38435482  1.00809422
  H  0.74175461 -1.88231882  1.86379742
  H -1.40960124 -3.34370093  0.26179868
  H -1.04792016 -3.66770385  1.95065483
  H -1.67613365 -1.44480287  2.60594693
  H -2.95421203 -2.25170552  1.73595373
  H -1.91986925 -0.97422611 -0.38168812
  H -3.20844074 -0.36058491  0.64598874
  H  3.56586197 -1.62094993  0.66923220
  H  5.47076455 -1.37916135  2.29490686
  H  4.31738023 -0.47899909  3.30088865
  H  4.08923619 -2.22526747  3.03202357
  H  2.39492689  1.39657408 -2.75801730
  H  2.90148746 -0.15484860 -3.46052817
  H  1.36042923 -0.00637906 -2.55556752
  H  2.62176619  2.44492742  0.32526342
  H -2.06561422  5.10362016  1.35406648
  H -0.50602897  5.60437128  0.63130102
  H -1.87825630  5.18165341 -0.42714112
