38
opt_min/./Product_778_opt.xyz
  C -0.77561902  3.69857671 -0.67495841
  N -0.73546381  2.36427769 -0.11623714
  C -0.71708586  1.28016364 -0.91880425
  O -0.63180116  1.35797465 -2.12162759
  C -0.64714395 -0.07698273 -0.18461052
  C -1.82037640 -0.44127215  0.77363623
  C -2.50108983  0.63876495  1.41228784
  N -3.00313135  1.50413895  1.97001186
  C -2.69704547 -1.37775766 -0.14346616
  C -2.00501902 -2.72489505 -0.04882181
  C -0.89578213 -2.56808677 -0.76109811
  C -0.93244205 -1.14945686 -1.28780108
  O -2.33652069 -0.94051951 -1.42613100
  C -1.02253583 -1.20634825  1.84592663
  C -1.68551198 -2.00378366  2.80724770
  N -2.23441558 -2.64201456  3.58257366
  N  0.23420825 -1.07943555  1.79585760
  C  0.59860984 -0.16544363  0.73776499
  C  1.90781252 -0.46897003  0.06695193
  C  2.74767228  0.57470242 -0.29495758
  C  3.94380193  0.31831315 -0.94191743
  C  4.31756358 -0.98573936 -1.21770537
  C  3.49264920 -2.03159431 -0.83794945
  C  2.29190810 -1.77521677 -0.20244140
  H -0.35672489  4.40244926  0.03995696
  H -1.79899142  3.99326836 -0.91604983
  H -0.18923040  3.70151706 -1.59280989
  H -0.87306623  2.28485787  0.87834609
  H -3.77036069 -1.32102227  0.01890097
  H -2.39506073 -3.57929158  0.46598083
  H -0.10878741 -3.27204878 -0.93374002
  H -0.41694943 -0.97916667 -2.22871820
  H  0.69985474  0.80900464  1.23830025
  H  2.46307027  1.59591496 -0.08335416
  H  4.58376369  1.13908622 -1.22563822
  H  5.25199425 -1.19150351 -1.71676025
  H  3.79563797 -3.04921482 -1.03718708
  H  1.67063573 -2.59159531  0.12670197
