60
opt_min/./Product_2589_opt.xyz
  C -1.03853009  1.81164447  2.52016063
  O -0.16697272  0.87550103  1.90257098
  C -0.00678986  0.85950044  0.50972177
  C -1.24110769  0.28222958 -0.28522814
  C -2.50093996  0.22099105  0.41584087
  N -3.57674200  0.20193178  0.81044007
  C -1.50505396  1.48636465 -1.28111248
  C -0.36274963  1.64550532 -2.25462259
  C  0.62086802  2.17996493 -1.54478367
  C  0.08400991  2.29221265 -0.13631280
  O -1.29309193  2.56391929 -0.38933202
  C -0.82446836 -1.12316041 -0.79272653
  C -0.99789194 -1.15783969 -2.32562936
  O -0.05061269 -1.20338651 -3.08816776
  N -2.27732692 -1.07623214 -2.73170780
  C -2.65084794 -1.10420263 -4.12751363
  C -1.58907316 -2.26469930 -0.12319969
  C -1.79386880 -2.25157019  1.25549121
  C -2.38512421 -3.32928117  1.89004617
  C -2.76121344 -4.44574501  1.16284528
  C -2.53139612 -4.48211271 -0.20045114
  C -1.94391754 -3.40276585 -0.83855500
  N  0.56782617 -1.25411613 -0.42353067
  C  1.27222723 -2.49434457 -0.64315166
  C  1.17298221 -0.12288403  0.23152966
  C  1.80973982 -0.49123186  1.61707045
  N  1.30394993 -1.62448581  2.15134334
  C  1.67220451 -2.05067823  3.47876648
  O  2.69678439  0.14094647  2.12898139
  C  2.31288810  0.50163506 -0.61720267
  O  3.03483549  1.38024729 -0.19840185
  N  2.45917586 -0.06552927 -1.83341705
  C  3.48999848  0.37693836 -2.74196744
  H -1.21870108  2.69348944  1.90966623
  H -0.55295902  2.10516260  3.44958510
  H -1.99847845  1.33720578  2.74483304
  H -2.51442789  1.51765403 -1.68506629
  H -0.40453969  1.39655954 -3.29485258
  H  1.58070952  2.53777863 -1.85136192
  H  0.55028685  3.03087924  0.50726081
  H -3.01436653 -1.09081073 -2.04411485
  H -1.82146968 -0.70835921 -4.71125232
  H -2.85275635 -2.12456244 -4.46338063
  H -3.53783531 -0.49426871 -4.28125894
  H -1.50887270 -1.39004071  1.84222774
  H -2.54859923 -3.29621735  2.95619743
  H -3.22150400 -5.28634804  1.65898999
  H -2.80272661 -5.35570221 -0.77353908
  H -1.74836228 -3.45748101 -1.89932780
  H  2.31634774 -2.35132060 -0.38015163
  H  0.87486833 -3.31624695 -0.03375974
  H  1.21335048 -2.79642121 -1.69169705
  H  0.45870028 -2.01320296  1.76722805
  H  2.65996988 -1.64887593  3.69593483
  H  1.69691329 -3.13918160  3.51788478
  H  0.97109094 -1.67736863  4.23005581
  H  1.71317468 -0.62952046 -2.22002452
  H  4.34226902 -0.30627193 -2.71539311
  H  3.09587489  0.41781712 -3.75509802
  H  3.83726235  1.36413049 -2.43577658
