40
opt_min/./Product_4800_opt.xyz
  C  1.00044890 -0.08005417  1.11055307
  C -0.11471111  0.43062418  0.20016226
  C  0.28034929  0.27069408 -1.27496992
  N  1.64099117  0.60817921 -1.56761737
  C  1.98671488  0.93095930 -2.93213621
  C  2.53889611  0.84058814 -0.56823636
  C  2.31282923  0.54483050  0.72447077
  C  3.22350135  0.87321336  1.83187671
  N  4.53119767  1.06721466  1.51119464
  O  2.84165461  0.95808912  2.98379825
  C -0.07717625 -1.22650437 -1.53854754
  C -0.62501171 -1.39914461 -2.86836802
  N -1.00515219 -1.51701186 -3.94011768
  O -0.98620398 -1.61738306 -0.52540238
  C -1.35392492 -0.48615234  0.24008528
  C -2.54427268  0.25728988 -0.44998417
  N -2.97748690  1.32418669  0.23851336
  C -4.11784293  2.09503493 -0.20254124
  O -2.94844575 -0.09168077 -1.53448668
  C -1.80759933 -0.89351956  1.63109300
  C -1.92366244 -2.36191683  1.86696429
  O -2.10476635 -0.04872180  2.44466070
  H  1.07652143 -1.16925851  1.01801116
  H  0.78468713  0.15459743  2.15404825
  H -0.34844915  1.46761403  0.44058199
  H -0.38126102  0.89241866 -1.89418923
  H  1.18995152  0.60349415 -3.59653983
  H  2.13400116  2.00796493 -3.06593808
  H  2.90508458  0.41523958 -3.22020783
  H  3.45475139  1.30075601 -0.90970122
  H  4.88138196  0.99149167  0.57606487
  H  5.16663335  1.32027807  2.24932304
  H  0.82350222 -1.85598726 -1.45753907
  H -2.70513846  1.40587189  1.21228796
  H -5.02204876  1.81196092  0.33989602
  H -4.26533817  1.89831170 -1.26344406
  H -3.92301054  3.15548529 -0.04551021
  H -0.96659693 -2.84211722  1.67890700
  H -2.25710332 -2.55391787  2.88347444
  H -2.63121419 -2.77364786  1.14867829
