36
opt_min/./Product_719_opt.xyz
  C -0.83633611 -0.99555455  1.72366363
  C -0.54651763 -0.65389616  0.26870368
  C  0.74565531 -1.25060102 -0.37543908
  C  1.46148745 -2.13502184  0.50001214
  N  1.94772154 -2.86234602  1.23696958
  C  0.12003229 -2.01830662 -1.59862068
  C -0.62398788 -3.19443075 -0.99850557
  C -1.72346241 -2.67403910 -0.47177212
  C -1.62496496 -1.18662959 -0.74176692
  O -0.92322385 -1.14377088 -1.96854256
  C  1.55075684  0.02474684 -0.81008079
  C  1.83381519  0.07433423 -2.23342082
  N  2.07699612  0.12397462 -3.34743596
  C  2.94641093  0.07284294 -0.14095480
  O  3.73025587 -0.83052736 -0.23002544
  O  3.15226160  1.22158767  0.46536579
  C  4.43419824  1.39365784  1.06290851
  N  0.76152157  1.17540340 -0.45509061
  C -0.31774471  0.82777071  0.09654517
  C -1.29332579  1.83382338  0.61985359
  O -2.45533043  1.75077866 -0.02619530
  C -3.46442421  2.67475106  0.37160909
  O -1.06568502  2.57854739  1.53178998
  H -0.08402559 -0.55293565  2.37503079
  H -1.81084796 -0.59963047  2.00482527
  H -0.83657424 -2.07241889  1.87937126
  H  0.80263032 -2.21571815 -2.41981841
  H -0.26275450 -4.20235691 -1.00570275
  H -2.51460755 -3.14097185  0.07950587
  H -2.54039290 -0.60494466 -0.78209628
  H  5.21636417  1.29495295  0.30804367
  H  4.59274862  0.64148974  1.83777970
  H  4.43212914  2.39280693  1.48978188
  H -4.22949691  2.63923935 -0.39958988
  H -3.04363762  3.67809240  0.45475366
  H -3.88031918  2.38300252  1.33792240
