52
opt_min/./Product_5511_opt.xyz
  C -0.86407900 -1.17594900 -1.97287000
  C -0.41234919 -0.97948203 -0.51337292
  C  0.16399380 -2.27481087  0.05206882
  C  0.55109721  0.25455972 -0.45268492
  C  1.94990856 -0.04496001 -0.00506773
  C  2.81318122  0.81825751  0.52610612
  C  4.19001224  0.51826915  0.89056057
  C  4.72620069 -0.85598821  0.62385620
  C  4.93900780  1.45510812  1.47153394
  C -0.23693439  1.30894812  0.39748317
  C  0.39961661  1.56131275  1.78023870
  O  0.63429313  0.68787779  2.56733278
  O  0.58667047  2.85805270  2.00582044
  C  1.10189666  3.23086137  3.27900580
  C -0.46872024  2.61546446 -0.33238606
  C -1.70375917  3.24463733 -0.24490218
  C -1.92438186  4.44092836 -0.90336192
  C -0.91456054  5.02588799 -1.64752361
  C  0.32225300  4.40976822 -1.72493645
  C  0.54568034  3.21083298 -1.07038171
  N -1.48824009  0.69939481  0.74884148
  C -1.58038401 -0.48903463  0.33488067
  C -2.80130620 -1.25625994  0.75470751
  N -3.11648930 -2.33679247  0.00077266
  C -4.30199941 -3.11537123  0.26463123
  O -3.45115662 -0.92790965  1.72089003
  H -1.27652703 -2.16963000 -2.14444937
  H -1.60773531 -0.43070693 -2.25260435
  H -0.01231411 -1.07081188 -2.64389523
  H -0.61039427 -3.03565085  0.12754010
  H  0.95559000 -2.66019599 -0.58943850
  H  0.56073716 -2.10265221  1.05102561
  H  0.65296456  0.65406079 -1.46936427
  H  2.30347340 -1.02906783 -0.27675782
  H  2.50907106  1.83566211  0.72947437
  H  4.63924960 -1.10625695 -0.43302383
  H  4.16715206 -1.59391393  1.19809796
  H  5.77337843 -0.91705140  0.91106587
  H  5.95952801  1.27125962  1.76085120
  H  4.55385350  2.44040703  1.67618981
  H  0.29472052  3.65786741  3.87577648
  H  1.87263444  3.98199179  3.10862666
  H  1.51824256  2.35805154  3.78515956
  H -2.48471157  2.78161346  0.33792841
  H -2.88897577  4.92278859 -0.83226687
  H -1.08819964  5.95960537 -2.16158103
  H  1.12121649  4.86259643 -2.29476982
  H  1.52203507  2.75125319 -1.12832693
  H -2.61752000 -2.53575050 -0.84856776
  H -5.12926905 -2.81339229 -0.38392669
  H -4.09434743 -4.17446704  0.11127661
  H -4.59094533 -2.94148791  1.30003055
