39
opt_min/./Product_1194_opt.xyz
  N -2.43217206  1.89653728  1.65472704
  C -1.46713458  1.75738294  1.05816124
  C -0.27596286  1.60515523  0.26068151
  C  0.94222843  0.99981397  1.00534735
 Cl  0.50903965  0.27807119  2.56752292
  C  1.86001027  2.25482406  1.15025791
  C  1.14176454  3.25941486  2.02344504
  C  0.18816684  3.77281738  1.25932102
  C  0.31130137  3.04179048 -0.06304590
  O  1.70184950  2.79745076 -0.15100498
  C  1.57669592  0.01187886  0.00547179
  C  1.90902211 -1.34624093  0.65035234
  O  2.74107778 -1.46168932  1.51334525
  O  1.24402163 -2.33451086  0.09378233
  C  1.44077957 -3.63323428  0.63479067
  N  0.69042251 -0.11736790 -1.12402883
  C  1.32132715 -0.11523103 -2.42161429
  C -0.50802297  0.67387483 -0.95958220
  C -1.70175051 -0.29898997 -0.57792218
  N -2.92010457  0.16180488 -0.90010139
  C -4.11528182 -0.52573281 -0.46195755
  O -1.48192172 -1.35220277 -0.04041166
  C -0.87365653  1.42259875 -2.13746907
  N -1.21713297  2.02331374 -3.04983057
  H  2.89390024  2.02708858  1.38277933
  H  1.39423152  3.45160764  3.04620535
  H -0.57786416  4.48400448  1.49145054
  H -0.07569948  3.51164301 -0.96130988
  H  2.54938563  0.42809945 -0.30936279
  H  2.49494868 -3.78387333  0.88078148
  H  0.83771161 -3.74629545  1.53723928
  H  1.11055351 -4.33501873 -0.12692525
  H  1.76843744  0.85736540 -2.67811631
  H  0.58648344 -0.38378094 -3.17942641
  H  2.10129291 -0.87487302 -2.41624388
  H -3.03733108  1.07127771 -1.31862862
  H -4.37182138 -0.23283144  0.55926846
  H -4.93688246 -0.27888219 -1.12989456
  H -3.92872280 -1.59847763 -0.48411399
