43
opt_min/./Product_2347_opt.xyz
  F  4.23066300  1.08188500  1.76675900
  C  3.91677971 -0.01807213  1.07272800
  F  4.10542719  0.28776688 -0.22518185
  F  4.80812559 -0.95270950  1.39456124
  C  2.50187730 -0.43218171  1.31140380
  C  1.89852415 -1.61785279  1.27855228
  C  2.39331067 -3.00119871  1.00832041
  F  1.44780526 -3.71783516  0.37633190
  F  2.68757397 -3.65952551  2.13500093
  F  3.47903545 -3.03332498  0.23133503
  C  0.40852757 -1.30546028  1.47162373
  C -0.01334423 -0.73610996  0.09074878
  C  0.67362844  0.64317264  0.13707763
  C  1.37660439  0.58188085  1.51716303
  O  0.46595091 -0.16403041  2.29253819
  C -0.57289530  1.56532287  0.06089110
  C -0.32846640  3.01762886 -0.29303157
  O  0.65363103  3.48156485  0.47811544
  C  0.96206075  4.87020547  0.35099166
  O -0.92818547  3.64612940 -1.11399602
  O -1.41690953  0.85685286 -0.82856911
  C -1.51825291 -0.31283322 -0.06673767
  C -2.42506088 -1.35869899 -0.62766705
  C -3.02983803 -2.27760087  0.21993309
  C -3.84416094 -3.26128324 -0.31291595
  C -4.05129269 -3.32916279 -1.68010208
  C -3.44924295 -2.40749012 -2.52054536
  C -2.63292992 -1.41968811 -1.99903341
  O -1.95937814  0.16408935  1.21987346
  C -1.35910979  1.34469089  1.39272337
  O -1.43698864  2.06298633  2.33360978
  H -0.21864795 -2.08059455  1.89702834
  H  0.27093432 -1.38014504 -0.73990293
  H  1.35206289  0.85695139 -0.68770333
  H  1.62479303  1.53303150  1.97568609
  H  0.93189676  5.16522056 -0.69907313
  H  1.95882253  4.99772383  0.76498719
  H  0.23613952  5.45652678  0.91580747
  H -2.87399413 -2.20004532  1.28388312
  H -4.31861102 -3.97343979  0.34527070
  H -4.68743884 -4.09796522 -2.09197089
  H -3.61776793 -2.45533226 -3.58535990
  H -2.16560806 -0.68393782 -2.63400130
