46
opt_min/./Product_2373_opt.xyz
  C  1.51690618  3.21464941  2.02495780
  N  0.89490116  2.69401733  0.83073905
  C  0.90900540  1.39788843  0.55061366
  O  1.31548473  0.53293481  1.31016068
  C  0.30633787  0.89836452 -0.78637070
 Br  0.00904658  2.48905146 -2.02652279
  C -0.97651076  0.02013752 -0.65867509
  C -1.66598101  0.25729742  0.70361149
  O -2.67108661  0.94115393  0.80749309
  N -1.11476804 -0.34666178  1.76711973
  C -1.66599947 -0.13568779  3.08803092
  C -1.93426666  0.30693975 -1.87534888
  O -1.84317396 -0.38451769 -2.86964736
  N -2.78844669  1.32038316 -1.75970583
  C -3.69514239  1.61630064 -2.84567956
  C -0.44726694 -1.42876663 -0.95638419
  C -1.42869944 -2.23278389 -1.69121876
  N -2.13573487 -3.05317100 -2.06286107
  C -0.01175197 -2.32423675  0.24001337
  C -1.08700713 -3.10297930  0.93583262
  O  1.16214547 -2.45899272  0.46623962
  N  0.68757949 -1.16385180 -1.83861923
  N  1.25203991  0.04833067 -1.39000679
  C  2.58267185  0.33619424 -1.35525120
  O  3.31398865 -0.67489334 -1.83007206
  C  4.72374065 -0.49202329 -1.81900567
  O  2.99116893  1.40084213 -0.95732589
  H  1.99492777  2.38846594  2.54844674
  H  0.76519764  3.67413224  2.66929761
  H  2.26701240  3.95731984  1.75726284
  H  0.63591576  3.36017278  0.11653466
  H -0.13828025 -0.62254978  1.73900648
  H -2.75111527 -0.08305476  3.00901601
  H -1.37753586 -0.96877411  3.72345035
  H -1.30376051  0.79743343  3.52478257
  H -2.95105821  1.73139526 -0.84834579
  H -4.24071383  0.71795148 -3.14029642
  H -3.12859662  1.96770265 -3.70941895
  H -4.38815529  2.38730304 -2.52510431
  H -0.77043755 -3.35479459  1.94491595
  H -2.04816787 -2.60058626  0.93340954
  H -1.20453529 -4.03635410  0.38051432
  H  1.39814079 -1.89530478 -1.77497150
  H  4.96254722  0.57216824 -1.78297780
  H  5.10908894 -0.94225334 -2.73177444
  H  5.14405793 -0.99178389 -0.94434863
