20
opt_min/./Product_3468_opt.xyz
  O  2.34269300 -1.79606500  0.85983700
  C  2.73450344 -0.75040191  0.62440825
  O  3.12987748  0.29533609  0.36297930
  C  0.29166791  0.16181533 -1.61703122
  C -0.55349814  1.00650580 -1.02518701
  C  1.24183716  2.39923949  1.56390565
  O  0.96673689  1.42163515  2.08802975
  O  1.49858083  3.36542571  1.00778652
  C -1.80977319  0.19832355 -0.86557711
  C -3.16221096  0.81416509 -0.65222026
  O -1.69552587 -0.71867045 -1.95473842
  N -0.39783101 -1.08619463 -1.81296633
  O -0.45879141 -1.62070630 -0.34276675
  C -1.32355200 -0.85109808  0.25894581
  O -1.72425935 -0.86994593  1.37615203
  H  1.33556581  0.22769059 -1.84180005
  H -0.39587484  1.98984113 -0.63657319
  H -3.12017436  1.89325824 -0.77365665
  H -3.50886351  0.57772362  0.35375500
  H -3.85476358  0.39534511 -1.37771973
