37
opt_min/./Product_3943_opt.xyz
  C -2.01693200  3.12863500  0.03138700
  C -1.69183134  1.64174822  0.00974907
  C -0.45513490  1.12990469 -0.75771334
  C  0.70708127  2.11623917 -0.76508656
  C -0.13827649 -0.13752128  0.08354240
  C  1.32751535 -0.49126469  0.19888043
  C  2.01636349 -0.92944310 -0.92841390
  C  3.35323705 -1.26480190 -0.83113095
  C  4.01394020 -1.17512030  0.38345606
  C  3.32818738 -0.74707634  1.50700081
  C  1.98947059 -0.40643709  1.41326265
  C -0.85829821 -1.41033599 -0.33298987
  C -1.27229212 -1.67416312 -1.63112876
  C -1.88084729 -2.87711106 -1.94593834
  C -2.08934768 -3.83980031 -0.97456991
  C -1.67468096 -3.58444820  0.32035872
  C -1.06281850 -2.38813230  0.63834277
  N -0.70363737  0.20500134  1.40150501
  N -1.50395756  1.11255569  1.35493528
  H -1.11670956  3.73320031  0.10157591
  H -2.56712410  3.41181777 -0.86266955
  H -2.63469643  3.32716618  0.90385109
  H -2.58197363  1.09713139 -0.34857711
  H -0.71067603  0.88606064 -1.78831431
  H  0.44701399  2.99803403 -1.35223854
  H  1.59175030  1.65859547 -1.20467823
  H  0.95330034  2.43210445  0.24870068
  H  1.50320049 -1.01163246 -1.87586472
  H  3.88083109 -1.60154030 -1.71266496
  H  5.05859356 -1.43971511  0.45521948
  H  3.83390627 -0.67642259  2.45844573
  H  1.44602205 -0.07041604  2.28367652
  H -1.12073341 -0.94751808 -2.41528076
  H -2.19327923 -3.05849899 -2.96449849
  H -2.56535459 -4.77541813 -1.22288475
  H -1.82908591 -4.32450789  1.09240794
  H -0.73650157 -2.18672130  1.64645645
