60
opt_min/./Product_3000_opt.xyz
  C  1.81696700 -3.82816400 -0.26407500
  C  1.52660112 -3.87827505  1.20620297
  O  2.11087074 -4.58460483  1.98066529
  C  0.29019806 -3.05992881  1.63148015
 Br  0.19221392 -3.21089903  3.60835216
  C  0.44546010 -1.61450094  1.31772599
  C -0.32221328 -0.63268999  0.80647520
  C -1.56347803 -0.57129600 -0.04047627
  C -1.09104805 -0.97705645 -1.46752515
  C -1.98001209 -0.65667722 -2.63055931
  O -0.09801540 -1.64847593 -1.60033979
  C -2.23656686  0.81802088  0.07168534
  C -2.72201621  1.20729195  1.43564797
  O -2.45106916  1.51802228 -0.88673839
  C -2.72141033 -1.57184441  0.26761361
  C -2.71929148 -2.15685617  1.68159902
  C -2.25131187 -3.60875501  1.66339206
  C -0.89095129 -3.80402371  0.99763756
  C  0.51876994  0.64075745  0.95777575
  C  0.24004660  1.83898732  0.07694412
  O  0.44072193  1.51571567 -1.19771753
  C  0.18529709  2.54520109 -2.14734423
  O -0.06372193  2.93021094  0.46993407
  N  1.85819380  0.08933562  0.78770407
  C  1.72486413 -0.89717944  1.81702441
  C  2.97108399 -1.65637686  2.13398700
  C  3.27776063 -2.03558076  3.43379067
  C  4.44054319 -2.74133903  3.68365638
  C  5.30635903 -3.05147917  2.64991857
  C  5.02131564 -2.63458295  1.36053716
  C  3.85990095 -1.93237584  1.09920560
  O  1.26994010 -0.11719643  2.99812234
  C  0.49376129  0.83886437  2.51746489
  O -0.12296609  1.63549383  3.15543508
  H  1.56478970 -2.86257433 -0.69368907
  H  2.86100964 -4.07562845 -0.43351879
  H  1.20956084 -4.58609366 -0.75913132
  H -2.76658750 -1.40903532 -2.68577912
  H -1.39136829 -0.71832633 -3.54266843
  H -2.44265351  0.31862264 -2.53927559
  H -3.18522565  2.18850850  1.36300490
  H -1.91524723  1.26623634  2.15898554
  H -3.45088735  0.49017567  1.80410271
  H -2.68603767 -2.39815681 -0.44486119
  H -3.65945042 -1.04800066  0.07043865
  H -2.08771022 -1.57325347  2.35032335
  H -3.73129579 -2.13452584  2.09039970
  H -2.21479903 -3.98695751  2.68551621
  H -2.97881567 -4.21526305  1.11771857
  H -0.66407057 -4.87473466  1.03468261
  H -0.92245610 -3.50411303 -0.05035595
  H  0.41276191  2.11768365 -3.11961623
  H  0.81619354  3.41219064 -1.94454164
  H -0.86310774  2.84372505 -2.08538061
  H  2.60323594  0.75935274  0.96733228
  H  2.60872673 -1.77792489  4.23834482
  H  4.66564009 -3.04958992  4.69290129
  H  6.20845019 -3.60994295  2.84977253
  H  5.70303413 -2.85717096  0.55294508
  H  3.62728011 -1.59523501  0.10056973
