57
opt_min/./Product_5822_opt.xyz
  C  0.69178700 -0.09397900  1.80119500
  O  0.14903660  0.11192083  2.87297649
  C  1.96139929  0.59146887  1.47364532
  O  2.48787884  1.19071015  2.56443095
  C  3.75423734  1.80680187  2.50197948
  C  2.35504374  0.68794702  0.17494112
  O  3.37957283  1.49644276 -0.20279430
  C  3.86428075  1.39466602 -1.52771505
  C  1.50400741  0.00043811 -0.82963406
  O  1.21063918  0.54970757 -1.86655131
  C  1.08264573 -1.39127236 -0.36302429
  C  2.39119375 -2.12935348 -0.02789149
  C  0.13046090 -1.11255849  0.82451972
  C -0.16763250 -2.36094838  1.67654169
  C -1.18738944 -0.71055855  0.06419045
  C -2.48756092 -1.01359793  0.86364629
  N -2.53551112 -0.46918766  2.09056519
  C -3.68912710 -0.61990712  2.94233783
  O -3.40098853 -1.63341645  0.36258979
  C -1.42434082  0.73937992 -0.35432904
  C -2.36752299  0.95723460 -1.36274370
  C -2.66569118  2.22919109 -1.81007432
  C -2.04185565  3.32919122 -1.25065231
  C -1.15278751  3.13665641 -0.21161092
  C -0.86056174  1.86016735  0.24028229
  N -1.15862184 -1.61002070 -1.08206659
  C  0.16647655 -2.14408190 -1.37099038
  C  0.11859688 -3.67884506 -1.16365681
  C  0.53288994 -1.94175747 -2.84769142
  H  3.98171090  2.09224868  3.52862867
  H  4.51670267  1.11462170  2.13637253
  H  3.73773491  2.69429144  1.86614490
  H  4.77850716  1.98507158 -1.54856315
  H  3.14431723  1.79245321 -2.24631747
  H  4.09048473  0.35680819 -1.79004310
  H  2.26268502 -3.20589559 -0.07905641
  H  2.74290971 -1.86722438  0.96746799
  H  3.16502859 -1.86208127 -0.74673202
  H  0.73676303 -2.94541942  1.83452291
  H -0.53474283 -2.05292346  2.65327243
  H -0.92512591 -2.97860467  1.20771543
  H -1.70879513 -0.05402931  2.50210968
  H -3.42810956 -1.16445509  3.85209861
  H -4.44409355 -1.17778808  2.38892300
  H -4.08921819  0.35924505  3.21336406
  H -2.90975510  0.12136062 -1.77875717
  H -3.39489674  2.35819146 -2.59706973
  H -2.25937957  4.32550139 -1.60818719
  H -0.67940040  3.98395955  0.26269726
  H -0.18043920  1.76658540  1.06519276
  H -1.59304815 -1.21320113 -1.90026760
  H  0.77696828 -4.17596371 -1.87289525
  H  0.38575888 -4.00610597 -0.16877983
  H -0.90214142 -3.99624923 -1.36055056
  H -0.10533673 -2.58181278 -3.45342009
  H  0.39532168 -0.91435808 -3.16925220
  H  1.57148745 -2.21741969 -3.02263424
