32
opt_min/./Product_344_opt.xyz
  C -1.96381757  3.19065615  0.74677586
  N -1.23071181  2.13856097  0.08021222
  C -1.34080455  0.87260595  0.51569673
  O -2.05312558  0.56613136  1.45469495
  C -0.55483317 -0.15055852 -0.24355957
  C -0.70704401 -1.48333373 -0.29730443
  C -1.62682035 -2.50163684  0.29222018
  C -2.93644627 -2.05488707  0.83872320
  O -1.26712242 -3.65954349  0.28202072
  C  0.32965734 -2.04520056 -1.25893331
  C -0.36240474 -2.37308967 -2.50227225
  N -0.92704749 -2.54913215 -3.47916372
  O  1.26813535 -1.00172655 -1.45981672
  C  0.65673078  0.22738651 -1.09566922
  C  1.65818787  1.09451397 -0.26539754
  N  2.57109630  0.36644525  0.37706139
  C  3.60357974  0.96003967  1.19381805
  O  1.54394994  2.30027370 -0.21475977
  C  0.24987615  0.98455982 -2.27328361
  N -0.06122953  1.56437452 -3.20660480
  H -1.92507377  4.08919546  0.13912453
  H -2.99753504  2.87379525  0.88668905
  H -1.53683316  3.39818435  1.73077313
  H -0.54003916  2.42269754 -0.59910816
  H -3.41261514 -1.33609939  0.17726207
  H -3.57608367 -2.91934732  0.99548322
  H -2.77172999 -1.54270555  1.78591611
  H  0.84989916 -2.93410970 -0.88602586
  H  2.57403014 -0.63485502  0.25057590
  H  3.34688003  2.00591368  1.35178502
  H  3.65809399  0.44556205  2.15253981
  H  4.57175486  0.89971179  0.69371138
