50
opt_min/./Product_5343_opt.xyz
  C  5.29302614 -2.61850653  0.88862889
  C  4.11224811 -1.72716609  0.64786569
  C  4.39543357 -0.26308327  0.80475683
  C  2.91748899 -2.23805699  0.32754954
  C  1.70633070 -1.49226418  0.09541202
  C  0.53976106 -2.06596004 -0.19737412
  C -0.73509354 -1.33260126 -0.49438077
  C -0.72920448 -0.91629917 -1.96920803
  C -1.99515981 -2.17089646 -0.20618565
  C -2.99108705 -1.10859262  0.18979821
  C -4.43400278 -1.30472663  0.17972004
  C -5.27573795 -0.19814453  0.32676370
  C -6.64513197 -0.35468486  0.30594458
  C -7.19894982 -1.61571675  0.13615959
  C -6.37275643 -2.71741441 -0.01239349
  C -4.99920536 -2.56505573  0.00348935
  N -2.46596087  0.00207107  0.52155520
  C -1.01136941 -0.09379151  0.45649678
  C -0.60090874 -0.49046917  1.79460926
  N -0.36511480 -0.84470504  2.85625630
  C -0.41628086  1.24089913  0.07651865
  C  0.70425051  1.74709771  0.72503826
  C  1.23913483  2.96673017  0.34835112
  C  0.65139986  3.70348337 -0.66506947
  C -0.49269424  3.22629637 -1.28123348
  C -1.02787653  2.00675530 -0.90858804
  H  5.86159392 -2.27194915  1.74993539
  H  4.98548065 -3.64724785  1.05829586
  H  5.95750252 -2.59915852  0.02309434
  H  5.42281083 -0.04855665  0.51626826
  H  4.27464532  0.02462647  1.85024417
  H  3.73161082  0.35257934  0.20428328
  H  2.81802866 -3.31393662  0.24965372
  H  1.76830812 -0.41837071  0.16714451
  H  0.48331509 -3.14087174 -0.30426735
  H -0.56906755 -1.79804172 -2.58795957
  H -1.67986589 -0.46731569 -2.25126722
  H  0.07212191 -0.20854858 -2.16821045
  H -2.31717100 -2.75589162 -1.06735362
  H -1.83069116 -2.84275935  0.64169618
  H -4.81772088  0.76993538  0.46328976
  H -7.28940905  0.50457794  0.42051633
  H -8.27172347 -1.73840955  0.11981046
  H -6.80495435 -3.69876191 -0.14555445
  H -4.36375549 -3.43082778 -0.11447292
  H  1.15263578  1.19679468  1.54035555
  H  2.11388966  3.34458496  0.85734009
  H  1.07177870  4.65309000 -0.96151226
  H -0.97519191  3.80694631 -2.05390282
  H -1.93783165  1.65522820 -1.36978880
