47
opt_min/./Product_4349_opt.xyz
  C  5.80846400  1.71340900 -1.19834100
  C  4.72115547  1.34536718 -0.23783718
  C  5.03487586  1.57421059  1.21419833
  C  3.55612611  0.84371620 -0.66047177
  C  2.44867116  0.45996171  0.18299250
  C  1.30944138 -0.03939979 -0.29688687
  C  0.09447183 -0.44023685  0.48669594
  C  0.39455600 -0.60957143  1.97880578
  C -1.04643678  0.59437427  0.29062177
  C -2.18791031 -0.15258889 -0.43027191
  C -2.06271604  0.07109506 -1.94744843
  C -3.54793840  0.24584972  0.11455237
  C -4.52359519  0.90732768 -0.61725621
  C -5.74496857  1.22660511 -0.04394728
  C -6.01452238  0.88886896  1.26812213
  C -5.05051737  0.22209008  2.00690605
  C -3.83448722 -0.09514664  1.43411509
  N -1.94080954 -1.53876470 -0.02810711
  C -2.73607366 -2.56613351 -0.65659513
  C -0.51192005 -1.74658615 -0.06910231
  H  5.48204731  1.60193127 -2.22870227
  H  6.67997543  1.07623290 -1.03881248
  H  6.12624019  2.74439738 -1.03416259
  H  4.37815260  2.33512659  1.63594723
  H  4.90437034  0.66164692  1.79416251
  H  6.06371457  1.90771067  1.33332261
  H  3.40378770  0.70774437 -1.72503723
  H  2.58280498  0.59311629  1.24557872
  H  1.21097908 -0.14674352 -1.37319891
  H -0.48197644 -1.02525990  2.47264330
  H  1.22971823 -1.29197397  2.12369684
  H  0.63426413  0.34633113  2.43938309
  H -1.39841915  0.94120479  1.26251028
  H -0.71966121  1.46175374 -0.27903301
  H -1.06066812 -0.19609157 -2.27481814
  H -2.77809974 -0.53626058 -2.49980479
  H -2.22820253  1.11902750 -2.18808979
  H -4.35503152  1.18907022 -1.64524820
  H -6.49071407  1.74005370 -0.63485028
  H -6.96714817  1.13871438  1.71047415
  H -5.24827496 -0.05358837  3.03343569
  H -3.09663618 -0.63390031  2.00851297
  H -3.69850802 -2.16188226 -0.96695600
  H -2.24085716 -3.00570177 -1.53323998
  H -2.92338166 -3.36417469  0.06705862
  H -0.15203478 -1.93820900 -1.09842631
  H -0.23773977 -2.61217184  0.54157714
