40
opt_min/./Product_4607_opt.xyz
  C  1.66880400  0.81467200 -0.01508400
  C  0.46737258  0.56782916 -0.93204311
  C -0.20894823 -0.80754357 -0.71739173
  N  0.62133812 -1.81965996 -0.14201600
  C  0.06666008 -3.14452629 -0.04854836
  C  1.94139920 -1.61239050  0.08092851
  C  2.53608281 -0.40520594  0.09448549
  C  3.98630137 -0.35263206  0.28166200
  N  4.52026154  0.88997955  0.52244539
  O  4.70248743 -1.33391976  0.18489840
  C -1.51212778 -0.35583117  0.05892673
  C -2.24456311 -1.37732845  0.91243772
  C -3.23403003 -2.22163254  0.16349013
  O -2.04922864 -1.46117934  2.09746256
  O -2.37791979  0.07612929 -1.04665955
  C -1.84265388  1.23193101 -1.47344321
  O -2.23497473  1.86531463 -2.40575988
  C -0.67529162  1.53918328 -0.52238010
  C -0.30278544  3.00215739 -0.42773352
  N -1.11412750  0.85866867  0.70369657
  C -2.12882565  1.51565903  1.50862895
  H  1.28164378  1.06018838  0.97958773
  H  2.23673794  1.66270666 -0.39651758
  H  0.74785172  0.69645758 -1.97911804
  H -0.57195521 -1.19521289 -1.68621028
  H -0.63751532 -3.21766865  0.78315854
  H -0.45202827 -3.41252827 -0.97424199
  H  0.87022262 -3.85926928  0.11994763
  H  2.54417531 -2.49683214  0.23642133
  H  3.95117019  1.59147561  0.96548126
  H  5.50318642  0.91000424  0.74890729
  H -2.96384958 -2.33380694 -0.88195539
  H -3.33553362 -3.18986415  0.64959987
  H -4.20038167 -1.72016975  0.20761424
  H  0.04286160  3.24657309  0.57380336
  H -1.16217336  3.62328618 -0.67534293
  H  0.48626951  3.23262016 -1.13843230
  H -1.87581349  2.56701060  1.61437373
  H -2.13124890  1.05162033  2.49399988
  H -3.13231055  1.43885873  1.07301281
