39
opt_min/./Product_530_opt.xyz
  C -3.59692404  2.21692592 -2.13169901
  O -2.80524462  1.24752930 -1.44875912
  C -2.22564038  1.62305324 -0.30591042
  O -2.30344718  2.72084316  0.17144409
  C -1.41820217  0.48590608  0.31668983
  C -0.18393718  0.04116276 -0.51393380
  C -0.40728360 -1.47445132 -0.67490144
  C -0.22008069 -2.17294401  0.67743443
  C -1.46758999 -1.73248259  1.47616304
  C -2.21554149 -0.82846365  0.48704253
  C -1.92654868 -1.53519737 -0.83973495
  C  0.95898026  0.46660694  0.38517473
  C  2.36242399  0.32098333  0.06952164
  C  3.32619253  0.67083725  1.02079382
  C  4.66863295  0.53420527  0.73590648
  C  5.07504151  0.04880236 -0.49854066
  C  4.12811227 -0.29658537 -1.44796341
  C  2.78078942 -0.16355253 -1.17062537
  N  0.55495463  0.97007697  1.49501893
  N -0.79130988  0.99697512  1.53754362
  C -1.47352580  1.46350677  2.56057533
  N -2.08096689  1.82560200  3.46347471
  H -4.55187400  1.75151625 -2.37172469
  H -3.74671837  3.09052097 -1.49639361
  H -3.08261844  2.50662534 -3.04852216
  H -0.13336698  0.53112886 -1.48902281
  H  0.18061686 -1.91373727 -1.47898028
  H  0.70996274 -1.88965733  1.16744500
  H -0.20857777 -3.25281554  0.53329638
  H -1.20987214 -1.21936155  2.40075655
  H -2.09211289 -2.58523344  1.73848711
  H -3.26351685 -0.67068415  0.73779573
  H -2.29143751 -0.99339360 -1.70692228
  H -2.30683249 -2.55453399 -0.85111807
  H  2.99469531  1.04733908  1.97528245
  H  5.40741150  0.80548197  1.47504252
  H  6.12720635 -0.05717470 -0.71738644
  H  4.44362185 -0.67121949 -2.41095969
  H  2.05610467 -0.43123808 -1.92410471
