49
opt_min/./Product_5609_opt.xyz
  C -1.99888900 -1.16165500  0.42308100
  O -2.60623146 -1.85718352  1.21076881
  C -0.65665400 -0.55627435  0.77599308
  O -0.04575952 -1.30566010  1.81194290
  C -0.41276436 -0.98390760  3.14096456
  C  0.32572471 -0.45552013 -0.42333521
  O  0.82623084 -1.61079307 -1.00929565
  C  0.97531770 -2.79089551 -0.23599249
  C -0.43605556  0.24707583 -1.57600143
  O  0.04569729  1.15619390 -2.20768156
  C -1.78430490 -0.26200824 -1.86976710
  C -2.29794833  0.06722559 -3.23287105
  C -2.52998606 -0.87558505 -0.92770129
  C -3.93713810 -1.31734074 -1.17028538
  C  1.30762593  0.62580688  0.14036277
  C  2.18550225  1.28819916 -0.92482592
  O  2.89567171  0.62630705 -1.66219404
  N  2.18584254  2.62277643 -0.85481241
  C  2.92938256  3.45260963 -1.76540841
  C  2.28081359  0.06201506  1.21003878
  O  2.20069262  0.36693714  2.38005204
  N  3.19786518 -0.75530840  0.67960750
  C  4.20871222 -1.39786977  1.48262278
  N  0.38383974  1.54749122  0.75385944
  C -0.67616809  0.95315550  1.10297521
  C -1.82426558  1.62880575  1.75416588
  H -1.49619800 -1.00262872  3.27096488
  H  0.00362304 -0.01644547  3.43379295
  H  0.03950290 -1.76602036  3.74515890
  H  1.50510031 -2.60894488  0.69679595
  H -0.00248546 -3.22565922 -0.00969724
  H  1.54055098 -3.46441242 -0.87632043
  H -3.05325893 -0.64015828 -3.56023261
  H -2.73459454  1.06566319 -3.22570998
  H -1.47297713  0.07787753 -3.94109106
  H -3.97717037 -2.05407488 -1.97075812
  H -4.33517652 -1.76474432 -0.26297545
  H -4.55988752 -0.47302073 -1.46106029
  H  1.55635728  3.04835646 -0.19017787
  H  3.49908929  2.79483239 -2.42010099
  H  2.25609775  4.06157953 -2.37058901
  H  3.61416707  4.10143566 -1.21678974
  H  3.25663206 -0.81135145 -0.33120888
  H  4.26651617 -0.87818805  2.43833692
  H  3.95269392 -2.44462913  1.66859535
  H  5.16923878 -1.35026590  0.97404370
  H -2.63296638  0.93061137  1.95043302
  H -2.18152223  2.43175198  1.11162011
  H -1.50312482  2.07840605  2.69259875
