39
opt_min/./Product_4117_opt.xyz
  C  1.43180800  0.90304000 -0.86267100
  C -0.06822275  0.86930472 -1.19992411
  C -0.72061791  0.21159419  0.03711071
  C -0.97283573  1.31291585  1.09643094
  C -1.32264377  0.88598572  2.49581412
  O -0.87120314  2.48309291  0.81752243
  C -2.00920142 -0.49399782 -0.31244787
  C -3.25261186  0.03522587  0.00069368
  C -4.41075285 -0.63373908 -0.36079029
  C -4.34163368 -1.83746284 -1.03720029
  C -3.10520835 -2.36913405 -1.35999086
  C -1.94851721 -1.70022163 -1.00311249
  N  0.32886813 -0.73579680  0.40517808
  C  0.16155246 -1.66051534  1.49938972
  C  1.56694874  0.02564695  0.39651628
  C  2.77505576 -0.90754289  0.36457239
  N  2.70683312 -1.81392974 -0.63171393
  C  3.70864899 -2.82875872 -0.83665361
  O  3.70245079 -0.82624591  1.13918251
  H  2.01880986  0.49710760 -1.68648055
  H  1.78281343  1.91302144 -0.66467360
  H -0.25693137  0.25290222 -2.07813054
  H -0.47716078  1.86281250 -1.37143018
  H -1.65128894 -0.14403623  2.55967607
  H -2.10305360  1.54643118  2.87677220
  H -0.44463199  1.03042549  3.12727346
  H -3.32729869  0.98400061  0.51245567
  H -5.37248217 -0.20863369 -0.10985873
  H -5.24701744 -2.35623250 -1.31667440
  H -3.04065048 -3.30571789 -1.89281127
  H -0.98384235 -2.11832792 -1.24842197
  H  0.52615133 -1.26609481  2.45849943
  H  0.72581049 -2.57066852  1.27829979
  H -0.88782922 -1.93819352  1.59073809
  H  1.66527839  0.65817348  1.29778752
  H  1.85894861 -1.85665356 -1.17601278
  H  3.39572056 -3.78841618 -0.41545554
  H  4.61549421 -2.50388609 -0.32761072
  H  3.90493278 -2.95320388 -1.90318518
