50
opt_min/./Product_2701_opt.xyz
 Cl  1.15311990 -2.26979627  1.99339674
  C  1.59805201 -1.99074694  0.25999881
 Cl  3.40327791 -2.01017318  0.23285838
  C  1.13175743 -0.64752000 -0.18641716
  C -0.10337758 -0.21334447 -0.53820552
  C -1.49909491 -0.69421698 -0.43832478
 Br -2.11875125 -0.79550559 -2.38985988
  C -2.32263302  0.35748617  0.28460624
  C -3.63321746  0.66347541 -0.04750454
  C -4.34445280  1.58971734  0.69261490
  C -3.75998456  2.21360396  1.77983411
  C -2.46036186  1.89691694  2.13240060
  C -1.74688869  0.97110205  1.39477510
  C -1.77643720 -2.03145245  0.24761500
  C -1.45426468 -3.32984428 -0.49967271
  C -0.09393456 -3.95329396 -0.20887206
  C  1.13121512 -3.14689364 -0.64098254
  N  0.07061668  1.07767366 -1.08720157
  C -0.82814304  1.97920750 -1.39887120
  N -1.57099596  2.80359613 -1.69451457
  N  1.44525026  1.25693721 -1.41221974
  C  1.67969261  0.86350945 -2.80038334
  N  2.07764557  0.35922244 -0.51615399
  C  2.94131301  0.96450665  0.41454669
  C  3.86823852  1.88534224 -0.06907313
  C  4.76059206  2.48030984  0.80212198
  C  4.74504950  2.16374127  2.14930637
  C  3.80992037  1.26340381  2.63062859
  C  2.90055128  0.67456351  1.77158658
  H -4.10610139  0.19181093 -0.89509635
  H -5.35896563  1.82579601  0.41051724
  H -4.31396122  2.94274914  2.35114755
  H -1.99365520  2.37291288  2.98163144
  H -0.73571352  0.72207553  1.68401265
  H -1.25137165 -2.01742149  1.20356515
  H -2.84745796 -2.02932050  0.46621383
  H -1.56324576 -3.18465446 -1.57412437
  H -2.20270584 -4.06636811 -0.19982340
  H -0.05240285 -4.89208138 -0.76578018
  H -0.02052698 -4.19549147  0.85157708
  H  0.96702867 -2.74122761 -1.64119546
  H  1.96212199 -3.85074701 -0.70349728
  H  1.16886791  1.57976405 -3.44132604
  H  2.74936057  0.90854365 -2.98526816
  H  1.31808395 -0.14663799 -3.02239283
  H  3.87340523  2.13409337 -1.11744540
  H  5.47712460  3.19251805  0.42039707
  H  5.45176781  2.62318319  2.82321249
  H  3.77541080  1.02301204  3.68298479
  H  2.15868141 -0.00726300  2.15765084
