47
opt_min/./Product_1925_opt.xyz
  C -2.88360200  3.89789600  1.03232600
  O -1.86348129  2.97096464  0.68160751
  C -2.26265325  1.83855702  0.12122924
  O -3.40383350  1.56559194 -0.15073125
  C -1.11623541  0.94506907 -0.20321223
  C  0.08283596  1.26099243 -0.70398084
  C  0.54475177  2.65146422 -1.00065961
  F  1.68797231  2.70002366 -1.69755719
  F  0.75240015  3.38783329  0.09594783
  F -0.36098498  3.31639184 -1.74974371
  C  0.89402979  0.01761047 -1.02447091
  C  0.98453035 -0.18971397 -2.54682022
  C  2.25785794  0.07395946 -0.34389211
  C  2.33921174 -0.27560989  0.99914125
  C  3.55092042 -0.23359434  1.66348723
  C  4.69720299  0.16110389  0.99508368
  C  4.62165005  0.51113623 -0.34088970
  C  3.40965275  0.46886192 -1.00976143
  N  0.08628410 -1.02032160 -0.39248890
  C -1.23629703 -0.53961911 -0.04569986
  C -2.33520716 -1.24882796 -0.88817600
  N -2.72662973 -0.59137404 -1.99001813
  C -3.75422659 -1.14126257 -2.84980899
  O -2.69817693 -2.36757554 -0.60315134
  C -1.57477913 -0.86583739  1.42678903
  O -2.36685755 -0.23823723  2.07640501
  O -0.87964936 -1.90288268  1.84975104
  C -1.14277188 -2.36387301  3.17040309
  H -2.37025626  4.81476838  1.30827648
  H -3.55133100  4.06334076  0.18478528
  H -3.46404752  3.50993522  1.87114838
  H  1.71918914 -0.96057559 -2.76659038
  H  1.26925343  0.72214954 -3.06338030
  H  0.01456490 -0.50995876 -2.92313399
  H  1.44446645 -0.59102274  1.51103333
  H  3.59834183 -0.50923567  2.70637241
  H  5.64513531  0.19519109  1.51146098
  H  5.50961039  0.82056141 -0.87143254
  H  3.37679450  0.75118639 -2.04938408
  H  0.11157300 -1.91676188 -0.85395654
  H -2.49497254  0.38191236 -2.10212258
  H -3.30949885 -1.80103398 -3.59811690
  H -4.44992206 -1.72275132 -2.24548550
  H -4.28582577 -0.33487310 -3.34632479
  H -1.96163678 -3.08463949  3.14541738
  H -0.23131233 -2.84388656  3.51935939
  H -1.41633664 -1.52796350  3.81682841
