54
opt_min/./Product_5806_opt.xyz
  C -0.83253200  1.18542100 -1.59570600
  C -1.95271176  0.61456735 -2.40696376
  C -2.45526139 -0.59508880 -2.16030127
  N -2.02190507 -1.41062016 -1.14695593
  C -2.42696504 -2.79032024 -1.07750536
  C -1.00961763 -0.94412378 -0.27244031
  C -0.02672049  0.05277063 -0.92656172
  C  0.80531641 -0.66224107 -1.98569643
  N  1.76256396  0.09508104 -2.58107433
  O  0.65060334 -1.82894459 -2.26974384
  C  0.68819184  0.60274153  0.33103332
  C  1.30551464  1.99715451  0.05979506
  N  2.57538285  1.92894812 -0.40905123
  C  3.35904994  3.11523709 -0.65897049
  O  0.71264235  3.03520097  0.21043445
  C  1.74671990 -0.25128327  1.02143552
  C  2.22810074  0.27278110  2.22308070
  C  3.16022302 -0.41430038  2.97568349
  C  3.62995610 -1.64382725  2.54159009
  C  3.15590160 -2.17294712  1.35585575
  C  2.21803941 -1.48594474  0.59825555
  O -0.38189305  0.77520507  1.25884466
  C -1.43177348 -0.14769069  1.01759440
  C -2.75850066  0.63669103  0.89779416
  C -4.00858818 -0.16282562  0.67423940
  O -2.76121525  1.83158547  1.02296093
  C -1.60559502 -1.08719215  2.21567099
  C -1.00289419 -0.59642207  3.49221580
  O -2.21610735 -2.12435217  2.11238078
  H -0.18695813  1.79588229 -2.23247323
  H -1.21720586  1.85912663 -0.82283747
  H -2.36107743  1.22334521 -3.19534528
  H -3.24563305 -1.00870283 -2.76883427
  H -3.13847065 -2.96415824 -0.26526000
  H -1.55478016 -3.42421726 -0.90884047
  H -2.88344125 -3.08364255 -2.02018822
  H -0.44101951 -1.81452351  0.07949742
  H  1.74551208  1.09685117 -2.49286184
  H  2.20321439 -0.28233722 -3.40541959
  H  3.04945004  1.03960071 -0.43261112
  H  2.67805288  3.96479474 -0.66301382
  H  4.10747234  3.26463982  0.12258075
  H  3.86144671  3.03900001 -1.62376803
  H  1.85043303  1.22717368  2.56068115
  H  3.51954402  0.00710487  3.90287739
  H  4.35771099 -2.18562824  3.12678952
  H  3.50871177 -3.13290177  1.01006398
  H  1.87157289 -1.93341354 -0.31608766
  H -3.89909748 -1.19562563  0.98479216
  H -4.25408330 -0.12631229 -0.38497923
  H -4.82357581  0.30858662  1.22084098
  H  0.07991553 -0.55722407  3.38865565
  H -1.34460105  0.41934432  3.67932283
  H -1.27495228 -1.25635173  4.31129201
