40
opt_min/./Product_4447_opt.xyz
  C  3.00613500 -2.06156500  1.06139000
  C  3.65867077 -0.93476950  0.31541134
  C  5.14478380 -0.77306408  0.46486982
  C  2.97135747 -0.07778374 -0.45230999
  C  1.54870990 -0.09371725 -0.67039501
  C  0.91957537  0.79119256 -1.44773148
  C -0.56749787  0.81551751 -1.66654413
  C -0.95399817  1.82588526 -2.74606545
  C -1.17832628 -0.57840381 -1.92263817
  N -1.99377843 -0.81162688 -0.72632547
  C -2.68163125 -1.97907207 -0.52210501
  O -2.65576680 -2.88841271 -1.31424606
  O -3.35815666 -1.95775091  0.63028737
  C -4.09740144 -3.12882419  0.94399153
  N -1.97630233  0.21526890  0.12675449
  C -1.23387520  1.15128799 -0.33266301
  C -0.98619092  2.41172709  0.38107897
  O -1.67433808  2.48351749  1.52303229
  C -1.50171008  3.67424300  2.27651091
  O -0.26293396  3.29059479 -0.02552420
  H  2.34898506 -2.63472146  0.40924874
  H  3.74940595 -2.73795811  1.47531804
  H  2.40471136 -1.67466032  1.88501357
  H  5.63768000 -0.87171888 -0.50208623
  H  5.38347509  0.21649103  0.85337886
  H  5.56238748 -1.51596784  1.13885203
  H  3.51108817  0.71290626 -0.95821977
  H  0.98478110 -0.86745076 -0.16633193
  H  1.47762706  1.58837784 -1.91618175
  H -0.59306640  2.81308003 -2.46917119
  H -2.03606916  1.87118613 -2.85799507
  H -0.51239053  1.53899434 -3.69824537
  H -1.81642083 -0.60082292 -2.80886130
  H -0.42968162 -1.36800592 -2.01382642
  H -4.93998989 -2.80941893  1.55360940
  H -3.47060273 -3.82364903  1.50718413
  H -4.44215133 -3.61654185  0.03035172
  H -2.22391373  3.62797789  3.08747586
  H -1.67886509  4.55094177  1.64953126
  H -0.48504542  3.72683658  2.67293214
