48
opt_min/./Product_2087_opt.xyz
  C  3.90068400 -2.85859000 -1.44194000
  C  3.42618089 -1.70646877 -0.59822458
  O  4.14899469 -0.78328392 -0.29009078
  C  2.03713425 -1.74422231 -0.12864481
  C  0.97866528 -2.54503253 -0.32814472
 Br  0.76111031 -4.11251727 -1.29724099
  C -0.19501595 -1.86956854  0.35756103
  C -0.48867373 -0.70570754 -0.65850059
  C  0.61530486  0.27057088 -0.24000021
  C  1.45520367 -0.60351470  0.71000417
  O  0.43974716 -1.26010464  1.44989416
  C -0.14216285  1.42522191  0.47843885
  C  0.40508011  2.77081595  0.00045790
  O  1.69530403  2.89119980  0.29314762
  C  2.34660895  4.10286942 -0.07379120
  O -0.25869561  3.61089470 -0.55150927
  C -0.05359422  1.45544608  2.01569889
  N -1.54285566  1.29645599  0.11787685
  C -1.82214548  0.07622106 -0.64283825
  C -2.24789866  0.42722183 -2.08844446
  C -2.96232058 -0.69504178 -0.00570827
  C -3.83006899 -0.05957568  0.87202078
  C -4.90485677 -0.74173830  1.41364667
  C -5.13497858 -2.06381654  1.07775205
  C -4.28815963 -2.69784544  0.18348257
  C -3.21281915 -2.01669740 -0.35711318
  H  4.01122608 -3.73882904 -0.80737884
  H  4.87122139 -2.61099906 -1.86691009
  H  3.19718331 -3.09516551 -2.23405112
  H -1.03362693 -2.47480453  0.68278591
  H -0.33881618 -1.12420378 -1.66034267
  H  1.17738427  0.67662154 -1.08099913
  H  2.17425849 -0.09053716  1.33842111
  H  1.61203431  4.90253046 -0.18701110
  H  2.87589865  3.95607245 -1.01698562
  H  3.05689461  4.33509003  0.71655988
  H -0.58453180  0.59741099  2.41723458
  H  0.97808067  1.42024525  2.35101431
  H -0.52747097  2.36877186  2.36617772
  H -1.82204522  2.11894997 -0.41044503
  H -3.01211474 -0.26185101 -2.44159497
  H -2.66558811  1.43130263 -2.11696791
  H -1.40501440  0.39233872 -2.77618679
  H -3.63599909  0.96583648  1.14271392
  H -5.56862483 -0.23746330  2.10125722
  H -5.97394854 -2.59688095  1.49884144
  H -4.46824666 -3.72503405 -0.09914062
  H -2.59281281 -2.51354246 -1.09053219
