72
opt_min/./Product_2924_opt.xyz
  C  3.52618767 -2.46630974  1.30192984
  C  3.21060556 -1.56500251  0.14149290
  O  4.06436726 -0.87700562 -0.36018379
  C  1.79423510 -1.66035836 -0.47818092
  C  2.22640355 -2.13499706 -1.91250951
  C  2.06738948 -1.21881726 -3.08441430
  O  2.70782614 -3.23291789 -2.01890933
  C  1.05372281 -0.33628649 -0.49157102
  C -0.24102736  0.05152942 -0.44347033
  C -1.60792842 -0.47443587  0.00677302
  C -2.61803064 -0.21378856 -1.11803990
  C -3.68571545  0.67274442 -1.00699246
  C -4.59404620  0.83815491 -2.03839015
  C -4.45967867  0.12686394 -3.21580471
  C -3.38808161 -0.73438129 -3.35598730
  C -2.48159231 -0.89430281 -2.32428886
  C -1.96486407  0.26189359  1.31652970
  C -3.24831844  0.17984897  1.85595954
  C -3.55779564  0.77695135  3.06494013
  C -2.58378283  1.43839349  3.79216384
  C -1.29244400  1.47679315  3.30209511
  C -0.99160858  0.89487989  2.08222433
  C -1.81005261 -1.94340342  0.50430636
  C -1.52437200 -3.16737541 -0.36000398
  C -0.13394396 -3.15315877 -0.96792566
  C  0.95650275 -2.81971712  0.06013998
  C -0.29167593  1.49442459 -1.04393096
  C -1.24446789  2.58803736 -0.54484478
  C -0.56511383  1.29427881 -2.47031914
  N -0.64903674  1.17311567 -3.60492709
  N  1.08165959  1.97688192 -1.02394750
  C  1.96008095  0.87726644 -0.65505712
  C  2.70967766  1.23765651  0.61742418
  C  3.64082213  2.26804462  0.54275291
  C  4.33355531  2.67571630  1.66726126
  C  4.11160817  2.05345841  2.88424757
  C  3.18505155  1.03032740  2.96805308
  C  2.48583171  0.62911502  1.84181151
  H  4.46460133 -2.14435036  1.74695284
  H  2.73879597 -2.47423355  2.04891338
  H  3.65795825 -3.47720108  0.91764462
  H  1.97826989 -1.81709373 -3.98891616
  H  1.22291918 -0.54268760 -2.99126973
  H  2.97805751 -0.62549084 -3.17181490
  H -3.82524711  1.25895793 -0.11219715
  H -5.41065455  1.53504597 -1.91502572
  H -5.17242426  0.25440345 -4.01637323
  H -3.24447491 -1.27955008 -4.27633988
  H -1.63892447 -1.54206927 -2.49122746
  H -4.02300817 -0.37378626  1.34654114
  H -4.56771622  0.71300249  3.44244031
  H -2.82724575  1.90621230  4.73422359
  H -0.50730286  1.95941332  3.86598369
  H  0.01967406  0.95712500  1.71614200
  H -1.26715140 -2.03843599  1.44775129
  H -2.86806543 -2.00867339  0.76523909
  H -2.26619056 -3.25466245 -1.15549169
  H -1.63912149 -4.04340329  0.28386759
  H -0.11964724 -2.38701155 -1.74289091
  H  0.07715605 -4.10583942 -1.45439442
  H  0.52289531 -2.53545995  1.01567618
  H  1.57457990 -3.69926023  0.22417387
  H -2.20111542  2.53559844 -1.05642694
  H -1.40384907  2.53065482  0.52635481
  H -0.79562217  3.55221850 -0.78048073
  H  1.20068407  2.77274904 -0.40978347
  H  2.70076155  0.73537652 -1.44907168
  H  3.82523440  2.74422083 -0.40895878
  H  5.05460918  3.47630695  1.59049672
  H  4.66125315  2.35955744  3.76200844
  H  3.00446185  0.53757777  3.91242894
  H  1.76160867 -0.16796670  1.93275664
