34
opt_min/./Product_4760_opt.xyz
  O -0.40293000  3.40504200  0.81828900
  C  0.16466826  2.89587140 -0.03014532
  O  0.73119329  2.39837779 -0.89508161
  C -0.14444887  0.06187940  1.06638659
  C -1.39910700  0.00852946  0.63125926
  C -2.36100993 -0.11845828  3.67834355
  O -2.39214206 -1.25291451  3.54834037
  O -2.31723070  1.01977796  3.80624720
  C -1.44602583 -1.09092383 -0.40529512
  C -2.66788116 -1.02468053 -1.28936687
  C -2.43409414 -0.82669331 -2.76070922
  O -3.76297476 -1.07272386 -0.79427763
  C -1.25708340 -2.36855162  0.51633655
  O -2.05203428 -3.21963453  0.74113054
  O -0.00304603 -2.29934007  0.93924198
  C  0.55834609 -1.07161973  0.34500238
  C  2.08624567 -1.07715665  0.33711777
  N  2.56925120 -0.07805288 -0.42450059
  C  3.99429572  0.10992613 -0.58906834
  O  2.76451620 -1.86439491  0.94927505
  N -0.08114148 -1.01092814 -0.95269254
  C  0.33133071 -2.07284951 -1.87238507
  H  0.30200241  0.67939727  1.82005010
  H -2.26393676  0.56726202  0.93159215
  H -2.33904324 -1.79782074 -3.24339479
  H -3.29821018 -0.32672282 -3.19129852
  H -1.52974446 -0.25321245 -2.93790847
  H  1.93482767  0.51290691 -0.93791682
  H  4.46690255  0.21422234  0.38837915
  H  4.17191222  1.00258895 -1.18023195
  H  4.43794824 -0.75489306 -1.08600244
  H -0.50149471 -2.72437774 -2.13032580
  H  0.72256602 -1.61564127 -2.78192012
  H  1.11065800 -2.69237070 -1.42680812
