46
opt_min/./Product_1099_opt.xyz
  C  3.18697200  1.21358600  1.89698700
  C  2.26574295  1.16706466  0.74040259
  C  1.72569090  2.11436347 -0.02774385
  C  1.88234603  3.58762172 -0.04181600
  F  2.67699521  4.05324376  0.93620253
  F  0.70880666  4.23183525  0.08588907
  F  2.41720662  4.02662558 -1.19851618
  C  0.80105084  1.37901238 -0.98841786
  C -0.39280040  0.97037661 -0.06629551
  C  0.22761670 -0.22190843  0.67967319
  C  1.69067551 -0.13090955  0.18388459
  O  1.50581582  0.17280821 -1.18836865
  C -0.54551430 -1.48419150  0.19968125
  C -1.10842362 -2.23946545  1.41489904
  C  0.31931204 -2.46302623 -0.60526157
  N -1.68229583 -0.97810732 -0.57654413
  C -2.19101435 -1.77894917 -1.66351756
  C -1.70644343  0.47187967 -0.68457934
  C -2.85676545  1.04395663  0.20279522
  N -3.74572019  0.12277884  0.60186814
  C -4.91582127  0.45174207  1.37917534
  O -2.92141096  2.22215133  0.48677166
  C -1.94416405  1.03798861 -2.08593320
  H  2.97274581  0.39106474  2.57721748
  H  3.10201724  2.15742386  2.43031496
  H  4.21705676  1.10989562  1.55394262
  H  0.56543899  1.85907284 -1.93049520
  H -0.62261025  1.82829821  0.57382242
  H  0.13897367 -0.13187402  1.76073869
  H  2.32248649 -1.00008857  0.32922398
  H -1.74248095 -3.05966932  1.08415723
  H -0.29909008 -2.65326905  2.01355100
  H -1.70562801 -1.57723523  2.03895275
  H  1.20711284 -2.72717113 -0.03817537
  H  0.64408064 -2.02137148 -1.54359892
  H -0.23905926 -3.37476030 -0.80225528
  H -1.46969376 -1.95862266 -2.46972981
  H -3.05785646 -1.28138679 -2.09139512
  H -2.51995353 -2.74587019 -1.27335047
  H -3.55419294 -0.83367856  0.34074583
  H -4.64679368  1.19331061  2.13340494
  H -5.69563582  0.88510150  0.74653503
  H -5.29773006 -0.44522930  1.86047904
  H -1.81132310  2.11730840 -2.04151479
  H -2.95833891  0.84090335 -2.42473795
  H -1.24089612  0.61458528 -2.79982017
