43
opt_min/./Product_5040_opt.xyz
  C -0.93029432  1.20767537  0.35697983
  C  0.19676939  0.41744305 -0.30654679
  C -0.31023449 -0.74166894 -1.18544497
  N -1.58752361 -0.55184245 -1.79091762
  C -1.98976716 -1.52063664 -2.77812949
  C -2.35292783  0.54865016 -1.53775586
  C -2.08616885  1.44281010 -0.57213091
  C -2.85201668  2.67529873 -0.33507211
  N -4.06041110  2.79735736 -0.96634223
  O -2.42267676  3.58105321  0.35801476
  C -0.19449309 -1.96945906 -0.21144201
  C -0.15633428 -3.24081706 -0.90381774
  N -0.11705513 -4.24636739 -1.44563674
  C -1.32658520 -1.99140200  0.70439548
  N -2.17495445 -2.00265085  1.47050136
  N  1.08174540 -1.68347209  0.42407573
  C  1.49779575 -2.57318676  1.48499339
  C  1.10479063 -0.26502632  0.74726509
  C  2.51481931  0.26710530  0.71268584
  C  2.90674688  1.27035304  1.58741333
  C  4.19204097  1.78004356  1.53359125
  C  5.09623020  1.29054770  0.60706322
  C  4.71025124  0.28992063 -0.26945475
  C  3.42394524 -0.21500945 -0.22021318
  H -0.55783531  2.17432365  0.70106684
  H -1.30091367  0.67216113  1.23863087
  H  0.78149049  1.09854484 -0.93108102
  H  0.42931159 -0.93375834 -1.97864127
  H -1.15772678 -1.75847928 -3.44627434
  H -2.80921829 -1.12270499 -3.37278149
  H -2.32551322 -2.45055432 -2.30697071
  H -3.18195925  0.66363591 -2.22037205
  H -4.62466865  3.57614927 -0.66541602
  H -4.55094493  1.99282854 -1.31251200
  H  1.09879997 -3.57173174  1.31189089
  H  2.58658140 -2.63096311  1.49026532
  H  1.16030779 -2.22925088  2.47254903
  H  0.68680730 -0.08914189  1.75511995
  H  2.20250604  1.65203489  2.31253396
  H  4.48988103  2.56085482  2.21758218
  H  6.09943779  1.68800593  0.56927785
  H  5.41203598 -0.09587965 -0.99408296
  H  3.11793662 -0.99752325 -0.89866816
