34
opt_min/./Product_272_opt.xyz
  C  1.45361589  1.58339811 -1.03486099
  C  1.12327819  0.51479496  0.00187776
  C -0.08332842 -0.40874670 -0.36534013
  C -0.43535299 -0.40227296 -1.76076518
  N -0.65849187 -0.45983311 -2.88144770
  C  0.58059583 -1.82707614 -0.13246673
  C  0.92352045 -1.96906469  1.33430783
  C  1.98487769 -1.19299077  1.52150928
  C  2.25443037 -0.57502804  0.16571406
  O  1.84202800 -1.59536181 -0.72091963
  C -1.19347580  0.02536733  0.62792454
  C -2.07512328 -1.15969439  1.05700662
  C -2.81596002 -1.86451356 -0.03793212
  O -2.14206093 -1.46643061  2.21943287
  C -2.13020182  1.07767382 -0.00370295
  C -2.43337502  2.25214537  0.87557188
  O -2.61398977  0.91386347 -1.09223504
  N -0.48261377  0.59636524  1.76010164
  N  0.78120937  1.07569747  1.30886357
  H  1.74974706  2.50912743 -0.54320803
  H  0.59728423  1.79107212 -1.67519229
  H  2.27205799  1.25497132 -1.67206753
  H  0.05789637 -2.65528921 -0.60337642
  H  0.36540883 -2.56228094  2.03178435
  H  2.52691063 -0.98070403  2.41984473
  H  3.26140764 -0.24099527 -0.05856377
  H -2.57661186 -2.92711260  0.00235449
  H -2.59652470 -1.46572031 -1.02239283
  H -3.88430643 -1.76935586  0.15825335
  H -2.99201845  2.99283347  0.30894924
  H -1.53052631  2.68325588  1.29405226
  H -3.03522657  1.89660561  1.71121798
  H -0.31955974 -0.13103325  2.45945486
  H  0.76211156  2.09237618  1.29227377
