35
opt_min/./Product_3818_opt.xyz
  N -0.03645684  0.53592213  0.49303225
  C  0.70116418  0.25290184 -0.71600622
  N  0.32366998  1.23680236 -1.68088567
  N  2.16627912  0.17640176 -0.56978619
  C  2.81632660  1.38856550 -0.09876592
  C  0.24739163 -1.18249455 -1.19388277
  C  0.82369466 -1.55293702 -2.56620717
  C  0.74984361 -2.11963244 -0.20560241
  N  1.11179200 -2.87037415  0.57755910
  N -1.20605140 -1.31555297 -1.14465158
  C -2.09245844 -0.29036886 -1.28953343
  C -1.98574772  0.55165487 -2.49635459
  C -2.60790132  1.91306373 -2.44971804
  O -1.49825121  0.09472988 -3.51837615
  C -3.24027689 -0.22722028 -0.40614019
  C -3.30984523 -1.26381666  0.70488726
  O -4.13170348  0.60938728 -0.50127999
  H -0.10977476  1.51971134  0.70331412
  H  0.29090359  0.01809937  1.29756771
  H  0.72665438  1.04355021 -2.58730549
  H  0.57804163  2.16949030 -1.38415751
  H  2.41146747 -0.59456514  0.04369071
  H  3.87872625  1.18013538  0.00378685
  H  2.43213384  1.74730869  0.86631399
  H  2.69770108  2.17667522 -0.84245432
  H  1.86594593 -1.24925995 -2.61372688
  H  0.75146462 -2.62756328 -2.71937330
  H  0.23816346 -1.05391924 -3.33378763
  H -1.49851890 -2.03396212 -0.49584198
  H -3.67061288  1.80531687 -2.24167106
  H -2.45345852  2.42034762 -3.39722694
  H -2.17419803  2.48833579 -1.63723520
  H -4.18442744 -1.04285727  1.31139817
  H -2.42419213 -1.21507932  1.33618281
  H -3.41681327 -2.26784353  0.29657838
