59
opt_min/./Product_2352_opt.xyz
  C  2.38902300  2.52405000 -1.20096100
  C  1.82636087  1.16263955 -1.02837770
  C  2.31859689  0.04420490 -0.47625564
  C  3.58874794 -0.25290834  0.15850588
  C  4.77021392  0.36118024 -0.25915776
  C  5.96878965  0.06303748  0.36145767
  C  6.01122662 -0.84685626  1.40396749
  C  4.84576393 -1.47019473  1.81966391
  C  3.64517035 -1.18198046  1.19933197
  C  1.16341766 -0.95222054 -0.54320314
  C  0.18175678 -0.47295278  0.54770862
  C -0.39960282  0.80273396 -0.11560276
  C  0.40400143  0.80080211 -1.44504119
  O  0.51744908 -0.57501770 -1.74749640
  C -1.94101677  0.60294589 -0.05363598
  C -2.56226014  1.97135687  0.36163024
  N -2.62604261  2.85916694 -0.65439252
  C -3.08664441  4.21330316 -0.44428545
  O -2.91082368  2.21741979  1.48561869
  C -2.69652548  0.17635725 -1.31221411
  O -3.77770887 -0.34961651 -1.32199537
  O -2.08714840  0.56231421 -2.44671257
  C -2.74786210  0.24718991 -3.66957528
  N -2.05833031 -0.32173581  1.05645678
  C -3.37268769 -0.72194718  1.53745134
  C -1.05563255 -1.34864857  0.86315805
  C -1.39420637 -2.36894732 -0.23507866
  C -0.76557262 -2.04863514  2.19318535
  O -1.22413837 -1.76387784  3.26070227
  O  0.13880525 -3.02670473  2.01050658
  C  0.56321413 -3.74722254  3.16215269
  H  2.83072842  2.62939911 -2.19317416
  H  3.15807446  2.71919520 -0.45604656
  H  1.59939883  3.26834547 -1.10649173
  H  4.74716597  1.05272017 -1.08582027
  H  6.87836726  0.54096332  0.02668617
  H  6.95062668 -1.07399499  1.88589731
  H  4.87573721 -2.18410875  2.62989887
  H  2.73824371 -1.66862127  1.52533539
  H  1.42092206 -2.00688656 -0.55895351
  H  0.68469831 -0.22991515  1.48673438
  H -0.15591821  1.68443791  0.48089800
  H -0.00422202  1.35893126 -2.27927102
  H -2.32593769  2.60585127 -1.58336121
  H -3.75099224  4.21349195  0.41931135
  H -2.25037429  4.88738208 -0.23996198
  H -3.62326048  4.56293537 -1.32432827
  H -1.96866726  0.14065551 -4.42165407
  H -3.31161650 -0.68008918 -3.56328849
  H -3.43507936  1.05115416 -3.94180449
  H -3.49511499 -0.32431969  2.54731002
  H -3.45924524 -1.80708350  1.57977640
  H -4.16936679 -0.33628742  0.90916262
  H -1.18328740 -1.95602993 -1.21809286
  H -2.44661522 -2.64124645 -0.18152527
  H -0.79424466 -3.26813485 -0.10674856
  H  0.15571340 -4.75818148  3.11946464
  H  0.21087677 -3.24264993  4.06367131
  H  1.65215318 -3.78508165  3.14364800
