39
opt_min/./Product_473_opt.xyz
  C -4.15359488 -0.53771698  0.13949912
  O -2.90923316  0.14776914  0.04892752
  C -1.82319948 -0.58039822  0.31964875
  O -1.86576042 -1.72091549  0.69300638
  C -0.55405681  0.19090604 -0.02989626
  C  0.71894317 -0.19917665  0.76958559
  C  0.42781218 -0.94744285  2.07253781
  C  1.20156857  1.23702712  1.16970233
  C  1.57880226  2.00513815 -0.07688527
  C  0.42865535  2.35787496 -0.63314231
  C -0.63424386  1.73400029  0.25339640
  O -0.03854618  1.82782610  1.53038537
  C  1.59222659 -0.98669906 -0.22050094
  C  3.09512186 -0.70994146 -0.19714076
  C  3.77560923 -0.76878532  1.14752941
  O  3.71453443 -0.51810424 -1.21048677
  N  1.07891198 -0.73690460 -1.55933257
  C  1.25781283 -1.84361009 -2.47147168
  C -0.26178524 -0.16711454 -1.50823494
  C -1.30739671 -0.98931405 -2.08945792
  N -2.13122281 -1.60569689 -2.58879018
  H -4.23297353 -1.05258673  1.09835810
  H -4.22474868 -1.26586237 -0.67146563
  H -4.92606461  0.22125376  0.04229317
  H  0.25929609 -2.00696858  1.89844455
  H  1.25270341 -0.83458322  2.77364812
  H -0.45998369 -0.53843422  2.54829866
  H  1.91120331  1.27370207  1.99096755
  H  2.58517470  2.18169596 -0.40060195
  H  0.23532382  2.93031595 -1.51831515
  H -1.63405527  2.15472483  0.24203252
  H  1.49599517 -2.06476484  0.02262684
  H  4.01435777  0.24669682  1.45733675
  H  3.16622598 -1.25204851  1.90062118
  H  4.71723395 -1.30580762  1.03751372
  H  0.92980053 -1.53934588 -3.46497228
  H  2.31965998 -2.07513881 -2.51873751
  H  0.69701561 -2.74111862 -2.16980371
  H -0.23400943  0.76287541 -2.10257006
