50
opt_min/./Product_2301_opt.xyz
  C -0.71411098  1.64916999 -2.32158103
  O -0.98057622  0.71190415 -1.27843816
  C -0.43038640  0.90782372 -0.03649460
  O -0.67908591  2.18389601  0.48693747
  C -1.92736454  2.80990968  0.18903335
  C  1.17642073  0.74657599 -0.00989653
  O  1.50344869  0.43979086 -1.33096807
  C  2.76915719  0.67925250 -1.94187075
  C  1.83549001  2.04286191  0.49654115
  F  3.17027134  1.91020094  0.64183940
  F  1.40017577  2.43497132  1.69281254
  F  1.66593623  3.05407216 -0.35777255
  C  1.43102384 -0.41734087  0.99282096
  C  2.30035766 -1.57855993  0.42794485
  O  3.51049835 -1.13198170  0.11833437
  C  4.47036238 -2.11910483 -0.25320207
  O  1.94149879 -2.71442655  0.37813804
  C  2.16066813 -0.04311473  2.20196781
  N  2.70005931  0.16352618  3.18760858
  O  0.19397325 -0.93772791  1.40268597
  C -0.94519087 -0.25757758  0.89365109
  C -1.72853841  0.33821313  2.09027812
  C -1.08592817  0.16460070  3.42938268
  O -2.78917036  0.88378321  1.93682842
  C -1.77171445 -1.27587829  0.10838499
  C -1.10677794 -2.05035609 -0.83705768
  C -1.78274279 -3.01909964 -1.55286514
  C -3.13325228 -3.23254611 -1.33407416
  C -3.80206434 -2.45328128 -0.40884593
  C -3.12779575 -1.48170751  0.31294719
  H -0.16056573  1.13910150 -3.10999554
  H -0.14396288  2.50742217 -1.96984261
  H -1.67826783  1.98444118 -2.70887649
  H -1.76041375  3.62488039 -0.51864791
  H -2.31123340  3.20845977  1.12716593
  H -2.64297575  2.09875363 -0.21876115
  H  2.57205525  1.25993921 -2.84561914
  H  3.47894779  1.21938113 -1.32405174
  H  3.20670583 -0.28014602 -2.22180397
  H  4.26974490 -2.48101593 -1.26367443
  H  5.43808361 -1.62679687 -0.20796222
  H  4.42989436 -2.96040019  0.43974060
  H -0.21363928  0.81524653  3.49272398
  H -0.75048140 -0.86037474  3.55966711
  H -1.79560693  0.44140002  4.20511265
  H -0.05564359 -1.89530376 -1.01400244
  H -1.25075712 -3.61372931 -2.28049700
  H -3.65938622 -3.99354517 -1.89124161
  H -4.85752134 -2.60510355 -0.23736166
  H -3.68098558 -0.88138846  1.01658575
