36
opt_min/./Product_3752_opt.xyz
  C  3.83187970 -0.81737333 -0.21351383
  C  2.56818164 -0.15984678 -0.69537081
  C  2.76251377  0.74204559 -1.87404779
  C  1.41062726 -0.42599964 -0.10218229
  C  0.04275490  0.12601352 -0.40901790
  C -0.97778018 -0.30817925  0.65996064
  C -1.67110392 -1.60636248  0.34086101
  C -2.28362425 -1.75664625 -1.02254296
  C -1.74286695 -2.57501295  1.24236565
  C -1.97119574  0.86440433  0.80931618
  C -2.34275607  1.10709853  2.26659182
  N -1.34247915  2.03181849  0.19905175
  C -0.04896718  1.68162820 -0.39400263
  C  1.03541799  2.27202189  0.37624827
  N  1.78239922  2.78411844  1.07408190
  C -0.05872265  2.22229181 -1.74572784
  N -0.12963103  2.62842282 -2.81178969
  H  4.67736580 -0.14481980 -0.33772298
  H  4.02811097 -1.71570965 -0.79923730
  H  3.75774982 -1.10050353  0.83296257
  H  3.14498352  1.71146803 -1.55260389
  H  1.84456084  0.90457763 -2.43108582
  H  3.50071573  0.30311292 -2.54543826
  H  1.41247346 -1.14194764  0.71000081
  H -0.28273243 -0.22304742 -1.39621996
  H -0.45239334 -0.42661940  1.61393266
  H -2.60147462 -0.79889241 -1.43057617
  H -3.14200804 -2.42209003 -0.98032200
  H -1.56213041 -2.19497389 -1.71161116
  H -1.28342029 -2.47066578  2.21128924
  H -2.25259619 -3.50446050  1.04612368
  H -2.89096029  0.65716823  0.24458521
  H -1.45777657  1.36560412  2.84793118
  H -3.06413759  1.91815060  2.34452455
  H -2.78800525  0.20947306  2.68770982
  H -1.26228243  2.80532360  0.84948490
