37
opt_min/./Product_1061_opt.xyz
  C  4.91388625  1.76796233 -0.07395946
  O  3.80032544  0.92023202  0.18698792
  C  2.58710299  1.46154944  0.13211232
  O  2.34113538  2.60982763 -0.12818904
  C  1.54448993  0.44977573  0.40866159
  C  1.57652199 -0.88708952  0.35326382
  C  2.68533730 -1.81487695 -0.00370046
  F  3.24959258 -1.51129847 -1.18520710
  F  3.66716087 -1.83984871  0.90153200
  F  2.24060246 -3.07947930 -0.12116456
  C  0.13884199 -1.32250968  0.58612579
  C -0.58519397 -0.98049027 -0.76161672
  C -0.62242249  0.55799301 -0.67789237
  C  0.08832387  0.78990563  0.68559158
  O -0.33935670 -0.32206085  1.44878750
  C -2.14841443  0.87321398 -0.67806242
  C -2.50132933  1.49194437 -1.94620033
  N -2.78669357  1.91443477 -2.96857483
  C -2.67959946  1.86829844  0.37869690
  C -4.11237745  1.65599723  0.73774257
  O -1.99682415  2.77058475  0.78066963
  N -2.85297067 -0.39687543 -0.61832861
  C -2.04584092 -1.36492397 -0.70372232
  C -2.48335608 -2.77908668 -0.73737235
  H  4.59431522  2.64167142 -0.64417114
  H  5.35173445  2.08545833  0.87318344
  H  5.63228501  1.17692889 -0.63838258
  H -0.02526825 -2.31868939  0.98434400
  H -0.06636341 -1.40266022 -1.62097334
  H -0.11835433  1.08631976 -1.48547574
  H -0.10073797  1.73788397  1.17734250
  H -4.31915168  0.59789009  0.86921837
  H -4.35761269  2.22465216  1.63074823
  H -4.72494803  2.01471790 -0.09006854
  H -2.33546434 -3.16906210 -1.74467179
  H -3.53696092 -2.84975823 -0.48535771
  H -1.89537426 -3.38669520 -0.05369142
