28
opt_min/./Product_37_opt.xyz
  C  3.27739000  1.12996400 -0.10900600
  C  2.32266052  0.13849912  0.44972000
  C  2.36649470 -1.18731364  0.53260930
  F  3.29709843 -2.04491764  0.09565871
  C  1.05383431 -1.64785963  1.13402283
  C -0.00317213 -1.46112175  0.00443853
  C -0.05237299  0.08270496 -0.10053374
  C  0.95123165  0.45916028  1.03938240
  O  0.76312778 -0.56389277  1.99148190
  C -1.53992979  0.38506813  0.16413537
  C -1.81063333  1.65041137  0.96910035
  C -2.31129644  0.40315556 -1.17315453
  O -1.96248191 -0.72471791  0.96069795
  N -1.31540995 -1.88219598  0.48164686
  H  3.54557447  0.87707376 -1.13398998
  H  2.84636613  2.12732659 -0.08930793
  H  4.19373447  1.13082859  0.48093455
  H  1.03525010 -2.60235430  1.64753557
  H  0.25998333 -1.98991086 -0.91236260
  H  0.29543358  0.49275597 -1.04708839
  H  0.81937520  1.43626273  1.49191483
  H -1.12397324  2.44065633  0.67708046
  H -1.68319191  1.42677649  2.02523718
  H -2.83077692  1.98725422  0.81008029
  H -3.28999822 -0.04887326 -1.01967839
  H -1.78818866 -0.15408183 -1.94877973
  H -2.45066673  1.42247305 -1.52117718
  H -1.87282454 -2.24958315 -0.29314005
