37
opt_min/./Product_1676_opt.xyz
 Cl -1.89148981  2.35490109 -0.66556118
  C -1.19363631  0.71156095 -0.66388841
  C -0.16313659  0.38654804  0.45409350
 Br  0.18739964  1.81088413  1.72929931
  C -0.75143019 -0.86566700  1.11950027
  C -1.99496541 -0.46896620  1.92490834
  C -3.01578312 -0.08756629  0.83214108
  C -2.25921560 -0.37983028 -0.47470738
  C -1.42437654 -1.59021578 -0.05332745
  C  1.13948859  0.17905173 -0.38039107
  C  2.27990267 -0.47415032  0.33293347
  C  2.38943369 -1.86016783  0.32398926
  C  3.42313457 -2.46968414  1.01281091
  C  4.34304665 -1.70150295  1.70725492
  C  4.23391908 -0.32251998  1.70984241
  C  3.20426477  0.29752831  1.02396708
  N  0.63277393 -0.48678278 -1.55234121
  C -0.29827081  0.57385708 -1.93728546
  C -1.00053540  0.38504886 -3.16920022
  N -1.56737126  0.21198318 -4.14591605
  C  0.63738479  1.82360179 -1.83081824
  O  0.62944820  2.82102841 -2.47514488
  O  1.49682661  1.51374501 -0.85786636
  H -0.00596052 -1.42174118  1.68580731
  H -1.81494322  0.34097752  2.62826297
  H -2.33602885 -1.33158764  2.49952635
  H -3.91266255 -0.70242751  0.89007359
  H -3.31898591  0.95495611  0.90141232
  H -2.89718978 -0.49834552 -1.34786858
  H -0.74592221 -1.95041869 -0.81887250
  H -2.04832656 -2.41356702  0.28940686
  H  1.67065517 -2.45202445 -0.22125939
  H  3.50745627 -3.54566533  1.00427372
  H  5.14754657 -2.18150386  2.24396110
  H  4.95174601  0.27813205  2.24819427
  H  3.11905333  1.37223023  1.01570510
  H  1.34883050 -0.66083910 -2.25541317
