37
opt_min/./Product_2354_opt.xyz
  C -2.51207400 -2.39173700  0.78185800
  C -1.80827330 -1.23216607  0.09680766
 Br -2.91453401 -0.99932700 -1.64481833
  C -0.33432592 -1.44996757 -0.27166726
 Br  0.51719837 -2.49055916  1.18132810
 Br -0.00029270 -2.47673317 -1.86619491
  C  0.27911616 -0.02068173 -0.25183994
  C  0.01268234  0.79218425 -1.54212654
  C  0.54842339  2.20312758 -1.55317664
  O -0.58087902  0.35072918 -2.48870350
  C  1.77888657 -0.05984066 -0.06846830
  C  2.58290102 -0.25456576 -1.18879533
  C  3.95575792 -0.33882215 -1.05407169
  C  4.54874936 -0.22210950  0.19271747
  C  3.75312786 -0.04124262  1.31089126
  C  2.37737467  0.02632281  1.18280551
  N -0.44173568  0.45790460  0.92880109
  C -0.32236831  1.80338471  1.41081101
  N -1.78234660 -0.07763951  0.92573610
  C -2.87304715  0.85762829  0.78309332
  H -2.38877514 -3.30133811  0.19730425
  H -2.11469121 -2.53550388  1.78355295
  H -3.57545365 -2.18580514  0.86503881
  H -0.22162409  2.89375580 -1.21372982
  H  1.43036419  2.31829559 -0.93094487
  H  0.78479410  2.46814708 -2.58117700
  H  2.13413220 -0.34699555 -2.16661760
  H  4.56214925 -0.51512008 -1.92779637
  H  5.62130910 -0.27984027  0.29236369
  H  4.19902709  0.03450474  2.29083317
  H  1.76663682  0.12660803  2.06514393
  H -0.82898059  2.57329869  0.81688541
  H  0.73451602  2.05260394  1.46910254
  H -0.73666317  1.82116077  2.42046235
  H -3.80177847  0.29111883  0.79402863
  H -2.82350563  1.43304197 -0.14892327
  H -2.87855652  1.53700133  1.63434794
