49
opt_min/./Product_4979_opt.xyz
  C  5.66680336 -1.11626306 -0.20017088
  C  4.20126075 -1.11229693  0.14351541
  C  3.81021266 -0.30949001  1.34342910
  C  3.35980985 -1.81550068 -0.62836308
  C  1.91653442 -1.90667773 -0.57931811
  C  1.04471454 -1.16288350  0.10291606
  C -0.44544541 -1.38154181  0.04636170
  C -0.80478546 -2.59846909  0.92375272
  C -0.95623512 -1.58531491 -1.38966935
  C -2.36714217 -0.98379838 -1.36085020
  C -3.37576459 -2.07183958 -0.96611834
  O -3.98471202 -1.79949167  0.18184939
  C -4.96101388 -2.71829272  0.65322815
  O -3.58447267 -3.05184368 -1.63777153
  C -2.80960056 -0.42412281 -2.71434214
  O -2.33162363  0.05164486 -0.40437240
  C -1.23789258 -0.11091708  0.48881582
  C -0.41664493  1.15843140  0.50187679
  C -0.11851057  1.77712625  1.70867098
  C  0.64818940  2.92836828  1.74231609
  C  1.11947639  3.48125455  0.56483389
  C  0.81518832  2.87943882 -0.64469372
  C  0.05293171  1.72611792 -0.67563672
  H  5.97959135 -2.08363598 -0.58935091
  H  5.86875977 -0.36903440 -0.96949713
  H  6.27989489 -0.87528337  0.66356510
  H  3.01636443 -0.80491766  1.89805861
  H  4.66505237 -0.17748333  2.00385310
  H  3.45778196  0.67983777  1.04641411
  H  3.80017090 -2.39771206 -1.42482539
  H  1.52029737 -2.68435617 -1.22445789
  H  1.37089314 -0.35997911  0.73750860
  H -1.07649251 -2.29389020  1.93178853
  H -1.63866905 -3.15458192  0.50422597
  H  0.04746208 -3.27205868  0.99357013
  H -0.97505820 -2.63172093 -1.68974040
  H -0.33533182 -1.03297957 -2.09628777
  H -5.89955014 -2.17956496  0.78131547
  H -4.62507183 -3.11489897  1.61197866
  H -5.08644470 -3.52787765 -0.06832745
  H -3.78793119  0.04018411 -2.61323856
  H -2.86592685 -1.23053191 -3.44044084
  H -2.10181133  0.32884923 -3.05062721
  H -1.64425209 -0.25833175  1.49932506
  H -0.48216615  1.34741428  2.63231324
  H  0.87578163  3.39438765  2.69057914
  H  1.71766129  4.38061939  0.58926322
  H  1.17606037  3.30908600 -1.56721767
  H -0.18242666  1.26568152 -1.62221694
