56
opt_min/./Product_2073_opt.xyz
  C -2.81090073  3.22448426  0.04498182
  C -2.33561958  1.86395646 -0.37040550
  O -2.61568856  1.38787115 -1.43901568
  C -1.49716792  1.03343710  0.63293537
  C -1.08197879  1.81940434  1.90005917
  F -2.13738484  2.22359928  2.63462246
  F -0.36861943  2.94088723  1.72600343
  F -0.35072210  1.04460889  2.71435669
  C -0.21691206  0.62467825 -0.09733524
  C  0.44378737 -0.50029913 -0.41077781
  C  0.14289586 -1.98111099 -0.54766428
  C  0.16939544 -2.32062246 -2.06563325
  C  1.21422041 -2.81120734  0.17830956
  C -1.22456195 -2.43653680 -0.02211215
  C -2.38678048 -1.70190254 -0.69731008
  C -3.23983737 -0.92074491  0.28829952
  C -2.42127602 -0.06039733  1.23864739
  C  1.84353367 -0.05124398 -0.89751292
  C  2.52150976 -0.88507575 -1.86664570
  N  3.15954278 -1.48720701 -2.60141051
  C  2.83800721  0.07646172  0.26692028
  C  4.13112806  0.48822517 -0.03818446
  C  5.06441404  0.67273355  0.96494761
  C  4.71754193  0.45316385  2.28840649
  C  3.42856755  0.05276484  2.59774565
  C  2.49249774 -0.13395558  1.59394767
  N  1.66244818  1.31606051 -1.40496119
  C  1.45166330  1.45638154 -2.83091355
  C  0.57288393  1.83319241 -0.60228824
  H -3.29264776  3.70521182 -0.80427895
  H -1.99651685  3.84772376  0.40189349
  H -3.53723724  3.12165043  0.85122232
  H  1.03194104 -2.93086411 -2.31385251
  H -0.72220394 -2.87550156 -2.34314743
  H  0.20037225 -1.42739273 -2.68522196
  H  2.21848281 -2.57172488 -0.16106832
  H  1.03935199 -3.86872341 -0.01154680
  H  1.16660421 -2.64831345  1.25338228
  H -1.26533421 -2.33430863  1.06142732
  H -1.29709330 -3.50643859 -0.22373927
  H -2.00360717 -0.99836709 -1.43536010
  H -3.03324920 -2.40532083 -1.22370696
  H -3.82437823 -1.60550457  0.90864211
  H -3.94390273 -0.30468234 -0.27378171
  H -1.79740202 -0.69229421  1.87378331
  H -3.13572943  0.44127742  1.89800982
  H  4.40080558  0.67007156 -1.06731649
  H  6.06562628  0.99065579  0.71317884
  H  5.44612026  0.59678160  3.07351459
  H  3.14153512 -0.11638649  3.62472268
  H  1.49495513 -0.43568818  1.85757584
  H  1.40359160  2.52187905 -3.05604008
  H  2.29714181  1.03045299 -3.36886124
  H  0.52636083  0.97914548 -3.18646963
  H  1.01007054  2.43819454  0.19720832
  H -0.07548085  2.47574803 -1.20507888
