49
opt_min/./Product_4943_opt.xyz
  C  0.56972100 -1.96768700  1.41117000
  C -0.07867962 -0.97895410  0.45388692
  C  0.11400993 -1.43909995 -0.99616261
  C  0.36493308  0.49668330  0.61494223
  C  1.68302802  0.99831868  0.13096696
  C  2.78238994  0.29002615 -0.12250185
  C  4.05183715  0.84695432 -0.56592486
  C  4.14926119  2.32676635 -0.79309364
  C  5.09758325  0.04516608 -0.76979254
  C -0.86658366  1.19053286  0.05518630
  C -0.86708231  2.54698577 -0.49809352
  C -0.05214842  2.87049891 -1.57917591
  C -0.06963408  4.15157269 -2.10049400
  C -0.89321486  5.11729060 -1.54720136
  C -1.71879210  4.79501724 -0.48228679
  C -1.71565873  3.51305720  0.03465776
  N -1.92628605  0.49873143  0.12890347
  C -1.62109924 -0.80497025  0.69910694
  C -2.44381570 -1.91232431  0.02630045
  N -3.31731388 -1.45181972 -0.88111840
  C -4.21671352 -2.30235139 -1.61447849
  O -2.32251644 -3.08291775  0.32679708
  C -2.03855128 -0.80687210  2.17522032
  H  0.63063558 -1.56479623  2.41903274
  H  1.57609060 -2.21882133  1.08462205
  H -0.01509102 -2.88336261  1.42764352
  H  1.16133730 -1.41870559 -1.28196631
  H -0.25272106 -2.45533091 -1.11406336
  H -0.43615750 -0.79075353 -1.67779643
  H  0.33869843  0.73904229  1.69022851
  H  1.72486419  2.07742588  0.05981867
  H  2.78518430 -0.78198693  0.01023203
  H  3.42515738  2.65031729 -1.53992690
  H  3.94651123  2.86700202  0.13079787
  H  5.14444491  2.59318874 -1.13873493
  H  6.04835842  0.42445334 -1.10176760
  H  5.03538850 -1.01823893 -0.60821511
  H  0.57528660  2.11202388 -2.02503180
  H  0.55962065  4.39678228 -2.94392304
  H -0.89779551  6.11912483 -1.95018338
  H -2.36887748  5.54569745 -0.05707769
  H -2.35983632  3.24882567  0.85909931
  H -3.34553216 -0.45106951 -1.01913831
  H -4.06315551 -3.32137382 -1.26176964
  H -4.00681476 -2.25592438 -2.68555018
  H -5.25379396 -2.00928370 -1.44127665
  H -1.43319482 -0.12452777  2.76667275
  H -1.95000320 -1.81173042  2.57709151
  H -3.07805519 -0.49202025  2.24148149
