50
opt_min/./Product_1455_opt.xyz
  C  1.23425900 -1.58266900 -2.20821700
  O  1.24815783 -1.94915376 -0.84547681
  C  0.39252726 -1.30572083  0.06228481
  C -1.08201474 -1.07687691 -0.35820827
  C -1.87841291 -1.91074987  0.64884938
  C -1.62733741 -3.37854210  0.26380012
  C -0.17182864 -3.61528207  0.72514579
  C  0.24704009 -2.24337559  1.28239034
  C -1.06732735 -1.82926685  1.94253513
  C -1.17407992  0.46089609 -0.33721985
  C -2.35289809  1.00292839 -1.14266450
  N -3.16157203  1.82020414 -0.45099624
  C -4.35866649  2.37575699 -1.03947661
  O -2.51420986  0.69481537 -2.30299054
  O -1.18554624  0.93852018  1.03655898
  C  0.08316553  0.77053699  1.47255078
  O  0.45544252  1.08176088  2.56422676
  C  0.86816611  0.18937623  0.29109542
  C  2.35124112  0.34461250  0.38441666
  C  2.98205260 -0.02135622  1.56928399
  C  4.35583953  0.08532180  1.69378768
  C  5.11850955  0.55293406  0.63830319
  C  4.49694874  0.91605047 -0.54256791
  C  3.12327178  0.81331897 -0.67100939
  N  0.13674735  0.83345362 -0.81737349
  C  0.34058669  2.27191341 -0.98581844
  H  0.26459988 -1.77076227 -2.67600397
  H  1.49683242 -0.53642213 -2.35422236
  H  1.98741643 -2.22092620 -2.67019875
  H -1.30016057 -1.38198613 -1.38236966
  H -2.92997445 -1.63309508  0.71035182
  H -1.74945776 -3.54190470 -0.80616843
  H -2.32249422 -4.03750564  0.78602770
  H  0.47799828 -3.93765953 -0.08433656
  H -0.12529763 -4.36052945  1.51919806
  H  1.13394058 -2.27250304  1.90881948
  H -1.07290228 -0.86953968  2.44025007
  H -1.39327374 -2.57688828  2.66693916
  H -2.97641963  2.00180328  0.52422261
  H -4.59035337  3.32661504 -0.56535212
  H -4.18561954  2.52047851 -2.10557207
  H -5.20597398  1.69547550 -0.91694318
  H  2.39715798 -0.36909566  2.40494140
  H  4.82979285 -0.19945904  2.62133032
  H  6.19134722  0.63413779  0.73465770
  H  5.08300486  1.28102294 -1.37426666
  H  2.65914233  1.09725306 -1.60316436
  H -0.53789624  2.84073812 -0.67305292
  H  1.19437168  2.61898971 -0.40441145
  H  0.52124076  2.47120676 -2.04406626
