52
opt_min/./Product_1834_opt.xyz
  C  1.48931800  2.14017400  2.55773100
  O  1.05870821  1.32794022  1.47359583
  C  1.84253823  0.28271081  1.18381436
  O  2.76447581 -0.04875026  1.87498076
  C  1.41987079 -0.43135131 -0.09137639
  C  0.11946539 -1.28663173  0.05058567
  C -0.34157892 -1.58953669  1.48312581
  C  0.69938494 -2.65337801 -0.50820716
  C  1.18508040 -2.53849797 -1.93793559
  C  2.32993378 -1.87648113 -1.87072054
  C  2.48672021 -1.54463238 -0.40219547
  O  1.91772876 -2.68604707  0.21228089
  C -0.95060676 -0.59899154 -0.84916932
  C -1.65438323 -1.69308800 -1.66986979
  C -2.65270292 -2.54192226 -0.93139282
  O -1.40040297 -1.85349267 -2.83732572
  C -2.02678024  0.29070498 -0.23024931
  C -1.92193739  0.96404038  0.97636879
  C -2.91351146  1.84342937  1.38469398
  C -4.02005698  2.07889487  0.59191288
  C -4.12068370  1.44016965 -0.63304387
  C -3.13338947  0.56329093 -1.03853992
  N -0.21476893  0.31048390 -1.73008074
  C  1.15189589  0.52080165 -1.28224436
  C  1.43098025  1.99881307 -0.94572649
  N  0.37061965  2.79848457 -1.11926963
  C  0.40657025  4.21175402 -0.83970110
  O  2.54053975  2.37855305 -0.62506784
  H  1.48952122  1.56694088  3.48805153
  H  2.49841739  2.50541087  2.36225431
  H  0.78473395  2.96556635  2.61359244
  H  0.01158382 -2.57493246  1.78056945
  H  0.06622165 -0.89375871  2.20821439
  H -1.42638318 -1.56685779  1.55697155
  H  0.08935365 -3.52601596 -0.29048919
  H  0.67187060 -2.94646184 -2.78453104
  H  3.02200208 -1.60923575 -2.64482316
  H  3.47696260 -1.33519484 -0.01320036
  H -3.17285328 -3.18569757 -1.63517319
  H -3.36582185 -1.91800752 -0.40089560
  H -2.13938971 -3.15771906 -0.19732389
  H -1.06156991  0.83334608  1.60162294
  H -2.81128835  2.34821996  2.33411229
  H -4.79071164  2.76141143  0.91765698
  H -4.96648999  1.62738836 -1.27769088
  H -3.21619895  0.08955871 -2.00622027
  H -0.28771586 -0.00691738 -2.69257740
  H  1.86089729  0.28836814 -2.08736475
  H -0.50354862  2.33918128 -1.33511850
  H -0.46444164  4.68957930 -1.28052664
  H  0.41706189  4.40091442  0.23693728
  H  1.31547741  4.63715275 -1.26600419
