28
opt_min/./Product_3605_opt.xyz
  C  0.93272200  0.27229700 -1.79285400
  C -0.52546897  0.69937590 -1.54551760
  C -0.76860259  0.12305960 -0.12614516
  C -1.96321621  0.62536564  0.66933583
  N -3.14224380  0.26096660  0.12665350
  C -4.39166380  0.57057645  0.78504538
  O -1.83951866  1.31320772  1.65827217
  N  0.53665973  0.35834818  0.47037870
  C  1.26186076 -0.43690576 -0.46002202
  C  2.74019021 -0.69929733 -0.19752532
  O  3.47313603 -1.21114688 -0.99541482
  O  3.08201906 -0.28773336  1.01331419
  C  4.44237641 -0.46166884  1.40720716
  O  0.54977095 -1.71904080 -0.52194391
  C -0.73590376 -1.39922842 -0.38395575
  O -1.66612651 -2.14453235 -0.50280437
  H  1.59450241  1.12340248 -1.93715051
  H  1.05059583 -0.41982820 -2.62567464
  H -1.22178214  0.30147451 -2.28137092
  H -0.62084146  1.78399116 -1.50702835
  H -3.15519357 -0.49843354 -0.53995601
  H -4.72340618 -0.25685002  1.41684188
  H -4.23075642  1.44786136  1.41028993
  H -5.15463433  0.78099494  0.03737524
  H  0.60589506  0.09320652  1.44690276
  H  4.69657908  0.39177024  2.03266016
  H  5.08140369 -0.50828958  0.52428310
  H  4.53551239 -1.38836518  1.97607851
