42
opt_min/./Product_1050_opt.xyz
  C -2.14888282  3.53471366 -0.20572120
  N -1.28628721  2.38530718 -0.33398209
  C -1.34640031  1.36729302  0.54009348
  O -2.17629854  1.32207431  1.42738473
  C -0.38033802  0.18730269  0.35973952
  C  0.89488413  0.28715829 -0.52923540
  F  1.15173764  1.52878626 -1.07273922
  C  0.67013944 -0.76442855 -1.62988424
  C -0.45397428 -0.26893083 -2.55033329
  C -1.71869128 -0.43640199 -1.68494282
  C -1.15996309 -0.95968632 -0.35260853
  C -0.03068421 -1.87290280 -0.83845872
  C  2.06702769 -0.07098870  0.43746525
  C  3.18682983 -0.91015325 -0.20284480
  O  3.39915116 -2.01435588  0.48255574
  C  4.43976840 -2.87381912  0.03151989
  O  3.78283389 -0.56969993 -1.18860346
  C  2.72980615  1.14328117  0.91365637
  N  3.22313281  2.07431322  1.35180458
  O  1.48923518 -0.78141474  1.50330177
  C  0.17562982 -0.26032604  1.75275699
  C  0.25062948  0.85449326  2.80811616
  C -0.59003726 -1.35441120  2.33837814
  N -1.14706602 -2.20535723  2.85531615
  H -1.57273635  4.44385797 -0.36522710
  H -2.96517988  3.49259865 -0.93073870
  H -2.57326950  3.53392115  0.79637494
  H -0.62023129  2.40127170 -1.08831455
  H  1.58577134 -1.01219825 -2.16084409
  H -0.28784044  0.75582502 -2.87952467
  H -0.49670539 -0.89721374 -3.43880776
  H -2.28174626  0.48624393 -1.56788488
  H -2.39114760 -1.17793331 -2.11134056
  H -1.92218886 -1.41239645  0.27696537
  H  0.56994785 -2.28451987 -0.02959691
  H -0.38769294 -2.67936250 -1.46955516
  H  4.02217456 -3.63143883 -0.63282090
  H  4.85681961 -3.34471806  0.91880609
  H  5.20065393 -2.29869903 -0.49885983
  H  0.75252424  1.73038913  2.40181745
  H  0.82373704  0.47710290  3.65219083
  H -0.74576662  1.13149266  3.13883068
