38
opt_min/./Product_452_opt.xyz
  C -0.12241900  2.34916800  1.16238700
  C  0.13142566  1.59263611 -0.15291027
  F -0.47111111  2.32185021 -1.18556607
  C -0.60453093  0.28268972 -0.08364987
  C -0.30303659 -0.98293028  0.23767227
  C  1.00399023 -1.70708537  0.33841850
  F  1.56381723 -1.54269069  1.58526888
  F  0.78432745 -3.06014903  0.29104033
  C  2.00029123 -1.37065275 -0.77727413
  C  3.10194036 -0.40343893 -0.35614476
  C  2.61942576  0.86945301  0.32978754
  C  1.63076504  1.68338217 -0.50420795
  C -1.65167190 -1.75578712  0.17410154
  C -1.82658545 -3.09300905  0.85239518
  N -2.61896667 -0.76077792  0.56082954
  C -2.13170339  0.27836897 -0.33560150
  C -2.97672128  1.52569104 -0.41518578
  C -2.19539539 -0.58551496 -1.63216026
  O -2.43023628 -0.22264578 -2.73930367
  O -1.91190265 -1.83430749 -1.25300629
  H  0.71243659  2.19817010  1.84210429
  H -0.21511946  3.40974848  0.94035053
  H -1.02911939  2.01893229  1.66253674
  H  2.46064702 -2.31554734 -1.08281585
  H  1.44220917 -0.97446368 -1.62838345
  H  3.65610278 -0.13446276 -1.25679219
  H  3.79134656 -0.91875386  0.32182945
  H  2.20090815  0.65298963  1.31104024
  H  3.51397029  1.48465980  0.48204994
  H  1.85599126  2.74090386 -0.33221143
  H  1.76181842  1.49652232 -1.57236307
  H -1.58520269 -3.88874247  0.15411857
  H -2.86648172 -3.18683809  1.15776653
  H -1.18109384 -3.17375706  1.72300513
  H -2.56158883 -0.51554465  1.54578471
  H -2.79406556  2.02987615 -1.36007253
  H -4.01998061  1.21648935 -0.37824847
  H -2.77757382  2.21148439  0.40267513
