46
opt_min/./Product_4613_opt.xyz
  C -0.48017600 -2.07926700 -0.88119200
  C -0.64750958 -0.55719522 -1.07105697
  C -0.38607219 -0.22836708 -2.54239563
  C -2.10517573 -0.17541078 -0.65843841
  C -2.89295791  0.61314836 -1.67116759
  O -3.52418145  1.61922229 -1.51593861
  C -2.01077630  0.38583061  0.79389309
  C -2.26155717  1.89818596  0.89323020
  C -3.06577070 -0.28649305  1.68343847
  N -0.62792832  0.11673793  1.21476690
  C -0.39470439 -0.97099806  2.14506985
  C  0.20574241  0.19364385  0.01683716
  C  0.58511362  1.69042616 -0.18066987
  C  1.24737894  2.13351721 -1.46415774
  O  0.51266002  2.45258588  0.74767631
  C  1.64927351 -0.23577753  0.26912400
  C  2.24528944  0.16637531  1.46503807
  C  3.56763078 -0.12361035  1.74041390
  C  4.33920737 -0.80889400  0.81781643
  C  3.77351771 -1.18082601 -0.38854368
  C  2.44886894 -0.88947392 -0.66440257
  H -1.04875861 -2.44017543 -0.02989175
  H  0.55486082 -2.36112198 -0.71883648
  H -0.83724538 -2.60548858 -1.76499007
  H -1.03319990 -0.84204043 -3.16569762
  H  0.63681030 -0.45131732 -2.82863711
  H -0.58958401  0.81391665 -2.76509930
  H -2.68895273 -1.10562525 -0.63255568
  H -2.92475849  0.09641818 -2.65460188
  H -1.79470627  2.44947242  0.08597265
  H -3.32391539  2.11916003  0.87180073
  H -1.84130413  2.25111807  1.83044510
  H -3.10605434 -1.36587272  1.55026500
  H -2.87081431 -0.07079927  2.72966088
  H -4.04434968  0.11036998  1.43017663
  H  0.59699254 -1.39107388  2.00287129
  H -0.44695843 -0.57943005  3.16540558
  H -1.11077855 -1.79019412  2.06099480
  H  1.69755245  1.32423620 -2.02308568
  H  0.50778314  2.64130365 -2.08136099
  H  2.00992492  2.86513314 -1.20582948
  H  1.66446143  0.73284026  2.17603998
  H  3.99961980  0.19645642  2.67698998
  H  5.37384163 -1.03793580  1.02519213
  H  4.36399039 -1.69927263 -1.12948635
  H  2.05679351 -1.18376728 -1.62520457
