55
opt_min/./Product_5860_opt.xyz
  C  1.44317200  0.70373500  0.47194000
  O  1.55580431  1.78018180  1.02401218
  C  2.58374922  0.05564391 -0.21569330
  O  3.83095506  0.58240192 -0.08393770
  C  4.00305415  1.99352630 -0.09418032
  C  2.40761470 -1.06392092 -0.97627281
  O  3.31921548 -1.69808750 -1.73882696
  C  4.45932800 -1.00482663 -2.20749020
  C  1.06273136 -1.65345581 -1.10685225
  O  0.69466268 -2.19433080 -2.12431342
  C  0.19623692 -1.54334965  0.14513238
  C  0.80493252 -2.50932618  1.16302609
  C  0.13832084 -0.07323894  0.59869955
  C -0.31504355  0.06868508  2.05675544
  C -0.98085189  0.48027049 -0.36169003
  C -0.36922785  0.78690423 -1.73408833
  C -1.26927506  0.54231662 -2.89933773
  O  0.75206036  1.22724899 -1.83815893
  C -1.59527171  1.77780702  0.14233025
  C -2.78526630  1.79374774  0.86346663
  C -3.30914774  2.98259527  1.33910274
  C -2.65362299  4.17903575  1.10988577
  C -1.46351808  4.17356916  0.40500025
  C -0.94035288  2.98695756 -0.07591161
  N -1.92512745 -0.60714172 -0.52193879
  C -1.26942319 -1.87354677 -0.24780816
  C -2.04197775 -2.64248925  0.80997295
  O -1.77522198 -3.94280465  0.78101034
  C -2.46607833 -4.75359825  1.72305581
  O -2.83432152 -2.13157403  1.56432329
  H  5.02505672  2.15656461 -0.43885804
  H  3.87889382  2.40997550  0.90627322
  H  3.30007187  2.47154610 -0.77568862
  H  4.89717982 -1.65933797 -2.96029713
  H  4.18180211 -0.05252501 -2.66263808
  H  5.17645466 -0.82984319 -1.40299515
  H  1.81411381 -2.19347905  1.41782621
  H  0.21032637 -2.55215064  2.07112789
  H  0.85058091 -3.50800018  0.73394423
  H -1.27258663 -0.41718315  2.22044758
  H  0.42596516 -0.36437287  2.72426926
  H -0.40678219  1.12342042  2.30225614
  H -2.25202083  0.96135699 -2.69921102
  H -0.84008802  0.96851686 -3.80124138
  H -1.38793022 -0.53200916 -3.01908383
  H -3.31873898  0.88283338  1.09049262
  H -4.23252352  2.96768042  1.89896725
  H -3.06382555  5.10545445  1.48327599
  H -0.93358028  5.09701797  0.22654261
  H -0.00682547  3.01129935 -0.61336137
  H -2.73098514 -0.51483751  0.08699346
  H -1.24687667 -2.49796763 -1.15202689
  H -2.02505373 -5.74389798  1.65269192
  H -2.35029892 -4.34975751  2.73071204
  H -3.52928291 -4.79059792  1.47902740
