64
opt_min/./Product_2910_opt.xyz
  C  2.13734902  4.37404299 -1.12597398
  O  1.61374481  3.09034378 -1.44544629
  C  1.75668067  2.13896467 -0.50871470
  O  2.31649150  2.35021096  0.52603017
  C  1.07809019  0.84696205 -0.95700920
  C -0.47307519  1.00271208 -1.09044139
  C -0.99802857  2.32588844 -0.92104266
  N -1.43963102  3.37673733 -0.81463153
  C -0.67503890  0.53874805 -2.59188162
  C -0.19164879  1.68831425 -3.44640928
  C  1.13100995  1.63622009 -3.35619169
  C  1.42197117  0.45560888 -2.45226011
  O  0.34941608 -0.41271305 -2.75533507
  C -1.05155304 -0.06135727 -0.11346193
  C -1.23980865  0.40109259  1.33115310
  C -0.63144713  1.52500246  1.87108620
  C -0.78117510  1.82635311  3.21452464
  C -1.53181690  1.00764512  4.03730244
  C -2.13444842 -0.12173149  3.50982339
  C -1.98661685 -0.42358574  2.16950358
  C -2.37275987 -0.60248254 -0.62066891
  C -2.50289745 -1.91278272 -1.05603504
  C -3.72969070 -2.37687744 -1.50056585
  C -4.82973382 -1.53782648 -1.51310700
  C -4.70188676 -0.22830240 -1.07794844
  C -3.48056017  0.23886301 -0.62953078
  O -0.05430938 -1.07253149 -0.14911903
  C  1.22377390 -0.45096661 -0.06344275
  C  1.63483062 -0.38655345  1.44544232
  N  1.00715747 -1.35331511  2.14456825
  C  1.27274492 -1.57463992  3.54131767
  O  2.49358704  0.30859367  1.92694937
  C  2.29257988 -1.39014409 -0.59756913
  C  1.96499108 -2.63588049 -1.11043019
  C  2.96444019 -3.47906924 -1.56722906
  C  4.28948162 -3.08795517 -1.50855686
  C  4.61792584 -1.84526334 -0.98964644
  C  3.62604838 -0.99750063 -0.53290489
  H  3.21396610  4.39226576 -1.30594164
  H  1.62628951  5.07461537 -1.78190272
  H  1.94564147  4.61282015 -0.07924306
  H -1.65315079  0.12292495 -2.81397841
  H -0.81431816  2.39080260 -3.96135252
  H  1.87588706  2.25673206 -3.81001312
  H  2.38527688 -0.02794898 -2.58113579
  H -0.02527241  2.17523602  1.26451934
  H -0.29705470  2.70282890  3.61602333
  H -1.64276048  1.24356782  5.08502367
  H -2.71996793 -0.77360606  4.14183555
  H -2.45419279 -1.31153466  1.76813267
  H -1.64066033 -2.55955494 -1.05255276
  H -3.82066093 -3.39921307 -1.83688325
  H -5.78422124 -1.90384285 -1.86079484
  H -5.55748672  0.42997446 -1.08573701
  H -3.38343228  1.25880598 -0.28644871
  H  0.30606330 -1.91128872  1.68193365
  H  0.33677516 -1.71565481  4.08125109
  H  1.78902914 -0.69495302  3.92386523
  H  1.91204566 -2.44941529  3.68505851
  H  0.93182748 -2.93424646 -1.16899515
  H  2.69873094 -4.44568764 -1.96987853
  H  5.06719050 -3.74793714 -1.86389721
  H  5.65166616 -1.53748777 -0.93818437
  H  3.87592621 -0.03480508 -0.11286012
