36
opt_min/./Product_366_opt.xyz
  C -3.11451050  1.65724313  1.06443071
  C -1.99051210  2.04138938  1.64814068
  C -1.11923017  0.79668836  1.69264322
  C -0.60848065  0.61647655  0.23906897
  C -1.92420419  0.19599560 -0.45610520
  C -2.90805752  0.18934391  0.74187822
  O -2.08289902 -0.23826869  1.81099991
  C -1.60871913 -1.18277800 -1.07159787
  C -2.08245031 -2.30888149 -0.26698532
  N -2.44619753 -3.22552097  0.31013127
  C -2.26775029 -1.33829526 -2.36342681
  N -2.79629939 -1.47264634 -3.36646531
  N -0.16382236 -1.15181848 -1.22878144
  C  0.41643184 -0.51684779 -0.04826050
  C  0.61469243 -1.53964955  1.09826360
  C  1.76024065  0.10262080 -0.39331589
  C  2.37225784 -0.09617338 -1.62123653
  C  3.60826324  0.46959380 -1.88891043
  C  4.24353436  1.24004868 -0.93219175
  C  3.63531195  1.44828616  0.29427383
  C  2.40272497  0.88294567  0.56239017
  H -3.98559439  2.22031073  0.79530479
  H -1.68260483  3.00744497  1.99398745
  H -0.37401574  0.75315962  2.47962211
  H -0.22796157  1.56178483 -0.14743219
  H -2.24685072  0.87945742 -1.24254473
  H -3.78882131 -0.43887940  0.64226060
  H  0.24126624 -2.05390072 -1.44969766
  H  1.66374490 -1.60686657  1.37591478
  H  0.03439126 -1.30693763  1.98357570
  H  0.29479190 -2.52852248  0.77228735
  H  1.87713950 -0.67845981 -2.38187211
  H  4.07335645  0.30554455 -2.84944464
  H  5.20778599  1.67951305 -1.14052636
  H  4.12227866  2.05236991  1.04569447
  H  1.93489989  1.04557068  1.52207284
