41
opt_min/./Product_4011_opt.xyz
  C  3.87635300 -0.19318300 -1.40688500
  C  2.45019095 -0.25596844 -0.92979816
  C  1.67490869 -1.38686396 -1.53364373
  C  2.00716399  0.63099862 -0.04284759
  C  0.61360525  0.83585826  0.48646918
  C -0.47597432  0.83615187 -0.60767889
  C -1.23979590  2.12784858 -0.76185039
  C -2.11585787  2.56660965  0.37412066
  C -1.12316510  2.84990477 -1.86482264
  C -1.37954389 -0.28331532 -0.14429212
  C -2.53452280 -0.70784173 -0.96857623
  O -3.36171744 -1.51826251 -0.31165202
  C -4.50073085 -1.97484997 -1.02321842
  O -2.71488100 -0.33994384 -2.10497917
  N -1.07312346 -0.83412809  0.95118342
  C  0.11386022 -0.24196907  1.52517830
  C -0.31218123  0.39851746  2.85298571
  C  1.10575416 -1.37033193  1.83726631
  H  4.28529699 -1.19168904 -1.54375268
  H  4.50671016  0.35457665 -0.71069918
  H  3.91903956  0.31827844 -2.36929438
  H  1.64791422 -1.28101959 -2.61855883
  H  0.66093974 -1.46736819 -1.16134488
  H  2.18949606 -2.32253953 -1.31024018
  H  2.72983396  1.33860127  0.34072490
  H  0.62613854  1.80543706  0.99113664
  H -0.05536779  0.58992797 -1.58455748
  H -2.79940981  3.34759793  0.05194636
  H -2.69341110  1.72757160  0.76094365
  H -1.51168214  2.96920789  1.18746399
  H -1.66830908  3.76962766 -1.99302425
  H -0.49445188  2.54782310 -2.68362500
  H -4.22154926 -2.24710225 -2.04396247
  H -4.87321601 -2.83825357 -0.47777887
  H -5.26224538 -1.19288854 -1.06016918
  H -0.89769145 -0.32052120  3.42021591
  H -0.91801784  1.28582428  2.69565497
  H  0.56780916  0.67345178  3.43105345
  H  0.95951967 -2.19644929  1.14667762
  H  0.94177952 -1.74276185  2.84467974
  H  2.13002565 -1.02335162  1.75355470
