38
opt_min/./Product_5181_opt.xyz
  O -0.03925468  3.21921499  2.41906700
  C  0.13206171  2.27959686  3.04787042
  O  0.32335750  1.32750049  3.65204270
  C  0.27551716  0.42973650  0.22133113
  C -0.88329961  0.72083931 -0.34184602
  C -2.37895836 -0.29038762  2.69961381
  O -2.45453852  0.83328778  2.90734782
  O -2.28025406 -1.41472535  2.52134983
  C -1.44695514 -0.47685786 -1.07147891
  C -2.91211751 -0.78093785 -0.64840738
  C -3.65624008 -1.77035994 -1.49220559
  O -3.39709217 -0.22325842  0.29926135
  C -1.42211795 -0.22151190 -2.50817884
  N -1.36174021 -0.04999281 -3.63742321
  N -0.53760798 -1.53772000 -0.68028157
  C -0.50376685 -2.81391399 -1.33849148
  C  0.65159252 -1.01166261 -0.02161625
  C  0.79548611 -1.67740989  1.26918362
  N  0.87976383 -2.20384871  2.27982879
  C  1.92150376 -1.13607695 -0.85988612
  C  1.98603779 -0.47566890 -2.08102993
  C  3.10792076 -0.59900040 -2.87981553
  C  4.17613313 -1.37620929 -2.46425018
  C  4.11730045 -2.03073354 -1.24674488
  C  2.99382842 -1.91446739 -0.44582957
  H  0.90881148  1.08535077  0.78892435
  H -1.40892837  1.65732020 -0.31156784
  H -3.97758916 -2.59879253 -0.86225866
  H -4.55933700 -1.28860323 -1.86756756
  H -3.07090288 -2.13743319 -2.32902351
  H -1.40056139 -3.39106280 -1.10215715
  H  0.35680220 -3.36732781 -0.96718207
  H -0.40854648 -2.72650539 -2.42992952
  H  1.15938984  0.13607584 -2.41108544
  H  3.14491445 -0.08386536 -3.82761028
  H  5.05140698 -1.46990350 -3.08925471
  H  4.94572689 -2.63830303 -0.91447909
  H  2.95252088 -2.43025162  0.50254368
