36
opt_min/./Product_3697_opt.xyz
  C  1.16904800  0.72387100 -1.15743800
  C  0.08931508  1.20805318 -0.18926410
  C -0.61325973  0.06142861  0.56262197
  N  0.26143740 -1.00401299  0.95010750
  C -0.18022479 -1.94821895  1.94600932
  C  1.49719911 -1.15276512  0.40487406
  C  2.01218705 -0.36423136 -0.55814389
  C  3.34586201 -0.52594899 -1.14044369
  N  4.17399047 -1.47373469 -0.58202211
  O  3.71427039  0.10492979 -2.11737169
  C -1.78577657 -0.31305906 -0.39524025
  C -3.07163013 -0.66307245  0.35176148
  C -1.41018337 -1.47471584 -1.33260856
  N -1.98090757  0.89718890 -1.21331649
  N -0.96053089  1.88230601 -0.93757268
  C -1.47661882  3.06297342 -0.27074234
  H  0.67747937  0.37253814 -2.06875443
  H  1.80349909  1.55961934 -1.45534140
  H  0.54452531  1.89694377  0.53153200
  H -1.05323617  0.48551784  1.48211585
  H -0.33754238 -2.93959117  1.50754459
  H  0.56115346 -2.03793005  2.74605178
  H -1.11949403 -1.61183583  2.37871140
  H  2.05703490 -1.97625585  0.82623023
  H  4.06620655 -1.72387811  0.38581030
  H  5.12409881 -1.45323784 -0.92139679
  H -2.95423019 -1.57475899  0.93434796
  H -3.37200489  0.14153875  1.02484867
  H -3.87287809 -0.82590575 -0.36739647
  H -0.34412834 -1.50403466 -1.52628743
  H -1.92655814 -1.32992637 -2.27874762
  H -1.71644550 -2.42817723 -0.90739932
  H -2.88543027  1.31425112 -1.00749551
  H -1.70316909  2.91250067  0.79785008
  H -0.73086340  3.85319375 -0.36263256
  H -2.38228387  3.39394515 -0.78043074
