67
opt_min/./Product_3101_opt.xyz
  C  5.43323800  0.70689600  1.52548500
  O  4.17176161  0.16208176  1.89597612
  C  3.24798115  0.11009860  0.96102668
  O  3.42541543  0.34377733 -0.20772672
  C  1.91305735 -0.40408577  1.51671602
  C  1.79532267 -0.04847219  3.03101447
  F  2.52734708 -0.86780206  3.80843470
  F  2.19636858  1.17233372  3.34999579
  F  0.53607543 -0.19283382  3.45741608
  C  0.75971146  0.26474042  0.80453238
  C -0.42506946 -0.13800814  0.30760205
  C -0.96788375 -1.40115539 -0.30897401
  C -1.96226796 -1.03841728 -1.45270481
  C -1.36310969 -0.18229540 -2.54412297
  O -3.04968035 -1.53862353 -1.56953279
  C -1.59979816 -2.28745807  0.77946216
  C -2.41267199 -3.45889401  0.32151282
  O -1.43258423 -2.03777413  1.94606421
  C  0.06491137 -2.22008441 -1.14330387
  C  0.93548030 -3.23606062 -0.41040128
  C  2.20526889 -2.61069818  0.14933598
  C  1.97928721 -1.95066178  1.50873281
  C -1.29018830  1.14168974  0.33827815
  C -2.71344061  1.09449661 -0.12340243
  C -3.19096177  1.79504108 -1.22379144
  C -4.53452203  1.73687585 -1.54948718
  C -5.41129832  0.99728285 -0.77595700
  C -4.94418298  0.32457735  0.34085173
  C -3.60567897  0.38171002  0.67487937
  O -1.38423103  1.54812248  1.77946773
  C -0.21694333  2.07319971  2.10489382
  O  0.04080269  2.68511251  3.08915324
  C  0.67542931  1.79831606  0.84112787
  C  1.97229769  2.54487557  0.59949155
  O  2.04497943  2.88902257 -0.68210562
  C  3.24311519  3.52781343 -1.10395344
  O  2.81599950  2.79574769  1.41582513
  N -0.33993012  2.07684948 -0.19091293
  C -0.74662461  3.47935954 -0.27196756
  H  6.12205889  0.44058700  2.32263610
  H  5.75842211  0.29359326  0.56868055
  H  5.34125894  1.79109681  1.44753700
  H -0.62417721  0.51950659 -2.17094507
  H -2.16240674  0.34315938 -3.05939846
  H -0.89736450 -0.84193654 -3.27459076
  H -2.06087495 -3.88299351 -0.61197078
  H -3.43022349 -3.10233687  0.16070169
  H -2.43230776 -4.21295318  1.10527709
  H  0.71444468 -1.50941163 -1.65317445
  H -0.50243326 -2.76123834 -1.90422182
  H  0.37790583 -3.70715326  0.39873715
  H  1.20802640 -4.02253164 -1.11622120
  H  2.95821378 -3.39166928  0.25981096
  H  2.59745840 -1.87886225 -0.55582044
  H  2.81294265 -2.21735692  2.15908246
  H  1.06566732 -2.32028685  1.97351063
  H -2.51512904  2.36976427 -1.83670149
  H -4.89600261  2.27661928 -2.41233002
  H -6.45773380  0.95277171 -1.03795852
  H -5.62513104 -0.24400329  0.95617308
  H -3.23764100 -0.12162459  1.55498003
  H  2.98426432  4.13089510 -1.97161910
  H  3.97468663  2.76558694 -1.37508770
  H  3.64276034  4.15071145 -0.30145982
  H -0.06111153  4.11336628  0.28861005
  H -1.74894403  3.63081333  0.13233529
  H -0.72194807  3.78895861 -1.31682017
