49
opt_min/./Product_2176_opt.xyz
  F  4.71374081 -0.78931553 -2.89399765
  C  4.67223438 -0.70109104 -1.55945116
  F  4.73382449 -1.93499013 -1.05190674
  F  5.83148464 -0.10009035 -1.20671675
  C  3.52744365  0.10343355 -1.04805463
  C  2.98689226  0.12699561  0.16958994
  C  2.18949046  1.41190546  0.22918663
  C  0.87163666  1.31124547 -0.58973797
  C  1.44951866  1.09681537 -1.99817145
  C  2.97534159  1.34171219 -1.73855327
  O  2.92446774  2.25322202 -0.65772049
  C  0.93084199 -0.29031176 -2.43317855
  C  1.88567775 -1.38514922 -2.60838912
  N  2.45200848 -2.36733786 -2.75445266
  C  0.25261221 -0.15535356 -3.72024166
  N -0.27210945 -0.02767728 -4.72716926
  N  0.08086084 -0.78799535 -1.35584856
  C -0.99128943 -1.67528612 -1.73674737
  C -0.15618868  0.20315025 -0.30644438
  C  0.12477170 -0.38753004  1.06798351
  C -0.11985383  0.38637545  2.19750488
  C  0.16847956 -0.10335836  3.45761944
  C  0.70582075 -1.37156346  3.60648522
  C  0.95292682 -2.14462861  2.48608267
  C  0.66863764 -1.65482162  1.22224616
  C -1.58748151  0.72620227 -0.40485762
  C -2.59203259  0.15379205  0.37116358
  C -3.90562077  0.56703917  0.24609144
  C -4.24328591  1.54913518 -0.66915863
  C -3.25830172  2.10172122 -1.46674774
  C -1.94250142  1.68962227 -1.34055437
  H  3.09769208 -0.57116784  0.97433502
  H  2.09238936  1.84944135  1.21733608
  H  0.41601739  2.29988295 -0.49157236
  H  1.08166071  1.84056353 -2.70870787
  H  3.53551802  1.74068067 -2.57932878
  H -1.84793964 -1.15855135 -2.19019351
  H -1.33338139 -2.21060081 -0.85105244
  H -0.60491077 -2.40469021 -2.44897217
  H -0.54702418  1.37326444  2.08657032
  H -0.02764006  0.50676930  4.32697145
  H  0.92980475 -1.75327600  4.59097444
  H  1.37364512 -3.13408276  2.59125077
  H  0.87568118 -2.25860300  0.35130939
  H -2.34289589 -0.61932436  1.08203516
  H -4.66829157  0.11462778  0.86211658
  H -5.26782496  1.87312398 -0.76669919
  H -3.50970218  2.85518326 -2.19798473
  H -1.20336500  2.12503681 -1.99755987
