49
opt_min/./Product_5423_opt.xyz
  C  5.20853221  1.42252358  1.88642874
  C  5.53688924  0.51964633  0.73803156
  C  6.99535462  0.23006283  0.58344335
  C  4.63584501 -0.02513799 -0.09023075
  C  3.20676734  0.15152762 -0.04662213
  C  2.38173405 -0.44149151 -0.91027349
  C  0.88921661 -0.29911575 -0.94912093
  C  0.48966660  0.46448665 -2.21636121
  C  0.24867242  0.30615488  0.30383644
  C -1.20288629 -0.20886722  0.30219673
  C -1.69953765 -0.47230639  1.73517320
  O -1.29799889  0.50308167  2.55581349
  C -1.72496021  0.43285261  3.91217740
  O -2.39558156 -1.39390925  2.05400494
  C -2.27982361  0.70687932 -0.26170390
  C -3.53950779  0.15130080 -0.47807115
  C -4.57429639  0.91480872 -0.98558208
  C -4.37119699  2.25386587 -1.27671735
  C -3.12955691  2.81822507 -1.04588377
  C -2.09270692  2.05581326 -0.53526481
  N -1.15087770 -1.48443222 -0.41188742
  C  0.19230401 -1.70773778 -0.92370876
  C  0.91762560 -2.56441151  0.01378590
  N  1.47680454 -3.21632531  0.76498763
  C  0.19619129 -2.36049160 -2.21443308
  N  0.19672744 -2.86375045 -3.24039402
  H  5.25240901  0.86025617  2.81982085
  H  5.94081603  2.22547998  1.95011663
  H  4.22085634  1.86329851  1.79932433
  H  7.17364098 -0.50154257 -0.19977235
  H  7.53534125  1.14419747  0.33618950
  H  7.40377849 -0.15092155  1.51901433
  H  4.98977973 -0.67058827 -0.88434038
  H  2.80503078  0.78768716  0.72734029
  H  2.78778839 -1.07476117 -1.69009153
  H  0.87254201  1.48125107 -2.15942810
  H  0.91510131 -0.01004512 -3.09870384
  H -0.59190279  0.50788205 -2.33473001
  H  0.31876827  1.38778728  0.33527453
  H  0.75196549 -0.09434892  1.18644314
  H -2.05408907  1.42902545  4.20323956
  H -0.88449038  0.11935416  4.53298075
  H -2.54123072 -0.28453177  4.00960983
  H -3.71733955 -0.88307839 -0.21972997
  H -5.54157759  0.46217791 -1.14262547
  H -5.17378382  2.85532150 -1.67556306
  H -2.96327211  3.86393526 -1.25933190
  H -1.14166549  2.53170950 -0.35820440
  H -1.86377308 -1.57797455 -1.12444983
