47
opt_min/./Product_5447_opt.xyz
  C  2.11994228  0.85476249 -0.06856394
  C  0.90963095  0.36824537  0.72331988
  C  0.20595930 -0.81359494  0.03581888
  N  1.12065112 -1.76110961 -0.53997280
  C  0.61365105 -3.01032705 -1.05313959
  C  2.45772181 -1.52006084 -0.58232934
  C  3.01991939 -0.31790884 -0.34244754
  C  4.46146442 -0.07440921 -0.25300802
  N  5.28044746 -1.18326353 -0.24919695
  O  4.94191740  1.04388445 -0.23189310
  C -0.79099518 -0.13422818 -0.95739856
  C -0.24757550 -0.09075205 -2.39641271
  C -2.21234998 -0.69307263 -0.95898601
  C -2.66819179 -1.75907112 -0.19696593
  C -3.99293759 -2.16177565 -0.26316265
  C -4.88914765 -1.49672411 -1.07689320
  C -4.45357674 -0.41204298 -1.81941137
  C -3.13149421 -0.01787156 -1.76052684
  O -0.91113616  1.22777635 -0.49300647
  C -0.23891443  1.38989891  0.73247903
  C  0.21812683  2.84516586  0.93697767
  O -0.47582958  3.66869583  0.17456538
  C -0.19514871  5.06107883  0.28182314
  O  1.07048732  3.15385648  1.72352490
  C -1.14737838  1.12287521  1.84387628
  N -1.88113345  0.89987734  2.69136123
  H  1.78632615  1.30722236 -1.00765452
  H  2.66992494  1.61490418  0.48707459
  H  1.21613885  0.10137216  1.73759562
  H -0.37512039 -1.32902755  0.81272996
  H  1.19602503 -3.84681948 -0.65878733
  H -0.42402286 -3.13890887 -0.76010180
  H  0.66446540 -3.03906798 -2.14564259
  H  3.04920406 -2.37564931 -0.87595955
  H  6.23569971 -0.99404825  0.01708533
  H  4.93072958 -2.06141339  0.09633102
  H  0.81256596 -0.32432076 -2.43011172
  H -0.38988815  0.91204897 -2.79049942
  H -0.78297046 -0.79303566 -3.03048269
  H -2.01790346 -2.29558238  0.47757568
  H -4.32120548 -2.99862087  0.33529755
  H -5.92012023 -1.81348738 -1.12449581
  H -5.14756773  0.13181523 -2.44307656
  H -2.80143900  0.83954509 -2.32481377
  H -0.08339945  5.45214459 -0.72809696
  H  0.71869677  5.21687354  0.85776237
  H -1.03553632  5.54747779  0.77869883
