42
opt_min/./Product_654_opt.xyz
  C -1.39226800 -2.33533600  1.83867000
  C -0.82377472 -1.25776354  2.35485861
  C  0.41398294 -1.02298847  1.50440377
  O  0.77935960 -2.33682055  1.12339846
  C -0.51010940 -2.74681968  0.68048683
  C -0.79746265 -1.72098112 -0.44380955
  C -0.16073017 -0.42298338  0.16575491
  C -1.12621384  0.72047368  0.36956854
  C -1.03199708  1.56447736  1.47092007
  C -1.88810434  2.64298501  1.60739050
  C -2.83857314  2.90637302  0.63724797
  C -2.91790330  2.09161602 -0.47807493
  C -2.06327089  1.01193538 -0.61539007
  N  0.84338145 -0.02331314 -0.81692745
  C  2.19458573  0.04344919 -0.47155568
  C  3.21465496 -0.67493844 -1.08856655
  C  4.53632496 -0.46561055 -0.73997157
  C  4.87806042  0.46730207  0.22270556
  C  3.87320861  1.20746583  0.82609417
  C  2.55395645  1.00798094  0.47831394
  N  0.40984347 -0.65996630 -2.02607170
  N -0.14304639 -1.93858093 -1.72094469
  C  0.74547330 -3.08721694 -1.86088359
  H -2.34171197 -2.78713165  2.04879944
  H -1.12062361 -0.63994429  3.17675696
  H  1.26320783 -0.50794808  1.93598038
  H -0.51930956 -3.79629012  0.40370475
  H -1.87737637 -1.65378525 -0.60783437
  H -0.29841195  1.37749127  2.24013171
  H -1.80662648  3.28500950  2.47280014
  H -3.50505620  3.75048465  0.74169446
  H -3.64488221  2.29611660 -1.25030366
  H -2.10287973  0.40564440 -1.50556489
  H  3.00014192 -1.43577701 -1.82539619
  H  5.30899198 -1.04103146 -1.22893645
  H  5.91294586  0.61789861  0.48998021
  H  4.11607039  1.95364797  1.56998874
  H  1.78377492  1.62766437  0.91334861
  H  1.18185020 -0.73368384 -2.68441845
  H  0.15036971 -3.92478356 -2.23083212
  H  1.25650273 -3.37748867 -0.93701086
  H  1.50188526 -2.86006770 -2.61101370
