46
opt_min/./Product_5244_opt.xyz
  C -1.28655729 -0.68002635  0.82526110
  C -0.20872953  0.20491128  0.19027320
  C -0.69216129  0.85080142 -1.11447018
  N -1.96842402  1.48027817 -0.99401879
  C -2.35222076  2.49833022 -1.93631786
  C -2.86247890  1.00312771 -0.09066128
  C -2.62367017  0.00828071  0.78351621
  C -3.71502962 -0.38014879  1.68361688
  N -3.52409772 -1.55117850  2.37239040
  O -4.70287675  0.30854772  1.87202396
  C -0.57266381 -0.32929103 -2.13800546
  C -0.31013335  0.14179982 -3.58271524
  C -1.80899667 -1.10280301 -2.14955354
  N -2.78027923 -1.70160630 -2.21907607
  N  0.47585208 -1.17620403 -1.58441642
  C  0.97192253 -0.63745976 -0.32789350
  C  1.31944459 -1.83686943  0.58631631
  N  1.78600040 -1.50814551  1.81259040
  C  2.16489651 -2.51304821  2.77990454
  O  1.17441001 -2.97650082  0.22233549
  C  2.23604297  0.20597333 -0.62505470
  O  2.80618179  0.09684263 -1.69027100
  N  2.67765958  1.02845094  0.35147733
  C  3.85042281  1.85680208  0.16673441
  H -1.01209448 -0.88605688  1.86490424
  H -1.32449735 -1.63702080  0.29487063
  H  0.08616069  0.98028703  0.90217612
  H  0.04515675  1.60527225 -1.42736913
  H -1.47135008  3.05729284 -2.25680055
  H -3.04769243  3.18986531 -1.46131261
  H -2.83663516  2.06986168 -2.82108441
  H -3.83391716  1.47614086 -0.08139163
  H -2.90501988 -2.24586015  1.98540190
  H -4.31995171 -1.90480108  2.88268141
  H -1.11018978 -0.17668732 -4.24842303
  H -0.23428777  1.22554850 -3.63297035
  H  0.62100522 -0.28699416 -3.94664013
  H  1.25665072 -1.32993777 -2.21486959
  H  1.90089143 -0.54632490  2.08353396
  H  1.66815921 -2.32891394  3.73368115
  H  3.24705898 -2.52029950  2.93097549
  H  1.85416186 -3.47894667  2.38549927
  H  2.12940371  1.20198712  1.17740739
  H  4.39051424  1.94253705  1.10809862
  H  3.58031290  2.85545003 -0.18793637
  H  4.48335264  1.38137727 -0.58077266
