41
opt_min/./Product_4895_opt.xyz
  C -1.37085000 -1.35854500  0.56437400
  O -2.11587515 -2.25312936  0.89604780
  C -0.66863832 -1.40552175 -0.80980043
  O -1.56950764 -1.66422493 -1.84441487
  C -1.77721133 -3.02108874 -2.17620461
  C  0.18132080 -0.13175279 -1.13080436
  O  0.35868635 -0.13103973 -2.51429145
  C  1.12241502  0.90937698 -3.09514477
  C -0.50091514  1.08659840 -0.53582663
  O -0.89317300  2.03628244 -1.16802445
  C -0.66222184  0.95721392  0.93370717
  C -0.48107476  2.19216824  1.74966720
  C -1.04544917 -0.22519300  1.45156748
  C -1.31400600 -0.41703548  2.90961149
  N  1.44590666 -0.46160510 -0.42333421
  C  2.44554655  0.38381233  0.03731678
  C  3.53662462 -0.17913403  0.70448331
  C  4.54784171  0.62483536  1.18907785
  C  4.49540859  1.99966761  1.02684421
  C  3.41570460  2.56171705  0.36852796
  C  2.39647013  1.76809132 -0.12499959
  N  1.54053663 -1.78356231 -0.19978495
  C  0.44996287 -2.37619052 -0.47856526
  H -2.15770533 -3.59027914 -1.32347813
  H -2.53124751 -3.00241306 -2.96097414
  H -0.86147393 -3.48121790 -2.56047255
  H  2.14254990  0.92831956 -2.69871256
  H  0.64809733  1.88360091 -2.96177537
  H  1.15537861  0.66903257 -4.15659198
  H  0.42005639  2.10680452  2.35748738
  H -1.32535032  2.33604767  2.42280934
  H -0.39152364  3.05884042  1.10061726
  H -0.40875076 -0.23218904  3.48601006
  H -2.07959849  0.27765374  3.25453559
  H -1.66119293 -1.43129189  3.08762554
  H  3.57209557 -1.24892368  0.82829776
  H  5.38477589  0.17180890  1.70002570
  H  5.28687376  2.62600397  1.40853302
  H  3.36027835  3.63141392  0.23282612
  H  1.57269951  2.23656009 -0.63654744
  H  0.33519835 -3.43414539 -0.35754577
