46
opt_min/./Product_1795_opt.xyz
  N -0.78946163 -4.01055647  0.14604971
  C -0.16958275 -3.05248402  0.17933355
  C  0.75101207 -1.91840215  0.22139560
  C  1.27030901 -1.95540737  1.58339207
  N  1.64198121 -2.00189935  2.66103937
  C  0.05893710 -0.60160318  0.00166633
  C  0.55940599  0.63033721 -0.11185633
  C  1.93891826  1.21984863 -0.02340413
  F  2.16568444  1.56652774  1.30455566
  C  3.20672474  0.51195763 -0.52207214
  C  3.67013292 -0.73877774  0.22898314
  C  3.26626221 -2.07681452 -0.39115107
  C  1.82662348 -2.18194381 -0.87189375
  C -0.60706835  1.58566568 -0.39005896
  C -0.45022398  2.04697891 -1.76632590
  N -0.31117246  2.33421651 -2.86357689
  C -0.87085615  2.84849171  0.49746140
  C  0.23624831  3.83743839  0.66951091
  O -1.96792976  2.98967166  0.94831088
  O -1.78078459  0.79655967 -0.28702158
  C -1.42853552 -0.57066249 -0.24659921
  C -2.21775702 -1.22046069  0.91580182
  O -3.51499454 -1.11703878  0.72630550
  C -4.33847061 -1.70058681  1.73450711
  O -1.68959401 -1.72995279  1.86356432
  C -1.78049693 -1.24306194 -1.60379531
  C -3.05958256 -0.77179796 -2.21167141
  O -1.02920014 -2.03049630 -2.11454340
  H  1.89953174  2.16978124 -0.58068709
  H  3.97776916  1.27181685 -0.36223645
  H  3.13586877  0.33991985 -1.59640248
  H  4.76219214 -0.72674366  0.23448917
  H  3.34706630 -0.66690730  1.26697566
  H  3.46885215 -2.86879383  0.33284231
  H  3.89937459 -2.25880499 -1.26404981
  H  1.66796522 -3.18952292 -1.26276674
  H  1.64514836 -1.48767954 -1.69358827
  H -0.16998127  4.73199766  1.13608718
  H  0.99985372  3.42470550  1.32510926
  H  0.68543517  4.09599504 -0.28762589
  H -4.11499055 -2.76488205  1.82448286
  H -5.36341864 -1.54276134  1.41059531
  H -4.15919535 -1.21743409  2.69607261
  H -2.81186770 -0.15731996 -3.07814687
  H -3.64370703 -0.18622505 -1.51051433
  H -3.62237131 -1.63038404 -2.57176063
