49
opt_min/./Product_970_opt.xyz
  C  3.30654748  3.83621474 -0.83896030
  O  2.90741848  2.56859066 -0.32746759
  C  1.97198846  1.90983227 -1.00921164
  O  1.46240012  2.31012326 -2.01895368
  C  1.68173365  0.53085068 -0.38571728
  C  2.50407229 -0.30647661 -1.24195941
  N  3.18611914 -0.93414965 -1.91188691
  C  0.22994629  0.14525232 -0.56548555
  C -0.27470639 -1.08779843 -0.63948229
  C  0.38898734 -2.42667119 -0.54896818
  C  0.82539533 -2.88488315  0.84881898
  C  1.98257253 -2.09839887  1.45678363
  C  1.60048867 -0.67983601  1.90057352
  C  2.23284142  0.42313855  1.05878219
  C -1.74403076 -1.01462397 -1.03059171
  C -1.84255617 -1.31197560 -2.54180464
  C -2.62414803 -1.99621187 -0.25399677
  N -2.10686942  0.40273629 -0.86178171
  C -3.07450328  0.75817082  0.14817926
  C -0.85176094  1.16160645 -0.88475499
  C -0.89067504  2.41929105 -0.01826276
  C -0.65710931  2.26404394  1.46372073
  O -1.10209751  3.50046502 -0.50659176
  H  2.50367968  4.26485650 -1.44061903
  H  3.52832169  4.46775189  0.01878963
  H  4.19861549  3.71002907 -1.45451745
  H -0.31855191 -3.16952390 -0.91927373
  H  1.25851007 -2.44737832 -1.20890186
  H  1.14018144 -3.92697237  0.75810509
  H -0.03007652 -2.86176092  1.52776054
  H  2.34111464 -2.65861142  2.32362558
  H  2.80053161 -2.06087039  0.73825651
  H  0.51576570 -0.57879933  1.88544562
  H  1.92625109 -0.51901303  2.93115186
  H  2.09637944  1.37982780  1.56214334
  H  3.31116529  0.25599096  0.99740811
  H -1.73686521 -2.37340135 -2.74531748
  H -1.06655463 -0.77628148 -3.08184583
  H -2.80902227 -0.97397677 -2.90457540
  H -3.66458348 -1.69105692 -0.28663882
  H -2.31280478 -2.06771961  0.78616254
  H -2.56192854 -2.98641690 -0.69672804
  H -2.87492558  0.34948373  1.14941862
  H -3.12194690  1.84324298  0.21520142
  H -4.05908425  0.41657632 -0.17479892
  H -0.70587313  1.52030257 -1.91693902
  H -1.26249382  2.99044487  2.00278110
  H  0.38560091  2.49481326  1.67240217
  H -0.87078470  1.25946584  1.81225555
