44
opt_min/./Product_700_opt.xyz
  C -1.09531958  3.03725468 -0.40628370
  C -0.67490119  1.68387672 -0.92544870
  O -0.51835293  1.51091825 -2.10780450
  C -0.42045665  0.57106958  0.08189032
  C -0.73489320 -0.88027238 -0.40826155
  C -1.50635901 -1.05954461 -1.71668507
  C -1.67429690 -1.34083488  0.77365345
  C -2.98876346 -0.61218241  0.56633428
  C -2.75109237  0.63832514  0.93182697
  C -1.30682219  0.63785953  1.38487161
  O -1.14285910 -0.66256152  1.89708070
  C  0.63998974 -1.61034130 -0.43296446
  C  0.54706204 -3.08382717 -0.02516115
  C  1.29422644 -1.54448376 -1.83361861
  N  1.41492911 -0.87784947  0.55191758
  C  2.79092048 -1.21728383  0.79875054
  C  1.09050040  0.53022543  0.48210387
  C  1.36757901  1.21069883  1.84838768
  C  1.52404921  2.71040431  1.83460623
  O  1.50933022  0.56329358  2.84743566
  C  1.91143751  1.20995440 -0.51825333
  N  2.61679322  1.71001380 -1.26880443
  H -1.24071312  3.07608998  0.66552095
  H -2.00764087  3.33310443 -0.91951614
  H -0.33248016  3.75925415 -0.70193382
  H -0.93399952 -0.76231521 -2.58562495
  H -2.41864949 -0.46980832 -1.70679773
  H -1.77372760 -2.11022209 -1.81146224
  H -1.73276869 -2.40818062  0.94190722
  H -3.87941360 -1.05701642  0.16812246
  H -3.39035808  1.49853478  0.93009721
  H -1.00750052  1.37692621  2.12224721
  H -0.26350608 -3.57366451 -0.55971033
  H  1.46973229 -3.59881491 -0.27867257
  H  0.37850882 -3.17345292  1.04442264
  H  2.35413079 -1.76930696 -1.73207243
  H  1.20430751 -0.55480753 -2.27198369
  H  0.85254798 -2.28011717 -2.49578780
  H  3.49345417 -0.76861782  0.07859447
  H  3.06874262 -0.88835608  1.80000658
  H  2.89010493 -2.29792972  0.76358739
  H  1.33195797  3.15598924  0.86591428
  H  0.86250196  3.14240791  2.58556899
  H  2.54278713  2.94125283  2.14029273
