37
opt_min/./Product_871_opt.xyz
 Cl  0.14780278  2.33141313 -1.89219908
  C -0.24130323  1.55674075 -0.33438034
  C -1.67398815  1.00601307 -0.21182682
  C -2.19607285  1.81543184  1.00198043
  C -2.37662218  3.22992140  0.48282734
  C -1.14854306  3.71020922  0.36320446
  C -0.23229170  2.59768841  0.83341447
  O -1.02389176  1.93111747  1.79379249
  C -1.45518503 -0.51854793  0.02801585
  C -2.34364343 -1.38397122 -0.90916344
  N -3.65432996 -1.19309522 -0.65269566
  C -4.69052714 -1.85821294 -1.40825945
  O -1.90384287 -2.10781868 -1.76127596
  C -1.74515998 -0.91182953  1.39728576
  N -1.94692663 -1.26210391  2.46689125
  N -0.04804944 -0.77325263 -0.14529285
  C  0.61629038  0.29980272 -0.25584092
  C  2.05113061  0.29436487 -0.51782828
  C  2.92609569  1.17859287  0.10610768
  C  4.27732556  1.13484261 -0.18488436
  C  4.76674308  0.22133793 -1.10182140
  C  3.89969873 -0.66266731 -1.72445040
  C  2.55037958 -0.63241753 -1.43021851
  H -2.24563444  1.17288301 -1.12714007
  H -3.00347895  1.36991087  1.57586519
  H -3.31717876  3.67826462  0.23470527
  H -0.80065006  4.65649820  0.00183920
  H  0.73585709  2.87236030  1.23651154
  H -3.94156481 -0.59404213  0.10512994
  H -5.21846211 -1.14545046 -2.04781049
  H -4.21361659 -2.61023011 -2.03513739
  H -5.40618700 -2.33220574 -0.73612144
  H  2.55774376  1.88134858  0.83687375
  H  4.95428839  1.82109898  0.30473515
  H  5.82234219  0.19790199 -1.33165128
  H  4.27741139 -1.37714479 -2.44007887
  H  1.86543416 -1.31875161 -1.90511192
