52
opt_min/./Product_2145_opt.xyz
  C  3.90256797 -0.80980470  2.10437117
  C  4.05278234 -1.17472981  0.77966229
  C  3.11200561 -0.79819877 -0.16334241
  C  1.98904794 -0.05847733  0.19934810
  C  1.02533498  0.45305855 -0.86586441
  C -0.53528878  0.43930080 -0.65414062
  C -1.20117238 -0.40742349  0.42054396
  C -2.58676628 -0.30594716  0.54050430
  C -3.28118829 -1.04958640  1.47680095
  C -2.61290611 -1.93580025  2.30311502
  C -1.24981942 -2.09779592  2.14491484
  C -0.55308511 -1.35330557  1.20718799
  C -1.04693677 -0.07564414 -2.03288977
  C -0.79767859 -1.59380314 -2.06304820
  C  0.74494780 -1.67710422 -2.09469751
  C  1.17565637 -0.20188096 -2.25126632
  C  0.00198083  0.33136602 -3.06829996
  C -0.76468615  1.98210479 -0.33449822
  C -1.97204930  2.45946671  0.45110273
  O -1.61480839  2.78472560  1.68228743
  C -2.62487340  3.31756051  2.53268455
  O -3.07121573  2.57920680 -0.01481554
  O  0.44812756  2.36545504  0.29610321
  C  1.28332828  2.01222615 -0.76750919
  C  2.67959757  2.35812934 -0.58687170
  N  3.78521606  2.61500659 -0.47087375
  O  0.73772950  2.74417232 -1.87044195
  C -0.60012824  2.72040212 -1.67592544
  O -1.40950585  3.17630122 -2.41428162
  C  1.85557000  0.31155959  1.53778875
  C  2.79912534 -0.06272772  2.47591278
  H  4.63892490 -1.10071469  2.83800475
  H  4.91128327 -1.75040709  0.46821759
  H  3.27323041 -1.09266165 -1.18672854
  H -3.14234731  0.34307508 -0.11584508
  H -4.35294161 -0.94054701  1.54935133
  H -3.15295114 -2.51014923  3.04075478
  H -0.71222402 -2.81522651  2.74736188
  H  0.49781051 -1.54540299  1.09206855
  H -2.07344008  0.22147242 -2.23697128
  H -1.23039946 -2.00553089 -2.97503673
  H -1.22991417 -2.13287563 -1.22381393
  H  1.09800187 -2.27115382 -2.93654803
  H  1.14021301 -2.11907471 -1.18266093
  H  2.15757050 -0.05654431 -2.69798685
  H  0.05541686  1.37248637 -3.35295270
  H -0.12569332 -0.23956426 -3.98744519
  H -3.00171653  2.52269068  3.17788708
  H -2.15841965  4.09808557  3.13003388
  H -3.44244250  3.72360952  1.93445402
  H  1.00561707  0.89072067  1.86168613
  H  2.66542776  0.23592601  3.50469615
