36
opt_min/./Product_816_opt.xyz
  C -0.43109300 -1.82165500  1.40071800
  C -0.40410351 -0.72406463  0.35113713
  C -0.95607422  0.67645743  0.74823107
 Br -1.67586117  0.84167519  2.56658313
  C -1.99536232  0.98623046 -0.33613877
  C -3.18730727  0.03418341 -0.18405142
  C -2.63332760 -1.31396100 -0.68703019
  C -1.16036206 -1.00332903 -0.96672059
  C -1.28692642  0.40408995 -1.56313299
  C  0.27807523  1.53948649  0.65872710
  C  0.28811368  2.98898354  0.91561254
  C  1.65156955  3.61539026  0.92342097
  O -0.74263142  3.60410546  1.06847732
  N  1.31658450  0.88820830  0.28210059
  N  1.01408976 -0.39141560  0.06008172
  C  1.93525881 -1.27059484 -0.45731291
  O  3.12223667 -0.68156312 -0.60798148
  C  4.15589601 -1.50138077 -1.13394338
  O  1.67594366 -2.41133266 -0.74550158
  H -0.09081479 -1.44092431  2.36207230
  H -1.43155590 -2.22268428  1.52900051
  H  0.22531237 -2.63118393  1.09064165
  H -2.26464071  2.04031596 -0.36834165
  H -4.02564255  0.37537992 -0.79087379
  H -3.52803169 -0.02180921  0.84907720
  H -2.78440034 -2.12313574  0.02304365
  H -3.11162046 -1.60895758 -1.62216105
  H -0.65302714 -1.75154535 -1.57213993
  H -0.33372014  0.87972275 -1.79156519
  H -1.91522654  0.42549096 -2.45135406
  H  1.57678065  4.65755915  1.22209702
  H  2.30796982  3.07036197  1.59625302
  H  2.07671641  3.54808356 -0.07640696
  H  4.56882908 -2.13671395 -0.34749878
  H  4.91861837 -0.82353535 -1.50985778
  H  3.76961229 -2.13381619 -1.93567920
