33
opt_min/./Product_884_opt.xyz
  C -2.48807249 -0.37664887 -2.07075579
  O -1.94867943  0.59058886 -1.18303029
  C -0.89814495  0.29962284 -0.34446223
  O -1.12662131  0.85671676  0.92643188
  C -1.89684055  2.04520471  1.06692227
  C  0.50903527  0.78840535 -0.84967727
 Cl  0.60676148  2.55142592 -0.97015799
 Cl  0.88362771  0.08744677 -2.45037996
  C  1.43205367  0.19170635  0.22091167
  C  2.90737148 -0.00665941 -0.26047248
  C  3.61872083  1.25019882 -0.65042501
  O  3.38526778 -1.10187923 -0.27113922
  C  1.47176264  1.06285660  1.38828740
  N  1.60582114  1.70856007  2.32207709
  N  0.84303037 -1.11143361  0.50501517
  C  1.11767509 -1.68560469  1.80477820
  C -0.53357176 -1.18776607  0.01038646
  C -0.50148505 -2.14772037 -1.08926440
  N -0.39939749 -2.96212616 -1.88379733
  C -1.50594248 -1.67962457  0.97502345
  N -2.29844724 -2.08808495  1.68699721
  H -1.77217882 -0.68718025 -2.83265873
  H -3.32139373  0.13459504 -2.55247173
  H -2.86973918 -1.24704631 -1.53082734
  H -2.35175373  1.96890455  2.05237446
  H -1.25219165  2.92525420  1.02985763
  H -2.66799752  2.10875367  0.30091521
  H  4.67135810  1.03462097 -0.81327072
  H  3.19433740  1.64577045 -1.57173254
  H  3.50722048  2.01093442  0.11885727
  H  0.59926837 -1.17166354  2.62206101
  H  2.19281601 -1.63998249  1.97074892
  H  0.82051774 -2.73352740  1.78816625
