53
opt_min/./Product_2867_opt.xyz
  C  1.51595800  3.96911400 -0.06600300
  O  0.91848151  2.78815753 -0.58904421
  C  1.36199435  1.64686327 -0.07118113
  O  2.21931021  1.57758639  0.75793198
  C  0.65070165  0.45236755 -0.72064411
 Br  1.09202963  0.60138726 -2.58594251
  C -0.85488722  0.46696747 -0.36798914
  C -1.78795210 -0.08933595 -1.46741135
  O -1.44734582 -0.48562276 -2.53999403
  O -3.03312395 -0.06876881 -1.00469283
  C -4.05960365 -0.55038905 -1.87056500
  C -1.39977042  1.87221182 -0.09098887
  O -1.55932001  2.39567333  0.96921754
  O -1.68895927  2.42886662 -1.26983442
  C -2.19640930  3.75672589 -1.23472680
  C -0.87291312 -0.61148540  0.75617690
  C -1.95795475 -0.52726002  1.84116154
  N -2.90249032 -1.47603104  1.71813980
  C -3.99735981 -1.55117103  2.65852103
  O -1.92499552  0.29406787  2.72132241
  O -0.98888211 -1.86061219 -0.02245549
  C  0.22064020 -2.00685049 -0.61458472
  O  0.48405013 -2.88800757 -1.36645928
  C  1.11373614 -0.87208076 -0.04477829
  C  2.58574791 -1.15963633 -0.09271656
  C  3.41548946 -0.90863914  0.99612779
  C  4.76775914 -1.18250924  0.91631891
  C  5.30994704 -1.70803663 -0.24509701
  C  4.48857075 -1.95581125 -1.32929031
  C  3.13227486 -1.68508260 -1.25833643
  N  0.46703870 -0.65675552  1.25922471
  C  0.69025985 -1.67400937  2.28488029
  H  1.06192164  4.79955160 -0.60015786
  H  1.31835410  4.04247576  1.00514633
  H  2.59416260  3.94658915 -0.23061595
  H -3.63321097 -0.83342679 -2.83420320
  H -4.78989833  0.24710113 -2.00108770
  H -4.52806229 -1.41484297 -1.40055948
  H -3.24198073  3.74826623 -0.91986104
  H -1.62187473  4.36110921 -0.53174190
  H -2.10463354  4.14111221 -2.24717311
  H -2.85366389 -2.13098888  0.95461281
  H -4.38923366 -0.54815434  2.83170790
  H -4.77994269 -2.18770754  2.25604122
  H -3.65491852 -1.94853493  3.61636244
  H  3.00633967 -0.46738980  1.88901427
  H  5.40036366 -0.97622852  1.76650789
  H  6.36806270 -1.91663754 -0.29868318
  H  4.90051465 -2.36107452 -2.24084269
  H  2.51535979 -1.89953907 -2.11530653
  H  0.91921893 -1.16788590  3.22280242
  H -0.19347001 -2.29830352  2.43399214
  H  1.52200315 -2.32022352  2.01045166
