45
opt_min/./Product_1224_opt.xyz
  C -2.33080551 -1.58000858  1.50682805
  C -2.40093675 -0.99847103  0.07715085
 Cl -3.07834857 -2.28737298 -0.99991238
  C -0.99268252 -0.69758254 -0.37507357
  C -0.24780205  0.41793853 -0.41812910
  C -0.47149299  1.89666987 -0.17563847
  F -0.27814049  2.15867963  1.16537160
  F  0.55402484  2.56583941 -0.77846933
  C -1.75184232  2.57670134 -0.67516414
  C -2.90971268  2.61480077  0.32437074
  C -3.13922031  1.26464236  0.99563679
  C -3.39289695  0.15442801 -0.03129265
  C  1.20778105  0.03088375 -0.71161266
  C  1.51120820  0.32880283 -2.10178636
  N  1.70385633  0.44122853 -3.22188571
  C  2.24150450  0.71079369  0.23730367
  O  3.05974373  1.51733825 -0.12715324
  N  2.13504436  0.22730216  1.48447438
  C  2.95715889  0.69963844  2.56898639
  N  1.19770877 -1.40065223 -0.43878014
  C  2.35584187 -2.15808899 -0.86023961
  C -0.12698429 -1.88655878 -0.77723970
  C -0.33188460 -2.24599195 -2.26522797
  H -3.09956030 -1.13373627  2.13180590
  H -1.36002278 -1.38384517  1.95901083
  H -2.49059798 -2.65530500  1.49314899
  H -1.46451902  3.60585333 -0.91067847
  H -2.03508635  2.10064417 -1.61408210
  H -2.69479344  3.35435133  1.09676690
  H -3.81252806  2.92854104 -0.20294028
  H -2.25072004  1.02633377  1.57822124
  H -3.97578935  1.34224881  1.69065087
  H -3.32407892  0.55026187 -1.04530451
  H -4.40397037 -0.24232071  0.08362917
  H  1.43856904 -0.47792868  1.66983017
  H  2.36469420  1.28840059  3.27449864
  H  3.41231283 -0.14211347  3.09289436
  H  3.73441992  1.33234492  2.14174892
  H  3.19533524 -1.89884443 -0.21266482
  H  2.13488670 -3.21881585 -0.74257570
  H  2.65481675 -1.96894555 -1.89856240
  H -0.33993436 -2.75895303 -0.14712994
  H -0.86804119 -1.45808651 -2.79059989
  H -0.88632837 -3.17269957 -2.37296381
  H  0.63122773 -2.36598556 -2.75419443
