35
opt_min/./Product_4425_opt.xyz
  O  2.05796900  2.73423800 -2.54976600
  C  1.41909165  1.81083301 -2.77101852
  O  0.76917299  0.91068743 -3.04428320
  C -0.69232919  1.73591906  0.05524135
  C -1.88267359  1.17945916 -0.07127896
  C -4.06728798  3.28041260  0.54299957
  O -3.22970512  3.76751360  1.15033526
  O -4.92398798  2.78384619 -0.02665258
  C -2.05008753  0.13559279  1.00854538
  C -2.87245010 -1.08187734  0.58926503
  O -3.21570818 -1.30340058 -0.54859221
  N -3.20588056 -1.86860815  1.63745514
  C -3.96029203 -3.08806532  1.48285704
  N -0.67236368 -0.17315563  1.45112971
  C -0.09106640 -1.28413273  0.70640450
  C  0.04936018  1.09480768  1.20234353
  C  1.53182342  0.90660922  0.87522834
  N  2.30581987  0.71574473  1.96263890
  C  3.73064510  0.50690177  1.87666716
  O  1.96514699  0.93870205 -0.25738868
  H -0.24612460  2.51479971 -0.53223337
  H -2.63833886  1.34909861 -0.81365704
  H -2.55666588  0.59912816  1.87351870
  H -2.83810485 -1.64848977  2.54914962
  H -3.35458350 -3.96054536  1.73885203
  H -4.84880111 -3.07259486  2.11569201
  H -4.25958523 -3.15118292  0.43786624
  H  0.02131616 -1.07218771 -0.36228894
  H  0.88719710 -1.51082097  1.12923846
  H -0.72367355 -2.16143306  0.82112675
  H -0.04529382  1.71030293  2.10991824
  H  1.87522340  0.66764822  2.87212052
  H  3.99869846  0.52471326  0.82165698
  H  4.26843875  1.30059608  2.39861156
  H  4.00777529 -0.45721363  2.30649711
