41
opt_min/./Product_4310_opt.xyz
  C -2.24560300 -1.63909800  0.47827600
  C -1.37004382 -1.11827465 -0.66187338
  C -1.75402871 -1.86315401 -1.93928090
  C  0.14162408 -1.28117059 -0.34052306
  C  0.42129752 -2.57774365  0.35741928
  O  0.60312846 -2.76690690  1.52673313
  C  0.56727897  0.06432625  0.32505624
  C  0.26865535  0.19894852  1.82731462
  C  2.06164196  0.23065686  0.08701069
  C  2.60330392  1.03647581 -0.90506483
  C  3.97297184  1.11821949 -1.09173189
  C  4.83251817  0.38897125 -0.29333509
  C  4.30772209 -0.42420589  0.69701682
  C  2.94041416 -0.50075147  0.88425913
  N -0.27191963  1.04646740 -0.35152990
  C -1.47068812  0.42453476 -0.87712139
  C -2.73864855  1.02933629 -0.27850693
  O -2.46964635  1.94685271  0.64133531
  C -3.57342108  2.59202476  1.26056370
  O -3.85349551  0.70970771 -0.61048385
  H -2.15388352 -2.72194161  0.54314676
  H -1.95853662 -1.21470997  1.43512253
  H -3.28851514 -1.39892258  0.28620505
  H -1.18177364 -1.50995745 -2.79615032
  H -1.57732230 -2.93078872 -1.82720943
  H -2.81137638 -1.70979576 -2.14525185
  H  0.66667605 -1.32568476 -1.30551716
  H  0.44414722 -3.43015732 -0.35309308
  H  0.90106337  0.98044773  2.24162013
  H -0.76310414  0.50931601  1.95924627
  H  0.44662056 -0.72164174  2.36964138
  H  1.97432270  1.62519466 -1.55923089
  H  4.36519995  1.75750869 -1.86949519
  H  5.90065256  0.45286825 -0.43933945
  H  4.96610863 -1.00214463  1.32862405
  H  2.55345249 -1.13976146  1.66038347
  H  0.21279772  1.57530665 -1.05869603
  H -1.56772577  0.62036249 -1.95610944
  H -3.24744349  2.88200008  2.25779383
  H -3.85145194  3.47754487  0.68611235
  H -4.42685431  1.91433489  1.31080549
