38
opt_min/./Product_483_opt.xyz
  C  0.64410400 -1.67618500 -1.31794800
  C -0.23107234 -0.93939857 -0.30437775
  C -1.18053905  0.16302133 -0.83079083
  C -2.57258094 -0.49299283 -0.64411938
  C -2.64925955 -1.72677371 -1.50960589
  C -1.89369755 -2.63042269 -0.90038389
  C -1.31890789 -1.90820192  0.30292533
  O -2.39052694 -1.05338234  0.65452170
  C -1.09764491  1.19222591  0.27312441
  C -2.03655324  2.35002550  0.35328305
  C -1.98737099  3.10838919  1.64530666
  O -2.77581682  2.62090783 -0.56434269
  N -0.27509383  0.93742157  1.19900445
  C  0.55895985 -0.17819362  0.82158282
  C  1.85618221  0.51530593  0.33487906
  O  2.86504405 -0.32245265  0.14969720
  C  4.11159773  0.26481214 -0.21537026
  O  1.93999768  1.70694369  0.20288095
  C  0.91395005 -1.08580704  2.00109879
  C  0.18410040 -0.75539223  3.26946751
  O  1.71197510 -1.97716364  1.89377210
  H  0.47156357 -1.30035275 -2.32442469
  H  1.69509317 -1.56412818 -1.08033400
  H  0.43183534 -2.74009882 -1.31163623
  H -0.94446201  0.58225920 -1.80548018
  H -3.42042454  0.18455996 -0.68113567
  H -3.21399198 -1.79884446 -2.41748847
  H -1.70886738 -3.65166851 -1.16717070
  H -1.00608532 -2.50851259  1.15293541
  H -2.83918170  2.79852934  2.25075896
  H -2.08846722  4.17494348  1.44904086
  H -1.06880833  2.89344551  2.18053596
  H  4.38682746  1.05044263  0.48843290
  H  4.04219003  0.69574584 -1.21639690
  H  4.83675103 -0.54536034 -0.19255659
  H  0.71621886  0.06428371  3.75351058
  H -0.82517313 -0.41252959  3.05793163
  H  0.18208357 -1.61544370  3.93552432
