60
opt_min/./Product_5941_opt.xyz
  C -0.51942900 -0.96579000 -1.55713000
  O -1.52987549 -0.81500167 -2.20766165
  C  0.44550696  0.18207064 -1.21189674
  O  1.57810399  0.03730898 -2.03444221
  C  1.39203295  0.17432665 -3.43298173
  C  0.91262195  0.02227583  0.26925114
  O  1.80479643  1.02651274  0.69714637
  C  3.12525035  1.06405346  0.17410064
  C  1.47542974 -1.36393606  0.53166000
  O  2.43664992 -1.52556390  1.24822883
  C  0.82568795 -2.49596225 -0.15998623
  C  1.24355525 -3.85217200  0.30718319
  C -0.08140034 -2.31013542 -1.13976179
  C -0.78203710 -3.44374304 -1.81726396
  C -0.40555213  0.40876373  1.01417945
  C -0.00125821  0.90315494  2.41900356
  O  0.44649850  0.20571368  3.28572457
  O -0.23758603  2.20695070  2.54372319
  C  0.11890472  2.82363878  3.77715988
  C -1.39358311 -0.73762426  1.18971584
  C -2.65105316 -0.72198705  0.59966146
  C -3.53098355 -1.77631318  0.77696758
  C -3.17488101 -2.86056836  1.55652657
  C -1.93082924 -2.87815077  2.16549171
  C -1.04904868 -1.82950992  1.98344833
  N -0.85833973  1.52685578  0.21621108
  C -0.27747194  1.56367445 -1.11932239
  C  0.75819567  2.71873287 -1.21526553
  N  0.76392496  3.51764087 -0.14221309
  C  1.63818004  4.65686559 -0.03228275
  O  1.41929561  2.91044742 -2.21914163
  C -1.32940806  1.88996088 -2.18806000
  H  1.19861309  1.21629731 -3.69483386
  H  2.33976697 -0.13346573 -3.86976457
  H  0.58917081 -0.46937603 -3.80367379
  H  3.60419569  1.87699276  0.71665967
  H  3.12571188  1.27821857 -0.89472806
  H  3.66139854  0.13406214  0.36608759
  H  1.81978148 -3.75750299  1.22380082
  H  1.87594192 -4.32778718 -0.44273743
  H  0.37767964 -4.48631510  0.48068825
  H -0.13240599 -4.30653899 -1.92574242
  H -1.65046261 -3.73061549 -1.22244589
  H -1.14192070 -3.12872994 -2.79368564
  H  0.65885546  2.11388480  4.40524857
  H  0.74792769  3.68380428  3.55138192
  H -0.79294257  3.14996593  4.27854878
  H -2.96158039  0.09780526 -0.02962517
  H -4.49793951 -1.74492744  0.29768196
  H -3.86250837 -3.68195298  1.69238332
  H -1.64321433 -3.71349225  2.78616978
  H -0.09298256 -1.84837289  2.48003652
  H -1.85054691  1.70483270  0.25681465
  H  0.24176096  3.20460380  0.66553934
  H  2.09931993  4.68555843  0.95386574
  H  1.08756757  5.58738192 -0.19773214
  H  2.41058664  4.57010256 -0.79648706
  H -2.28428501  1.42567560 -1.95510222
  H -1.01641722  1.54168777 -3.16577353
  H -1.46703083  2.96932859 -2.23664398
