60
opt_min/./Product_5841_opt.xyz
  C  6.00444100  0.39074900 -1.21525500
  C  4.95810417  0.31404508 -0.14568243
  C  5.50757826  0.30658611  1.24827116
  C  3.65877825  0.24279766 -0.45874971
  C  2.54728216  0.14682782  0.45601951
  C  1.28504155  0.06110034  0.03138291
  C  0.05588321 -0.08354911  0.88865232
  C  0.27135418  0.42529354  2.31212930
  C -0.33958268 -1.57502243  0.93375753
  C -1.02935476 -1.77747879 -0.41735753
  C -2.10098950 -2.88877386 -0.30652861
  C -1.60938709 -4.31042810 -0.37185822
  O -3.26070282 -2.62275750 -0.15193163
  C -0.10108924 -2.10271880 -1.61266183
  C  1.20510515 -2.81445073 -1.34928094
  O -0.43127962 -1.78319612 -2.72395818
  O -1.68341804 -0.55334802 -0.67282456
  C -1.17420200  0.52339929  0.12920415
  C -2.27000268  1.01866473  1.07412407
  C -3.41297084  0.26461958  1.29534350
  C -4.40477456  0.72202504  2.14728194
  C -4.27147899  1.94013966  2.78563294
  C -3.14217417  2.70861051  2.55498950
  C -2.15322970  2.25675579  1.70259459
  C -0.85370606  1.68041445 -0.80491897
  C  0.13332083  2.62028812 -0.53648519
  C  0.34703044  3.67762878 -1.40438762
  C -0.42189694  3.81170860 -2.54637266
  C -1.40969542  2.88021822 -2.81684682
  C -1.62703952  1.82548149 -1.95015768
  H  6.73717395 -0.40572401 -1.08449865
  H  5.56609256  0.30533497 -2.20580162
  H  6.53832287  1.33938770 -1.15084474
  H  4.75337364  0.53555496  1.99422621
  H  6.31190780  1.03571789  1.33484621
  H  5.92940909 -0.67382448  1.47625454
  H  3.38097134  0.25612089 -1.50585628
  H  2.76855744  0.14089838  1.51236802
  H  1.09328268  0.06661682 -1.03426641
  H  0.98774896 -0.21563917  2.82234615
  H  0.65479917  1.44177928  2.31623012
  H -0.65855738  0.40412379  2.87475023
  H  0.51091763 -2.23118614  1.10042387
  H -1.06996192 -1.72613825  1.73285299
  H -1.22384995 -4.51428153 -1.36886696
  H -2.44379467 -4.97945021 -0.17182943
  H -0.82280624 -4.48929546  0.35683197
  H  1.05159172 -3.74251334 -0.80661807
  H  1.67253856 -3.03163868 -2.30729380
  H  1.87297158 -2.18532048 -0.76619676
  H -3.53898735 -0.67642024  0.78567883
  H -5.28720203  0.11898884  2.30486545
  H -5.04512734  2.29691814  3.45087969
  H -3.03300884  3.66928357  3.03769925
  H -1.29005665  2.87741614  1.52048892
  H  0.75688171  2.53183006  0.33991011
  H  1.12259285  4.39714853 -1.18362164
  H -0.25138300  4.63689877 -3.22250133
  H -2.01493500  2.97512660 -3.70639140
  H -2.38980435  1.09199079 -2.15650827
