53
opt_min/./Product_1689_opt.xyz
  C -0.36101800  3.96970500 -1.02953000
  N -0.78573345  2.59006075 -1.10017270
  C -0.63848829  1.79467107 -0.02596925
  O -0.13438565  2.22118005  0.99693800
  C -1.17834148  0.34884075 -0.10140614
  C -2.21255008  0.36034214  1.07001516
  O -3.41371402  0.34691860  0.88094100
  N -1.64826485  0.40898370  2.27988618
  C -2.42997990  0.53360948  3.48339868
  C -0.08901940 -0.61243333  0.28647312
  C -0.18558849 -1.91810753  0.60075917
  C -1.20635671 -2.92812084  0.21156668
  F -0.90605061 -4.13553611  0.82421517
  C -1.15843043 -3.10172452 -1.31496634
  C -2.35273798 -2.48759000 -2.03843269
  C -2.87637093 -1.13805564 -1.54215786
  C -1.93368729  0.07447060 -1.42312000
  N  0.95118083 -2.31863452  1.26547305
  N  1.89954737 -1.24818500  1.37624571
  C  3.14892690 -1.61109222  0.68853050
  N  1.20278385 -0.15885922  0.70975159
  C  1.95360061  0.74939685 -0.02843433
  C  2.96369725  1.47420226  0.60509263
  C  3.69377197  2.40801747 -0.09888933
  C  3.43260154  2.64038568 -1.44142453
  C  2.43713847  1.91849641 -2.07827711
  C  1.70778940  0.97241434 -1.38520712
  H -0.94203778  4.50500762 -0.27633710
  H -0.49476910  4.43633234 -2.00074436
  H  0.69135163  4.01662492 -0.74173840
  H -1.18122996  2.26167186 -1.96159069
  H -0.65679171  0.59728817  2.33920006
  H -2.55154291  1.58222763  3.76853797
  H -1.93840952 -0.00448770  4.29240440
  H -3.41609668  0.10835048  3.29921139
  H -2.21207584 -2.66909348  0.55968843
  H -0.23809983 -2.64012928 -1.68276821
  H -1.11226642 -4.16736463 -1.54464789
  H -2.09016250 -2.40238250 -3.09651825
  H -3.19665956 -3.17933986 -1.96707170
  H -3.41065520 -1.25522237 -0.60265551
  H -3.62407989 -0.84584880 -2.28626222
  H -1.24620635  0.07999087 -2.27240939
  H -2.62046201  0.92306588 -1.50333677
  H  1.20176321 -3.26084927  1.48563754
  H  3.37068176 -2.65236443  0.91767400
  H  3.09931062 -1.48178909 -0.39811439
  H  3.95284783 -0.99475975  1.08479942
  H  3.14685872  1.30176527  1.65385531
  H  4.46800553  2.97054338  0.40314088
  H  4.00340281  3.37595225 -1.98755731
  H  2.23963701  2.08089812 -3.12889297
  H  0.95311640  0.38568334 -1.88920341
