60
opt_min/./Product_2465_opt.xyz
  C  1.43786000 -0.73426700  3.70947600
  O  1.01666731 -0.46052478  2.38357417
  C  1.66686241  0.44690105  1.68409459
  O  2.62867758  1.07167206  2.06258863
  C  1.14104871  0.48319583  0.24786495
  C -0.37860733  0.79070092  0.08409452
  C -1.02339700  1.33840255  1.35355628
  O -0.44867069  1.63793849  2.36460953
  O -2.32681128  1.56079997  1.15839592
  C -3.05788908  2.09692354  2.25721537
  C -0.38630241  1.92792391 -0.96875020
  C  0.09983223  3.22257410 -0.30572626
  C  1.58994369  2.93828365 -0.04169279
  C  1.79608099  1.54539261 -0.65443628
  C  0.82770877  1.59348078 -1.83486170
  C -1.00333178 -0.58179710 -0.35264483
  C -2.31116818 -0.91499894  0.43688981
  O -2.25683162 -1.46296451  1.51258013
  N -3.46413461 -0.57219359 -0.16464202
  C -4.74684353 -0.82704175  0.44674049
  C -1.32220499 -0.60424234 -1.85867568
  O -2.09874084  0.14393163 -2.41478221
  O -0.67665262 -1.57473347 -2.49704948
  C -0.94094282 -1.74194109 -3.88553548
  N  0.00278965 -1.53099904  0.04306844
  C -0.20917729 -2.94657578 -0.13837515
  C  1.29305730 -0.98106126 -0.25077848
  C  2.45115002 -1.72683838  0.42972765
  N  3.66188404 -1.24314718  0.06554345
  C  4.88626137 -1.70223352  0.67799337
  O  2.33084310 -2.66182684  1.18832986
  H  0.59552445 -0.54408067  4.37386213
  H  1.72019399 -1.78671186  3.74848059
  H  2.28286022 -0.09643478  3.97499945
  H -4.04917343  1.65121139  2.22506756
  H -3.12566124  3.18152200  2.15328657
  H -2.55667021  1.84742351  3.19319905
  H -1.34172431  2.03024293 -1.47746767
  H -0.03066404  4.05716131 -0.99655895
  H -0.43904547  3.47175404  0.60503647
  H  1.83459962  2.94965386  1.01612476
  H  2.22737571  3.66206341 -0.54872351
  H  2.84044338  1.33707422 -0.87910160
  H  0.73468830  0.65537383 -2.37805909
  H  1.05893201  2.38549023 -2.54425575
  H -3.45634006 -0.05669499 -1.03204658
  H -4.57118701 -1.19662764  1.45633132
  H -5.33643253  0.08913291  0.48577056
  H -5.29810507 -1.58253347 -0.11770539
  H -1.25272350 -0.79255706 -4.32504092
  H -0.02050348 -2.09931756 -4.34182106
  H -1.73237090 -2.48167386 -4.01615216
  H  0.17123288 -3.46923292  0.73680997
  H  0.30048456 -3.32541895 -1.03276101
  H -1.27329511 -3.14611191 -0.23141795
  H  1.53071510 -0.98716958 -1.33923800
  H  3.72344319 -0.42918510 -0.52336936
  H  5.62561202 -1.94051243 -0.08724077
  H  5.28813609 -0.94256485  1.35168727
  H  4.64894402 -2.59894768  1.24760231
