42
opt_min/./Product_4236_opt.xyz
  C  4.04318944 -0.47035291 -1.39426706
  C  2.97769172 -0.75687327 -0.37044367
  C  3.26323390 -1.95145204  0.49078635
  C  1.92092303  0.04394379 -0.28901841
  C  0.67321579 -0.04239366  0.54513101
  C -0.53001360  0.50196261 -0.25287091
  C -0.60010756  2.00332352 -0.38505742
  C -1.69927873  2.55181502 -1.24767834
  C  0.31252428  2.83244933  0.10248026
  C -1.73321172 -0.20387305  0.43871323
  C -2.34900852  0.66457695  1.54863885
  C -2.17869534  0.17683488  2.96516985
  O -2.95942671  1.66919830  1.30000863
  C -2.84231052 -0.55086210 -0.59090627
  O -3.61390280  0.26164269 -1.04170942
  N -2.82789222 -1.84651478 -0.95142346
  C -3.77497276 -2.39723342 -1.88733505
  O -1.21462274 -1.41924662  0.97157127
  C  0.20398054 -1.44492963  0.92330901
  H  5.03002050 -0.72851797 -1.01821419
  H  3.86104089 -1.06982635 -2.28692031
  H  4.04192682  0.57631439 -1.68559277
  H  4.31064823 -1.93977056  0.78812011
  H  2.65653963 -1.96629794  1.38863493
  H  3.09249633 -2.87457987 -0.06329454
  H  1.91178659  0.91221984 -0.93690647
  H  0.79102424  0.56254253  1.45092965
  H -0.45164478  0.10634620 -1.27663284
  H -2.55106574  2.81779885 -0.62638320
  H -1.35365235  3.44442931 -1.76355005
  H -2.05145524  1.82490890 -1.97164596
  H  0.23139331  3.88577622 -0.10397202
  H  1.12691027  2.53762095  0.74127500
  H -1.48698212 -0.65302864  3.04397763
  H -3.15473808 -0.13718451  3.33148016
  H -1.85032017  1.01151702  3.58108921
  H -2.19756214 -2.46603844 -0.46481938
  H -3.27799853 -3.11221595 -2.54215789
  H -4.18008382 -1.57596767 -2.47697670
  H -4.59911264 -2.89524057 -1.36954456
  H  0.52014294 -2.17744063  0.17033261
  H  0.55977392 -1.76750277  1.90595388
