19
opt_min/./Product_5_opt.xyz
  C  3.74822800 -0.04278200 -0.33559600
  N  2.33733071 -0.30565222 -0.19435259
  C  1.47181520  0.61102089  0.27824548
  O  1.75343971  1.73029933  0.63746111
  C  0.07440856  0.07902995  0.34066593
  C -1.05015872  0.66203845  0.75988206
  F -1.23936065  1.88319977  1.23416239
  C -2.20603307 -0.29836324  0.59484912
  C -3.27307275  0.22218170 -0.37239925
  O -1.56297554 -1.45721750  0.08600913
  O -0.14988165 -1.19617156 -0.07792674
  H  4.05914768 -0.14294065 -1.37617598
  H  3.92390513  0.97786431 -0.00143039
  H  4.32924754 -0.73084111  0.27983134
  H  1.99263556 -1.21664856 -0.45520139
  H -2.66181054 -0.54565880  1.56579625
  H -2.89283101  0.17972968 -1.38939265
  H -3.51767762  1.25062562 -0.12447901
  H -4.16988351 -0.38478358 -0.30831746
