51
opt_min/./Product_2083_opt.xyz
  C -0.76147900  2.96705100  2.59707200
  O -0.66755741  1.91867515  1.64262528
  C -0.13394968  2.17558555  0.45310107
  O  0.26078885  3.24854115  0.09214565
  C -0.05355088  0.88371349 -0.35783007
  C -1.44808248  0.20001959 -0.54227970
  C -2.57905111  0.84806519  0.26314174
  C -3.07755571  2.18221400 -0.22410234
  O -3.08377262  0.28336560  1.19796515
  C -1.65112102  0.41234297 -2.07798398
  C -0.72652778 -0.54962911 -2.78803700
  C  0.48603185 -0.03587270 -2.63796840
  C  0.28843280  1.23684007 -1.84144231
  O -0.99095437  1.65221345 -2.28803904
  C -1.19877036 -1.24008592 -0.06296576
  C -2.46931712 -1.99445605  0.33719202
  N -2.44174743 -2.53917446  1.56108380
  C -3.56985018 -3.25541832  2.10241119
  O -3.35909222 -2.15706999 -0.47264229
  N -0.23497222 -1.02958130  0.99359427
  C  0.77745878 -0.13968325  0.46311801
  C  1.53902890  0.51594146  1.63166606
  O  1.46072712  0.16133958  2.77295165
  O  2.33836207  1.47998660  1.18089340
  C  3.11166322  2.16836358  2.16425555
  C  1.86279722 -0.91747794 -0.29971058
  O  1.93635711 -2.11761336 -0.25316173
  O  2.72698595 -0.12043942 -0.91015392
  C  3.86329145 -0.73138091 -1.51264448
  H -1.80948677  3.07986080  2.86975302
  H -0.18714794  2.67063512  3.47394040
  H -0.37604670  3.89511809  2.17299120
  H -2.36551438  2.69776852 -0.85850808
  H -3.35160333  2.79723238  0.62948238
  H -3.98837807  2.00215141 -0.79430357
  H -2.68388356  0.43711390 -2.40751140
  H -1.04570785 -1.44706816 -3.27716989
  H  1.42410489 -0.38744817 -3.01553263
  H  1.02501477  2.02625443 -1.94522485
  H -0.77331844 -1.82266667 -0.90001500
  H -1.68021533 -2.31326062  2.18237019
  H -3.21803550 -4.11627269  2.66828965
  H -4.16615343 -2.61169037  2.75219331
  H -4.19078819 -3.57682420  1.27008207
  H  0.20083016 -1.89300420  1.31165333
  H  3.85500590  2.73941866  1.61699715
  H  3.57979536  1.44971170  2.84257599
  H  2.46785047  2.83986888  2.74041303
  H  4.64778280 -0.86582276 -0.76553388
  H  3.61286342 -1.70840824 -1.92992227
  H  4.19771415 -0.04797158 -2.29031616
