40
opt_min/./Product_1671_opt.xyz
  F  1.78905700  2.72735700  0.90635800
  C  1.84399485  1.55495496  0.20626059
 Br  2.53442925  2.12865000 -1.58924572
  C  0.47711544  1.01117115  0.05009096
  C -0.06537697 -0.18406031  0.32495655
  C  0.46771365 -1.45077181  0.89007076
  C  1.49078419 -2.18166433  0.00179223
  C  2.41805963 -1.28349808 -0.81049985
  C  3.42765928 -0.47358095  0.00266669
  C  2.84755685  0.63397851  0.88285531
  C -1.53312713 -0.03676565 -0.08510851
  C -2.53682845 -0.98179975  0.57027536
  N -2.99988300 -1.94146156 -0.24527372
  C -3.98462234 -2.90207351  0.19563964
  O -2.81337843 -0.87365102  1.74303907
  O -1.78714327  1.34092967  0.15823053
  C -0.69428801  1.82968288 -0.53032873
  C -0.64033313  3.36288500 -0.56123871
  C -0.40589037  3.99083809 -1.89742882
  O -0.82922932  3.96996140  0.45362066
  O -0.88510113  1.23108553 -1.87984894
  C -1.38526770  0.03384826 -1.63596970
  O -1.64768624 -0.81461164 -2.43692592
  H -0.37113004 -2.12182479  1.07609788
  H  0.90994727 -1.22018700  1.86277737
  H  0.94446280 -2.81418634 -0.70173486
  H  2.08717567 -2.83486925  0.63960720
  H  2.98660964 -1.92977422 -1.48458376
  H  1.82608647 -0.62201443 -1.44248001
  H  4.12973899 -0.02084255 -0.70263173
  H  4.00472680 -1.14454008  0.64182972
  H  3.67069178  1.25999510  1.23961818
  H  2.35418659  0.21733997  1.76265154
  H -2.75684354 -1.93386361 -1.22808805
  H -4.09495980 -2.80059122  1.27407374
  H -3.65679270 -3.91294258 -0.04820676
  H -4.94611432 -2.71210770 -0.28492889
  H -1.36780441  4.35412779 -2.26190194
  H  0.24670454  4.85363810 -1.78082773
  H -0.00053243  3.29304975 -2.62100407
