39
opt_min/./Product_4091_opt.xyz
  C -2.57329700 -1.45739500  0.88878800
  C -1.60297544 -1.18229544 -0.25879254
  C -1.99470431 -2.09233113 -1.42971651
  C -0.12119900 -1.39143715  0.21848681
  C  0.52627419 -2.56096092 -0.48303474
  O  1.05990460 -2.52387745 -1.55335736
  N  0.53149615 -0.13914009 -0.11179862
  C  1.86906468  0.12437833  0.03215420
  C  2.76282635 -0.83312655  0.51352281
  C  4.11053924 -0.54451603  0.60483697
  C  4.59420551  0.70069863  0.24029162
  C  3.70931172  1.66014034 -0.22647954
  C  2.36220608  1.38118468 -0.32957402
  N -0.38619167  0.92507091 -0.16834012
  C -0.62228979  1.52674374  1.14238295
  C -1.55393164  0.29025890 -0.77299006
  C -2.77297949  1.19091623 -0.64014868
  C -2.70494774  2.37356852 -1.57146672
  O -3.69592502  1.00492549  0.10666732
  H -2.40154920 -0.80902799  1.74301807
  H -2.46203079 -2.49194081  1.21134270
  H -3.59796042 -1.31137560  0.56073328
  H -2.02341719 -3.13497241 -1.11923183
  H -2.98901353 -1.81225579 -1.77376942
  H -1.30127794 -1.99867395 -2.26175080
  H -0.11857276 -1.58932560  1.30523386
  H  0.45176997 -3.50992298  0.09021987
  H  2.40436619 -1.81007718  0.80796366
  H  4.78879347 -1.30050404  0.97501438
  H  5.64838443  0.92004495  0.31714924
  H  4.07372070  2.63491807 -0.51771385
  H  1.67036222  2.12411255 -0.69416404
  H -1.07456289  0.85055564  1.87236076
  H -1.27370491  2.38929880  1.01871286
  H  0.34111892  1.86781378  1.52024123
  H -1.31897722  0.23627614 -1.84433495
  H -3.38072003  3.15772091 -1.24263286
  H -1.68643874  2.74550277 -1.64148919
  H -3.01884396  2.04585302 -2.56205279
