41
opt_min/./Product_5271_opt.xyz
  C -0.57970900  0.02039600  2.27559400
  O -1.13196871  1.03945046  2.61011490
  C  0.31441879 -0.71161766  3.19280139
  C  1.20151449 -1.62179937  2.78372187
  C  1.32120412 -2.03400389  1.37195072
  O  1.93450306 -3.01951472  1.03661836
  C  0.60071654 -1.15087861  0.39242257
  C -0.73725095 -0.60237973  0.89659216
  C -0.99710198  0.48107764 -0.16708435
  C -1.98400919  1.56459907  0.31947346
  O -1.41527119  2.75325218  0.34033875
  C -2.22635916  3.82097036  0.81702626
  O -3.13127727  1.32358332  0.57375469
  C -1.62817429 -0.15861630 -1.42436114
  O -1.16292296 -0.07128379 -2.52484408
  O -2.73835169 -0.81536375 -1.11811943
  C -3.44928339 -1.39984500 -2.20599042
  O  0.26859386  1.00535829 -0.49350838
  C  1.30036746  0.19104877  0.05114710
  C  2.44036252  0.02735079 -0.91344549
  C  3.74915340  0.02607493 -0.45038171
  C  4.79844713 -0.16658734 -1.33024491
  C  4.54667859 -0.35361935 -2.67889320
  C  3.24307863 -0.34444427 -3.14531535
  C  2.18998297 -0.15962803 -2.26689828
  H  0.25204306 -0.41869998  4.23285013
  H  1.85359143 -2.12903265  3.48149631
  H  0.46459475 -1.69138735 -0.55154024
  H -1.53774487 -1.34291496  0.93867660
  H -2.38102174  3.70926001  1.89171779
  H -3.19515920  3.81558476  0.31367767
  H -1.68184740  4.73656573  0.59889571
  H -3.59762047 -0.66545951 -2.99931372
  H -4.40355966 -1.72609552 -1.80130679
  H -2.89110651 -2.24766993 -2.60905899
  H  1.66000793  0.65794181  0.98429081
  H  3.94577420  0.17354299  0.60276503
  H  5.81607398 -0.16941778 -0.96913380
  H  5.36648989 -0.50310609 -3.36591036
  H  3.04385706 -0.48486621 -4.19720002
  H  1.17274984 -0.13243139 -2.62617065
