52
opt_min/./Product_5781_opt.xyz
  C -0.64761800 -1.40722500  1.71833200
  C -0.07134623 -2.78598787  1.61792321
  C  0.63444189 -3.15813479  0.54829390
  N  0.81046556 -2.38904457 -0.56035442
  C  1.67151485 -2.86049731 -1.61723963
  C  0.33806533 -1.05017726 -0.59975262
  C -0.87421224 -0.78923423  0.33147599
  C -2.13370601 -1.30106057 -0.39659998
  N -3.21945801 -1.55331276  0.36055938
  O -2.13994786 -1.48193022 -1.59277517
  C -0.84474146  0.76803167  0.41514755
  C -1.24886653  1.40388022  1.76684939
  C -2.66886993  1.28970143  2.22706560
  O -0.40960095  2.00018097  2.39358878
  C -1.73166825  1.34598910 -0.70116446
  O -2.93755488  1.28627090 -0.68984831
  O -1.01439663  1.86830635 -1.67289138
  C -1.71999715  2.32897456 -2.82012413
  O  0.49725740  1.16679196  0.20364388
  C  1.33181561  0.09264813 -0.21307136
  C  2.30792687 -0.33413730  0.90325136
  N  2.28590487  0.48959234  1.96473410
  C  3.13504946  0.28435849  3.11083771
  O  3.02793432 -1.30126750  0.79902905
  C  2.18969505  0.54986232 -1.40846754
  O  2.86751027 -0.20797938 -2.06493321
  N  2.12944259  1.87439496 -1.62953933
  C  2.86657022  2.50457460 -2.69406294
  H -1.57578577 -1.44520133  2.29135009
  H  0.04202521 -0.75618190  2.27162740
  H -0.20724553 -3.44695782  2.45459343
  H  1.07530495 -4.13992720  0.48482163
  H  2.72206594 -2.70178411 -1.36263387
  H  1.45941368 -2.31109365 -2.53122913
  H  1.48610040 -3.92068502 -1.78703301
  H  0.01729168 -0.84200265 -1.63160507
  H -4.06858369 -1.74926072 -0.14264414
  H -3.30793235 -1.22514889  1.30323014
  H -3.35274719  1.26148299  1.38344555
  H -2.78070548  0.38392396  2.82009960
  H -2.89448045  2.13259556  2.87582155
  H -1.00780695  2.31791179 -3.64061143
  H -2.56283371  1.66722158 -3.02727499
  H -2.08804357  3.34160959 -2.64549852
  H  1.63044473  1.26053274  1.97307016
  H  3.48612377 -0.74690993  3.09015245
  H  4.00024195  0.95106832  3.07825273
  H  2.57413299  0.46756315  4.02559441
  H  1.49383808  2.42305697 -1.07316156
  H  3.15292514  3.51168118 -2.39855259
  H  3.75628415  1.90861466 -2.89273380
  H  2.27347668  2.55444409 -3.61215079
