26
opt_min/./Product_3357_opt.xyz
  C  1.94417700  1.34257600 -0.60642000
  C  0.43753826  1.36880933 -0.90325309
  N -0.07575322  0.29075222 -0.04762484
  C -1.39646155 -0.10090000  0.03070418
  C -1.75709586 -1.14353565  0.88866328
  C -3.07495691 -1.54348784  0.97327489
  C -4.05126187 -0.91916825  0.21218474
  C -3.69702159  0.11526454 -0.63873528
  C -2.38131334  0.52736696 -0.73410096
  N  0.86540417 -0.28359440  0.67763565
  C  2.01923012  0.24356837  0.43828426
  C  3.25481033 -0.17091342  1.08117236
  C  3.11338471 -1.23975382  2.13474183
  O  4.31896177  0.34456851  0.79273031
  H  2.32405574  2.28271413 -0.21159496
  H  2.54748238  1.07932914 -1.47370207
  H -0.03189608  2.31486351 -0.62281358
  H  0.20695281  1.15541972 -1.94876018
  H -1.00242740 -1.63144944  1.48288158
  H -3.35011350 -2.34894021  1.63689065
  H -5.07972998 -1.23643431  0.28233196
  H -4.45647212  0.60253189 -1.23124309
  H -2.13064530  1.33503217 -1.40239802
  H  2.79440016 -0.76726072  3.06186282
  H  4.07017757 -1.72541860  2.30199752
  H  2.35817467 -1.96441496  1.85043771
