31
opt_min/./Product_4370_opt.xyz
  C  1.70679014 -1.06163420 -1.29723918
  O  1.54504515 -1.18462205 -2.48141906
  C  2.38788419 -2.09151909 -0.48081885
  C  2.32372538 -2.15246580  0.85257054
  C  1.63707060 -1.13799950  1.66162000
  O  1.80860186 -0.99735357  2.84487115
  C  0.73017792 -0.19647003  0.87896971
  C  1.25833369  0.17004601 -0.50864254
  C  0.00544226  0.83128062 -1.12211783
  C -0.07330996  0.83936436 -2.57357388
  N -0.20079240  0.94439521 -3.70352251
  C -0.00327605  2.35336524 -0.75585847
  C -1.33700559  2.91045828 -0.36425893
  O  1.01595980  2.98046332 -0.81861802
  O -1.10963487  0.14185033 -0.55525556
  C -0.66684626 -0.73861956  0.46894776
  C -1.63994469 -0.81323629  1.68026555
  C -2.92081468 -0.06537528  1.49395388
  O -1.32877642 -1.44921994  2.64432693
  C -0.60388351 -2.09696919 -0.05141252
  N -0.61674865 -3.16206657 -0.46385972
  H  2.89779441 -2.85152924 -1.05445265
  H  2.82662206 -2.93167914  1.40702347
  H  0.56402267  0.70208992  1.48158630
  H  2.09399634  0.88018792 -0.46826058
  H -1.35964595  3.02413466  0.71892549
  H -1.43780704  3.90375513 -0.79592162
  H -2.14894996  2.26735948 -0.68302965
  H -2.72678509  1.00215982  1.56826386
  H -3.32323177 -0.25944450  0.50356887
  H -3.62387208 -0.35600757  2.26882024
