34
opt_min/./Product_3568_opt.xyz
  C -0.81414000 -1.94884200 -1.10777000
  C -1.42124676 -0.63887211 -0.62609823
  C -2.21406083 -0.80683258  0.68888457
  C -3.65111871 -0.24319425  0.61106979
  N -1.36299173 -0.10631037  1.65081776
  N -0.87859915  1.05786827  0.98967287
  C -0.40391746  0.50779927 -0.28137686
  C -0.33759076  1.57290383 -1.37146211
  C  0.23894369  2.89170353 -0.93675102
  O -0.64162294  1.33409297 -2.51413733
  C  1.03657479  0.02531442 -0.13848315
  C  1.78458793 -0.29651989 -1.26690116
  C  3.09253093 -0.72591134 -1.13939360
  C  3.67338571 -0.83185648  0.11308189
  C  2.93517831 -0.50262454  1.23529043
  C  1.62482717 -0.07252684  1.11406231
  H -0.40281863 -1.82743878 -2.10584823
  H -0.02433481 -2.27927167 -0.43652597
  H -1.58764293 -2.71327193 -1.14391077
  H -2.06973176 -0.26355127 -1.42407570
  H -2.25403345 -1.85905530  0.98268857
  H -4.37914583 -1.04878918  0.55317389
  H -3.87845489  0.34738927  1.50129019
  H -3.78384905  0.40017348 -0.25767453
  H -1.83743443  0.14584526  2.51233407
  H -1.66324495  1.69648565  0.78527984
  H  0.12676228  3.62095587 -1.73623456
  H -0.22082068  3.24547593 -0.01982642
  H  1.29898449  2.73813718 -0.73447734
  H  1.34645202 -0.20755627 -2.24973957
  H  3.66054669 -0.97647891 -2.02425643
  H  4.69547736 -1.16775722  0.21084138
  H  3.38094906 -0.57765363  2.21731705
  H  1.05060220  0.17777585  1.98948787
