42
opt_min/./Product_4443_opt.xyz
  C -3.67962981  0.07856642 -0.20932430
  C -2.82700805 -0.69844027  0.75162590
  C -3.57728652 -1.35505734  1.86960565
  C -1.50562966 -0.79606442  0.65592988
  C -0.64975037 -0.16735421 -0.39197681
  C  0.47842491  0.70488087  0.20785774
  C  0.33095880  2.19112158  0.06532512
  C  0.19177715  2.78487915 -1.30364746
  C  0.34673586  2.95575857  1.14731000
  C  1.74913041  0.05905914 -0.45032494
  C  3.06028378  0.51469783  0.16488058
  N  3.86788575 -0.50718039  0.51856559
  C  5.18573520 -0.27276362  1.06401134
  O  3.33146748  1.68283465  0.31688601
  N  1.43069341 -1.36821137 -0.45795441
  C  0.18538910 -1.22052961 -1.19323172
  C -0.52010020 -2.50130889 -1.57416719
  O  0.64412974 -0.53265389 -2.36776607
  C  1.63660122  0.28185256 -1.96672221
  O  2.28213821  0.97473798 -2.68803590
  H -3.39077661 -0.10584238 -1.24348082
  H -4.72541984 -0.19630156 -0.09527513
  H -3.58323504  1.14794763 -0.02010772
  H -4.17866138 -0.61922485  2.40341760
  H -4.25094724 -2.11634165  1.47363992
  H -2.90125255 -1.83053886  2.57828465
  H -0.96706402 -1.36707260  1.40393314
  H -1.26037879  0.39623543 -1.09615776
  H  0.56207682  0.48916702  1.28122363
  H -0.41585577  3.68644704 -1.26633110
  H  1.18139904  3.05106676 -1.67638985
  H -0.25107698  2.09264707 -2.01584575
  H  0.24777474  4.02522644  1.07786923
  H  0.47485406  2.55259245  2.13765715
  H  3.57042446 -1.45827371  0.36792429
  H  5.16186951 -0.25316214  2.15750387
  H  5.52259466  0.70537362  0.71871327
  H  5.87264834 -1.04594251  0.72710316
  H  1.26653215 -1.73641380  0.47671311
  H -1.53651810 -2.28130014 -1.88748629
  H -0.54343032 -3.17462765 -0.72158789
  H  0.01530944 -2.97131199 -2.39442589
