41
opt_min/./Product_3935_opt.xyz
  C -2.89055500 -0.84622000 -0.19885200
  C -1.64415201 -0.73036019  0.67958472
  C -1.79144151 -1.77451580  1.79614245
  C -0.29914034 -0.89851182 -0.10017403
  C -0.38373198 -0.29894076 -1.50482684
  C  0.15382308 -2.34907644 -0.23505610
  C  0.67607649 -0.06224141  0.77564408
  C  1.97640163  0.29144739  0.11326123
  C  3.03756653 -0.61132421  0.15818842
  C  4.23585477 -0.32370343 -0.46337164
  C  4.40329337  0.88475720 -1.12115463
  C  3.37091360  1.80494239 -1.13482360
  C  2.16442528  1.50826708 -0.52314054
  N -0.13174863  1.07984530  1.10654692
  C -1.49823539  0.68783214  1.33198859
  C -2.50562288  1.71850981  0.82652641
  C -1.99627660  2.82881950 -0.05264792
  O -3.66192685  1.65905245  1.17258684
  H -3.77843818 -0.70488770  0.41058444
  H -2.93338584 -1.83213683 -0.65441955
  H -2.90897076 -0.09708128 -0.98467547
  H -1.93597340 -2.76740336  1.37878054
  H -0.92103632 -1.79859061  2.44824169
  H -2.66439039 -1.53854798  2.39955075
  H -1.00339684 -0.93046849 -2.13905973
  H  0.60565322 -0.24950108 -1.95315629
  H -0.80399145  0.69994863 -1.49105473
  H -0.63359786 -2.94607380 -0.69006283
  H  0.41126699 -2.79620299  0.72119429
  H  1.03168381 -2.39406950 -0.87523851
  H  0.91848873 -0.67093159  1.67327520
  H  2.91655067 -1.54071509  0.69507101
  H  5.04758388 -1.03561557 -0.42938847
  H  5.33649218  1.11808893 -1.61200002
  H  3.50427210  2.75766066 -1.62738912
  H  1.36016394  2.22906648 -0.54760385
  H  0.24874420  1.73891280  1.76920182
  H -1.74115471  0.59745781  2.40884028
  H -2.08814967  3.76959012  0.48497430
  H -2.62991422  2.89533528 -0.93504979
  H -0.96321391  2.65999174 -0.33463492
