68
opt_min/./Product_3087_opt.xyz
 Cl  0.05981795 -2.78242916  0.77966727
  C -0.61538781 -1.87272517 -0.50928857
 Cl -1.09117802  0.37223830 -3.39840798
  C -0.52935477 -0.46083522 -0.35337316
  C  0.58456580  0.27789186 -0.36001432
  C  1.92957302 -0.00180122 -0.94989786
  C  3.00099619  0.38215369  0.04946563
  C  3.88942259  1.41315316 -0.22665892
  C  4.85818156  1.76791941  0.69379156
  C  4.95167506  1.09407360  1.89938883
  C  4.07430738  0.06216421  2.18015936
  C  3.10307226 -0.29101113  1.25990216
  C  2.16025245 -1.42173448 -1.48860994
  C  1.29093333 -1.80739047 -2.70133780
  C  0.34701029 -2.97692875 -2.46049569
  C -0.98011970 -2.55085413 -1.74581646
  C  0.28151749  1.65651424  0.20393916
  C  0.69951262  1.60267457  1.60767410
  N  0.91388897  1.51980418  2.72852146
  C  0.91053795  2.82909906 -0.52083944
  C  1.64714542  3.78618353  0.16480515
  C  2.21892197  4.84064672 -0.52394142
  C  2.05474805  4.94933167 -1.89494368
  C  1.31395557  4.00036983 -2.57659874
  C  0.74236042  2.94007748 -1.89470313
  O -1.13527939  1.74537196  0.17002739
  C -1.73109503  0.46281950  0.06290095
  C -2.29366592  0.02913510  1.41095819
  C -2.49999186  1.00059995  2.38525990
  C -3.03897154  0.65660664  3.61168968
  C -3.38348077 -0.65443107  3.88436860
  C -3.18974514 -1.62525934  2.91748023
  C -2.64745465 -1.28360749  1.69175854
  C -2.81281472  0.53182568 -0.99135490
  C -3.75867077 -0.47537407 -1.16498168
  C -4.73265386 -0.36440685 -2.13717326
  C -4.79335155  0.75767213 -2.95255523
  C -3.86432656  1.76389079 -2.79147433
  C -2.86284346  1.64281550 -1.83829524
  H  2.01514749  0.68347735 -1.80512993
  H  3.81906929  1.94474415 -1.16504254
  H  5.54076378  2.57486061  0.46959849
  H  5.70664580  1.37663934  2.61812702
  H  4.14004569 -0.46434458  3.11974662
  H  2.41192020 -1.08839412  1.49254172
  H  2.05357665 -2.15048269 -0.68787226
  H  3.21081203 -1.45448730 -1.79036703
  H  1.94029845 -2.06580962 -3.53914385
  H  0.68860610 -0.95140849 -3.02642432
  H  0.05492419 -3.41363150 -3.41503116
  H  0.82637142 -3.74780654 -1.85387487
  H -1.48777141 -1.83846040 -2.39997197
  H -1.58178374 -3.44916686 -1.60445140
  H  1.78099951  3.70520186  1.23415375
  H  2.79408039  5.58023681  0.01347376
  H  2.50355094  5.77393810 -2.42887001
  H  1.17961887  4.07843499 -3.64505923
  H  0.17217838  2.19556596 -2.43154933
  H -2.23661257  2.02544958  2.17113217
  H -3.18846246  1.42301099  4.35821371
  H -3.80178799 -0.92403454  4.84328069
  H -3.45698033 -2.65283812  3.11557182
  H -2.50069890 -2.05520792  0.95071577
  H -3.75187781 -1.35296539 -0.54046021
  H -5.45194766 -1.16111514 -2.25998885
  H -5.56080516  0.83794322 -3.70792160
  H -3.88785389  2.63753372 -3.42571489
  H -2.15108764  2.44103385 -1.70553209
