53
opt_min/./Product_1629_opt.xyz
  C -1.01627400  1.43941200 -1.92631100
  C -1.22169039  0.84123219 -0.52982338
  C -2.65819509  0.34497325 -0.42263978
  C -0.12056461 -0.24182897 -0.15148779
  C  0.27743520 -1.09191228 -1.35197139
  C -0.11295871 -2.41957059 -1.48135843
  C  0.24123678 -3.16640854 -2.59362593
  C  1.00365486 -2.60924356 -3.60213681
  C  1.42589579 -1.29702531 -3.47417422
  C  1.07020211 -0.55118265 -2.36719085
  C -0.47651777 -1.10406628  1.07240486
  C -1.59326516 -1.93467031  1.13910213
  C -1.84827401 -2.71111104  2.25740962
  C -0.99077884 -2.69103944  3.34085032
  C  0.13243077 -1.88691270  3.28496347
  C  0.38323772 -1.10988520  2.16850523
  N  0.93636166  0.68738943  0.22808972
  C  2.29465913  0.58320886  0.04058371
  N  2.74550717 -0.69849747 -0.08499153
  C  4.10944268 -0.98185449 -0.44846383
  O  3.04257458  1.54278280 -0.01187305
  N  0.29736470  1.61026271  1.12162755
  C  1.11864953  2.73287999  1.51165819
  N -0.93786761  1.90693009  0.45009344
  C -1.79190908  2.94254112  0.61626282
  C -1.62784260  3.86380232  1.80614264
  O -2.73254704  3.10426655 -0.14658317
  H -0.04938132  1.92925306 -2.00157576
  H -1.10909411  0.68515329 -2.70174356
  H -1.78438066  2.19340276 -2.07845555
  H -3.32944598  1.10872613 -0.80370110
  H -2.77735377 -0.54589016 -1.03249516
  H -2.92961987  0.14672250  0.61026636
  H -0.68438035 -2.90350992 -0.70707481
  H -0.08208207 -4.19475847 -2.66125035
  H  1.27559731 -3.19239589 -4.46867709
  H  2.03809694 -0.84780767 -4.24191929
  H  1.44355249  0.45626090 -2.28927231
  H -2.28725509 -2.00568852  0.31995142
  H -2.72808953 -3.33762821  2.27382513
  H -1.19265481 -3.29562636  4.21216942
  H  0.82307262 -1.86064068  4.11471792
  H  1.26719989 -0.49284943  2.17586842
  H  2.12354634 -1.47437046  0.06382754
  H  4.68262487 -1.34399996  0.40888381
  H  4.55550746 -0.05251534 -0.79956107
  H  4.13904027 -1.72949325 -1.24236010
  H  0.67500509  3.20093222  2.38382866
  H  2.08914773  2.34125116  1.80515801
  H  1.27498571  3.46693561  0.71463266
  H -1.48275342  3.29715170  2.72188461
  H -2.55101931  4.43425718  1.88103734
  H -0.81036801  4.56421839  1.66484609
