34
opt_min/./Product_186_opt.xyz
  C -1.31896556  2.62982597  1.41789047
  O -0.83588639  1.34120409  1.73495123
  C -0.30470220  0.60840152  0.66877397
  C -0.15325371 -0.89658192  1.04468028
  C -0.89606008 -1.26205853  2.22500569
  N -1.43425410 -1.58568083  3.18034298
  C -0.82754146 -1.55511628 -0.21763874
  C -2.30738993 -1.38121436  0.06161604
  C -2.54047321 -0.09329472 -0.14459980
  C -1.22109211  0.48973896 -0.59855610
  O -0.59533620 -0.60881174 -1.24352094
  C  1.34628417 -1.14074073  1.30246273
  C  1.86997135 -2.47706816  0.78440358
  N  2.04157949 -0.04139150  0.65439912
  C  1.15246323  1.04800042  0.31167957
  C  1.29251368  1.46175697 -1.16598845
  C  2.17500484  0.63051285 -2.04021893
  O  0.70077506  2.43746752 -1.56426840
  H -2.20384660  2.57716130  0.77873858
  H -0.55529910  3.23653314  0.91987805
  H -1.58123909  3.08153661  2.37250565
  H -0.46376086 -2.53804314 -0.49168267
  H -2.95219586 -2.15205650  0.43224365
  H -3.44360846  0.47036786 -0.02441884
  H -1.25747019  1.36448063 -1.23763365
  H  1.48637018 -1.11689348  2.39817833
  H  2.91564450 -2.58489617  1.06169284
  H  1.79945832 -2.51869146 -0.29905587
  H  1.30532428 -3.29758162  1.22182924
  H  2.84125067  0.26408748  1.19206627
  H  1.36499781  1.96106638  0.88936214
  H  1.57417670  0.24293585 -2.86032140
  H  2.61672265 -0.18313610 -1.47591228
  H  2.95014470  1.26333932 -2.47006640
