51
opt_min/./Product_1393_opt.xyz
  C -3.89823800  0.07994800  2.24305700
  N -3.02400055 -0.03757672  1.10174874
  C -1.69954448  0.20165738  1.18408370
  O -1.15448183  0.55777277  2.21018864
  C -0.93414225 -0.00564353 -0.13387882
  C  0.48373202  0.61587430 -0.04597048
  C  0.45872658  1.66560875 -1.15880044
  C -0.49294608  2.78857618 -0.71894422
  C -1.89338955  2.16696356 -0.89092775
  C -1.57386468  0.73069077 -1.32722719
  C -0.36910880  0.97213166 -2.24139726
  C  1.46420906 -0.59043680 -0.13697235
  C  2.54606687 -0.45041377  0.94404576
  O  3.11736919  0.75956739  0.91066197
  C  4.09649892  1.05737874  1.90221865
  O  2.82939812 -1.30626718  1.73349192
  C  2.13724216 -0.78091225 -1.51423666
  C  3.15839558  0.22052117 -1.98628919
  O  1.86816315 -1.74494513 -2.18850444
  N  0.62349243 -1.72098103  0.22748933
  C  1.17374209 -3.06127961  0.13857936
  C -0.67257010 -1.51453803 -0.37006455
  C -1.78960940 -2.36570536  0.20477063
  C -1.60910129 -2.87316042  1.60399152
  O -2.78263639 -2.58076205 -0.45287627
  H -4.26229702 -0.89964617  2.55963002
  H -4.75136624  0.71577459  2.00400109
  H -3.32238568  0.52585867  3.05278159
  H -3.43258452 -0.34818223  0.23549246
  H  0.61780707  1.07409540  0.93692404
  H  1.43531006  2.04116936 -1.44450088
  H -0.36802645  3.65984917 -1.36279315
  H -0.30717028  3.09710403  0.30857159
  H -2.47038876  2.20889842  0.03031455
  H -2.46338487  2.67856294 -1.66681963
  H -2.40996600  0.19572312 -1.77572805
  H  0.07760642  0.05799848 -2.62219634
  H -0.60747185  1.62549053 -3.08022188
  H  4.99551880  1.40387317  1.39367166
  H  3.70457582  1.84453288  2.54697012
  H  4.30795645  0.16399753  2.49157244
  H  3.46045521  0.92103922 -1.21767484
  H  4.02504017 -0.33263406 -2.34837470
  H  2.74490875  0.75617313 -2.83946060
  H  0.69672988 -3.63398265 -0.66211576
  H  2.24113259 -3.02751520 -0.05844738
  H  1.02911905 -3.57480162  1.09051970
  H -0.66276199 -1.70405924 -1.46128692
  H -2.57798365 -2.97336905  2.08850410
  H -0.95005222 -2.22033912  2.16747128
  H -1.16077460 -3.86418356  1.55499785
