63
opt_min/./Product_2635_opt.xyz
  F  0.63664900 -0.46337300 -1.65094100
  C  0.39896321  0.12909088 -0.39165665
  C  0.31674960  1.61988659 -0.64887082
  C -0.00517377  2.02526147 -1.94823351
  C -0.13467437  3.36228894 -2.27210358
  C  0.05800855  4.33546482 -1.30783217
  C  0.39161243  3.94937816 -0.02327936
  C  0.52100791  2.61018684  0.30553281
  C -0.94245081 -0.54440749  0.07155533
  C -1.83121969 -0.58029478 -1.17324412
  C -2.51329277  0.58992687 -1.51253811
  C -3.31554968  0.65450424 -2.63586319
  C -3.45461073 -0.45115802 -3.45676489
  C -2.76954256 -1.60971272 -3.14426471
  C -1.96399680 -1.67224846 -2.01883460
  C -1.71587978  0.15176683  1.18065211
  C -3.10381006  0.02655601  1.23373680
  C -3.83629954  0.61375932  2.24842675
  C -3.20151280  1.32842029  3.24944860
  C -1.82178969  1.40521141  3.24489913
  C -1.09134790  0.81038753  2.22993531
  C -0.42325484 -1.91972054  0.57988825
  C -1.25982563 -2.52290031  1.70981732
  N  0.94872835 -1.69320291  0.99975453
  C  1.76017232 -2.86405003  1.21776190
  C  1.53747377 -0.48767430  0.47128303
  C  2.81191022 -0.65595650 -0.44795772
  O  3.50305076 -1.64743619 -0.45081809
  N  3.09060103  0.44349963 -1.16105820
  C  4.25984169  0.53705140 -2.00042297
  C  2.17617367  0.32016959  1.61413062
  O  2.90468942  1.27136632  1.45882662
  O  1.93485409 -0.22424269  2.80323440
  C  2.61620052  0.35380745  3.90724688
  H -0.14371291  1.28786801 -2.72233097
  H -0.38705364  3.63934941 -3.28468226
  H -0.04344128  5.38101693 -1.55597488
  H  0.55806188  4.69385061  0.74061161
  H  0.79045372  2.37306918  1.31701810
  H -2.42066013  1.46602473 -0.88749295
  H -3.83231946  1.57438309 -2.86700026
  H -4.08418765 -0.40719575 -4.33267734
  H -2.85412357 -2.47769830 -3.78165565
  H -1.43430889 -2.59234334 -1.83106559
  H -3.62579331 -0.54157019  0.47932389
  H -4.91096332  0.50540945  2.25839766
  H -3.77477227  1.79618998  4.03573469
  H -1.30445385  1.92094021  4.04073085
  H -0.02114548  0.82205729  2.28365838
  H -0.44283630 -2.64675744 -0.24787920
  H -0.74314207 -3.37868326  2.13277533
  H -1.43926564 -1.81115130  2.50835658
  H -2.21391953 -2.86406735  1.31483929
  H  2.68344632 -2.57256230  1.71122495
  H  1.22530002 -3.54848003  1.87371567
  H  2.01144880 -3.39004915  0.28899035
  H  2.51863931  1.26952117 -1.07556932
  H  4.79682145 -0.40700438 -1.93029379
  H  3.96818226  0.71370270 -3.03725592
  H  4.90422351  1.34967118 -1.66133966
  H  2.38717734 -0.27403947  4.76405348
  H  3.69129795  0.37642542  3.71826990
  H  2.26999800  1.37600197  4.07818969
