69
opt_min/./Product_3045_opt.xyz
  C -2.20781300  4.59942100 -1.62959800
  N -1.73270247  3.84719629 -0.49188702
  C -1.16844805  2.64316165 -0.65705610
  O -1.09353985  2.10237406 -1.74247693
  C -0.66220951  1.96743555  0.64210876
 Br  0.59382692  3.34016640  1.43647570
  C  0.06872877  0.74422280  0.18881784
  C -0.46672218 -0.42157821 -0.18017478
  C -1.81171078 -1.05647055  0.09575973
  O -1.86942225 -2.18211991 -0.76913105
  C -2.91683634 -3.10825963 -0.56761721
  O -2.93372028 -0.23442420 -0.11968551
  C -3.23964873  0.05912418 -1.47222948
  C -1.81444322 -1.47375856  1.58781639
  C -2.51024585 -0.49869432  2.51922371
  C -1.88740518  0.86632074  2.78392760
  C -1.82294780  1.91112951  1.66412650
  C  0.53069554 -1.22492438 -0.99417524
  C  0.55665300 -2.69554161 -0.56532860
  C  0.72149397 -3.72305419 -1.65560300
  O  0.52792304 -3.01324040  0.59963289
  C  0.16848554 -1.02965543 -2.47532910
  N  1.82790523 -0.57631214 -0.74935496
  C  2.82996642 -1.36865664 -0.07120769
  C  1.55213693  0.76728820 -0.20695663
  C  1.82554319  1.82123321 -1.31025133
  C  2.59490107  1.35672007 -2.51729636
  O  1.47314965  2.96678061 -1.20446517
  C  2.43688445  1.05996447  0.99089585
  C  3.66736662  1.69017290  0.84677376
  C  4.49281545  1.86975340  1.94294152
  C  4.11321787  1.39894258  3.18691529
  C  2.90203880  0.74590257  3.33295778
  C  2.07172927  0.57118479  2.24214661
  H -1.41521511  4.68254990 -2.37621384
  H -2.51038693  5.59013578 -1.30542003
  H -3.05581814  4.08737815 -2.09075043
  H -1.71324382  4.29695357  0.40841245
  H -2.62717832 -3.88030914  0.15251402
  H -3.09568702 -3.57995535 -1.53508258
  H -3.83040823 -2.60849160 -0.23445976
  H -4.12062864  0.69802412 -1.43186383
  H -3.47558295 -0.84755145 -2.03713240
  H -2.41625185  0.58360810 -1.96082619
  H -2.35678816 -2.41630691  1.66887840
  H -0.78847769 -1.66674084  1.90036358
  H -2.57459440 -0.99374195  3.49433809
  H -3.52964118 -0.34155147  2.16110022
  H -2.57104882  1.31732667  3.51357925
  H -0.91639868  0.78481876  3.27768711
  H -1.75145489  2.84809216  2.22343572
  H -2.78147953  1.92906523  1.13890006
  H  0.93023246 -4.69183862 -1.20819813
  H  1.52683511 -3.44249477 -2.32853058
  H -0.19936508 -3.78719758 -2.22868772
  H -0.01402979  0.02700262 -2.65548033
  H -0.73547494 -1.57628784 -2.71921051
  H  0.98306591 -1.35923149 -3.11491150
  H  3.75347015 -0.79412474 -0.01327212
  H  3.02528585 -2.25782125 -0.67300855
  H  2.55759769 -1.69150260  0.94118879
  H  1.89193370  1.23356133 -3.33876400
  H  3.09874956  0.41450619 -2.33781727
  H  3.29892904  2.13590912 -2.80489863
  H  3.97125346  2.06132259 -0.11980901
  H  5.43807675  2.37595817  1.81898431
  H  4.75858250  1.53700338  4.04221255
  H  2.59934066  0.36978051  4.29936067
  H  1.12754114  0.06279260  2.35911345
