46
opt_min/./Product_5285_opt.xyz
  C  1.89335900 -0.38750300 -0.34634500
  C  0.42762330 -0.32408621 -0.79260544
  C -0.48525753 -1.43144270 -0.21714580
  N -0.03893328 -1.83287979  1.10462405
  C -0.77092331 -1.67889546  2.33708342
  C  1.27749128 -2.19855660  1.17028504
  C  2.22465478 -1.67175556  0.36932926
  C  3.56974951 -2.26535351  0.42448542
  N  4.50739232 -1.76103889 -0.42132213
  O  3.85212229 -3.17516738  1.18590225
  C -1.86548650 -0.70924970 -0.28028013
  C -3.03974156 -1.20338623  0.55838832
  C -3.20808842 -2.69910021  0.72590742
  O -3.84084826 -0.43008357  1.01226724
  C -2.27953939 -0.73879658 -1.79221137
  C -3.19923334 -1.83274222 -2.24094646
  O -1.85210495  0.09173782 -2.54490189
  N -1.54948657  0.67754401  0.00378137
  C -0.35263613  0.90498503 -0.33219966
  C  0.27933864  2.22572551 -0.28251651
  C  0.48433081  2.92946849 -1.46518116
  C  1.11027225  4.16133464 -1.43550890
  C  1.54472527  4.69090253 -0.23101487
  C  1.34053253  3.99352794  0.94690819
  C  0.70611123  2.76325564  0.92224681
  H  2.53697185 -0.19877902 -1.20641015
  H  2.07562521  0.42262572  0.36977641
  H  0.38677487 -0.35932008 -1.88549896
  H -0.46726129 -2.32200513 -0.86393639
  H -1.48232537 -0.85742660  2.26295591
  H -0.06903037 -1.43691285  3.13537898
  H -1.30181863 -2.59349942  2.61781844
  H  1.53409756 -2.96455418  1.89099058
  H  5.40754754 -2.20986502 -0.41837803
  H  4.33585575 -1.02021134 -1.07327889
  H -2.33343820 -3.26464053  0.42609684
  H -3.44799246 -2.90429297  1.76692301
  H -4.07159079 -3.02218932  0.14734794
  H -2.83716513 -2.80721236 -1.92656304
  H -3.28094733 -1.80182644 -3.32531564
  H -4.18412079 -1.66558044 -1.80906714
  H  0.13256579  2.50366998 -2.39324912
  H  1.25847530  4.70937118 -2.35403941
  H  2.03975361  5.65069175 -0.21031005
  H  1.67431884  4.40675396  1.88662198
  H  0.52872752  2.21931761  1.83870732
