52
opt_min/./Product_5503_opt.xyz
  C  5.67915400 -1.39019800 -1.03377900
  C  4.49217263 -0.70555329 -0.43099437
  C  4.67587950  0.75632676 -0.14608624
  C  3.35139502 -1.36757685 -0.19623527
  C  2.14751203 -0.79261877  0.34311938
  C  1.00434389 -1.47195677  0.46698958
  C -0.28028007 -0.87515135  0.95901266
  C -0.08243634 -0.07626569  2.24822502
  C -1.41652408 -1.90924858  1.14171334
  C -2.48678105 -1.40392459  0.14221846
  C -3.88508249 -1.92918821  0.40715885
  N -4.10376792 -3.14553072 -0.12708195
  C -5.38513201 -3.79850485 -0.00347499
  O -4.68483727 -1.33647512  1.10298761
  C -1.82358001 -1.72010142 -1.20961670
  O -2.04886119 -2.64314801 -1.94977061
  O -0.88471294 -0.80943370 -1.38202908
  C -0.91866111  0.03229653 -0.16288875
  C -0.24766013  1.33791914 -0.41540487
  C -0.53516564  2.44170109  0.38020119
  C  0.12420501  3.63942825  0.17141184
  C  1.07664743  3.74664451 -0.82932558
  C  1.36284261  2.64978473 -1.62463266
  C  0.70671656  1.44932441 -1.41952257
  N -2.30022790  0.04328182  0.22871187
  C -3.20941078  0.82212257 -0.58911541
  H  6.51982279 -1.36381771 -0.34041407
  H  5.46150103 -2.42609328 -1.27573747
  H  5.98917174 -0.87404164 -1.94095107
  H  5.73090092  1.01727763 -0.15596409
  H  4.26334819  1.03013867  0.82144454
  H  4.16999548  1.35555864 -0.90267099
  H  3.29552944 -2.41942902 -0.44562456
  H  2.18952425  0.24568925  0.63507219
  H  0.96551708 -2.50267582  0.14222883
  H  0.60692338  0.74750116  2.10121501
  H  0.32502167 -0.72968322  3.01598747
  H -1.03683633  0.31702092  2.58596914
  H -1.11365112 -2.92922948  0.90731006
  H -1.82056694 -1.88331691  2.15079255
  H -3.46981225 -3.47464415 -0.84472765
  H -5.83183388 -3.49705355  0.94297051
  H -5.24096925 -4.87617302 -0.01644948
  H -6.06139716 -3.51146403 -0.81185565
  H -1.27421076  2.35953233  1.16125673
  H -0.10599360  4.49124097  0.79290370
  H  1.59077313  4.68205073 -0.98967133
  H  2.10032864  2.72797413 -2.40870302
  H  0.92464247  0.59298242 -2.03831108
  H -4.20794764  0.68934611 -0.18114943
  H -2.93176722  1.87035687 -0.52503753
  H -3.20650160  0.52192813 -1.64576920
