55
opt_min/./Product_2437_opt.xyz
  C  0.60988558  2.95531285  1.31541303
  O -0.39009297  2.60523049  0.39244089
  C -0.01799400  1.67672001 -0.58895608
  C -0.09232772  0.19023772 -0.28892661
  C -1.07446309 -0.69497703 -0.07368383
  C -2.50143840 -0.43661079  0.40015737
  C -3.41746296 -1.70068792  0.42307983
  F -4.71450222 -1.38482700  0.59522540
  F -3.39152903 -2.39241820 -0.71917393
  F -3.15379225 -2.55402892  1.41027024
  C -2.35077166 -0.06285722  1.90041708
  F -1.66124643 -0.98299085  2.58438576
  F -1.69947834  1.08111463  2.10057758
  F -3.53464867  0.07370618  2.51261945
  C -3.39051836  0.62651452 -0.31933110
  C -3.01495525  2.10623860 -0.44215380
  C -2.18476372  2.58436330 -1.62907314
  C -0.85036292  1.89436820 -1.87784198
  C -0.53951736 -2.09438228 -0.44395487
  C -0.99763845 -2.45370338 -1.89025094
  C -0.79707246 -3.18735867  0.47821377
  N -0.86675037 -4.08919254  1.17661610
  N  0.89697403 -1.90256457 -0.35685671
  C  1.80163929 -2.89701769 -0.86790968
  C  1.21530362 -0.51677538 -0.55099553
  C  2.30311979 -0.11528018  0.41922219
  C  2.02077946 -0.04021872  1.77930122
  C  3.01506425  0.29633967  2.67708755
  C  4.30201193  0.55038518  2.23143832
  C  4.59689566  0.44523596  0.88351053
  C  3.59782373  0.11636471 -0.01788406
  H  0.75583478  2.17671378  2.06919197
  H  1.56577203  3.14934553  0.81430449
  H  0.26192070  3.86551118  1.80086445
  H  1.04342436  1.85872895 -0.83193567
  H -4.30099366  0.65418194  0.28532353
  H -3.66285762  0.22384034 -1.29844468
  H -2.56274092  2.45762329  0.47978179
  H -3.97483912  2.62138122 -0.54431202
  H -2.77658033  2.51693012 -2.54529168
  H -1.98282128  3.63976354 -1.44008110
  H -1.00311835  0.92687813 -2.35892569
  H -0.28161050  2.51683108 -2.57076396
  H -0.13831579 -2.38553060 -2.55277664
  H -1.39594048 -3.46255250 -1.93955786
  H -1.75307143 -1.76347533 -2.25474446
  H  2.59455796 -3.07626756 -0.13767551
  H  2.26794099 -2.58170605 -1.81163766
  H  1.27334559 -3.83355046 -1.03240564
  H  1.55225984 -0.28895196 -1.58481097
  H  1.03588775 -0.31073205  2.12792319
  H  2.78626757  0.36066077  3.73047894
  H  5.07635748  0.82105555  2.93188037
  H  5.60406732  0.61182611  0.53187619
  H  3.82953836  0.04565727 -1.07144492
