41
opt_min/./Product_982_opt.xyz
  F -3.35512300  1.88065100  0.72301200
  C -2.23791015  1.26215428  1.17203757
  F -2.64077732  0.52214017  2.21255269
  F -1.46959715  2.22901870  1.68547148
  C -1.57167712  0.52718291  0.00271260
  C -0.29930781 -0.30656045  0.33716109
 Cl  0.05866517 -0.21511812  2.08585455
  C -0.68098962 -1.70843835 -0.15571008
  C -1.79241183 -2.28042835  0.73677741
  C -3.05255435 -1.51934185  0.27532934
  C -2.48790117 -0.48900992 -0.70836596
  C -1.46977567 -1.37650998 -1.42905469
  C  0.83177024  0.38477609 -0.47022610
  C  2.26605039  0.05933410 -0.10820150
  C  3.30421530  0.69354589 -0.78713231
  C  4.62885346  0.39257788 -0.52552366
  C  4.95537073 -0.58512476  0.39625811
  C  3.93594315 -1.28251173  1.01354041
  C  2.61023982 -0.97555980  0.75602511
  N  0.36245922  1.77209143 -0.40033305
  C  1.08967127  2.81692426 -1.07402752
  C -1.00100603  1.65093528 -0.88499239
  H  0.17222303 -2.37017617 -0.28706860
  H -1.89300017 -3.35358879  0.57739223
  H -1.58259768 -2.11007089  1.79112622
  H -3.61041940 -1.08825581  1.09928134
  H -3.73211424 -2.17869039 -0.26732252
  H -3.24378723 -0.00719849 -1.32750723
  H -1.93195716 -2.26161574 -1.86388173
  H -0.89295202 -0.87016269 -2.19799091
  H  0.73700047  0.04382384 -1.52556539
  H  3.09353148  1.42038958 -1.55318633
  H  5.40689364  0.91877685 -1.05886377
  H  5.98877591 -0.81825056  0.60925125
  H  4.16719679 -2.08146129  1.70278929
  H  1.85526451 -1.56684744  1.24333753
  H  2.03754334  2.98117068 -0.56621654
  H  0.49962568  3.72998569 -0.99249940
  H  1.25991726  2.60478217 -2.14297695
  H -1.03452226  1.35258790 -1.94965282
  H -1.53717055  2.59380428 -0.77655825
