39
opt_min/./Product_800_opt.xyz
  C  4.68024338 -1.77881674 -2.51997124
  O  4.00216468 -1.46542457 -1.31019306
  C  2.91239245 -0.70344436 -1.42713056
  O  2.47925253 -0.29276729 -2.47880769
  C  2.28027826 -0.43279873 -0.13469951
  C  2.43231050 -0.97800848  1.07555393
  C  1.36961231 -0.32309510  1.93012915
  C  0.04054686 -1.00047262  1.44932215
  C -0.15416538 -0.31288891  0.08691841
  C  1.13303666  0.55660131  0.02171048
  O  1.27146822  0.96857707  1.36178898
  C -1.45336441  0.52778578  0.27828348
  C -2.37345444  0.36168622 -0.95649381
  N -1.95941979  1.02133031 -2.04406771
  C -2.69630838  0.95097163 -3.28864504
  O -3.34718860 -0.35686258 -0.91028195
  C -1.20197297  1.94017363  0.49944061
  N -1.09847647  3.06710926  0.66034105
  N -2.11643719 -0.00131692  1.46041207
  N -1.10960811 -0.60165432  2.23573257
  C -1.22074672 -0.83110406  3.56600626
  C -2.50361166 -0.33012905  4.17430572
  O -0.33125554 -1.39215716  4.17448510
  H  5.63438115 -2.21136592 -2.23271859
  H  4.09661840 -2.49414590 -3.10334346
  H  4.82818444 -0.87658177 -3.11598852
  H  3.09021629 -1.76032916  1.39585552
  H  1.50215140 -0.29775201  3.00509282
  H  0.13977072 -2.08778513  1.41677581
  H -0.24885910 -1.00036230 -0.75297736
  H  1.11962954  1.39550342 -0.66745972
  H -1.16187375  1.63411478 -1.99223683
  H -2.62760781 -0.05416845 -3.70779969
  H -2.28435675  1.66656651 -3.99208570
  H -3.74806810  1.17354046 -3.10654389
  H -2.81409338 -0.69357435  1.15719680
  H -2.52272742 -0.58500802  5.22879523
  H -2.55900425  0.74888006  4.05207629
  H -3.36025445 -0.77158911  3.67158876
