41
opt_min/./Product_4535_opt.xyz
  C -0.19882383 -0.05310685  1.75467803
  C -0.52321144 -1.05840027  0.66179646
  C -1.00096307 -2.36765672  1.29972781
  C  0.68099840 -1.39054785 -0.26573327
  C  1.60167481 -0.23562478 -0.53519503
  C  2.84225770 -0.16319619 -0.05738877
  C  3.78015530  0.92256915 -0.28121813
  C  3.33358853  2.12664864 -1.05365130
  C  5.02913660  0.82115583  0.17753563
  C -0.05839524 -1.70393603 -1.54823018
  C  0.56550626 -2.43145014 -2.58361890
  N  1.11529451 -3.02118491 -3.39769689
  N -1.24621264 -1.26139545 -1.61489981
  C -1.58217316 -0.58070520 -0.39061985
  C -1.50845195  0.93368929 -0.66266255
  O -2.08914237  1.63413386  0.30266304
  C -2.09062087  3.04828106  0.15990076
  O -1.01036074  1.41812648 -1.64265599
  C -3.05820385 -0.80031115 -0.01547508
  C -3.94657970 -1.08176911 -1.18600467
  O -3.44449719 -0.69115334  1.11724733
  H  0.25640297  0.84936164  1.35227390
  H  0.50387175 -0.49893396  2.45657479
  H -1.10784123  0.21547404  2.28713172
  H -0.21100234 -2.78251227  1.92342969
  H -1.87090122 -2.19048788  1.92603769
  H -1.26207115 -3.10459946  0.53990611
  H  1.25132377 -2.24375769  0.11099353
  H  1.18990283  0.53681345 -1.16526909
  H  3.22169746 -0.97361363  0.55492368
  H  3.33337347  1.90062053 -2.12139750
  H  4.00905545  2.96027241 -0.88083948
  H  2.32389167  2.42756597 -0.78277444
  H  5.36696736 -0.04911595  0.71244151
  H  5.75715741  1.60034676  0.03063934
  H -2.92366201  3.35409857 -0.47671552
  H -2.21535095  3.46266307  1.15751277
  H -1.15247544  3.38361392 -0.28694650
  H -4.94541569 -1.34087235 -0.84560262
  H -3.99128780 -0.18883614 -1.80879322
  H -3.51845289 -1.87527150 -1.79341146
