47
opt_min/./Product_1962_opt.xyz
  C -0.52672600 -1.54757100 -2.03857600
  C -0.72854174 -1.33160699 -0.52396685
  C -1.94880943 -2.13686211 -0.09951115
  C  0.58524026 -1.66170000  0.24755163
  C  1.26986705 -2.93161058 -0.24066003
 Br  0.16780385 -2.02183219  2.15156787
  C  1.40327243 -0.35002032  0.08530293
  C  2.54285653 -0.46094213 -0.96724451
  C  3.82314122 -1.10567007 -0.52002072
  O  2.39779002  0.01953416 -2.05925245
  C  2.11416430  0.16736603  1.35447292
  O  2.63568878 -0.55284004  2.16331891
  O  2.14567167  1.48018085  1.34997094
  C  2.71198184  2.12778795  2.48111206
  O  0.50907842  0.63910884 -0.38861764
  C -0.82911034  0.19210188 -0.26133562
  C -1.33332786  0.58364296  1.16260109
  N -2.65333827  0.46870749  1.34749378
  C -3.27337935  0.74838776  2.62165534
  O -0.55549398  1.00604340  1.99128264
  C -1.72438350  0.97792321 -1.21672374
  O -2.85429426  0.60377076 -1.48544387
  N -1.18035753  2.12110808 -1.63399706
  C -1.87775001  3.05200942 -2.48688294
  H  0.49960478 -1.39936704 -2.35478899
  H -0.84116014 -2.54791925 -2.32551006
  H -1.13818608 -0.84020405 -2.59212879
  H -2.78902717 -1.84600419 -0.72757109
  H -1.76144727 -3.19899825 -0.24851847
  H -2.21790894 -1.98405553  0.94081694
  H  1.78369458 -2.78605355 -1.18714178
  H  1.99418534 -3.28317979  0.49189461
  H  0.52275212 -3.71277362 -0.36790947
  H  3.71790447 -1.68228972  0.39224170
  H  4.54335505 -0.30537611 -0.34205854
  H  4.22410491 -1.72332768 -1.32164567
  H  3.51836741  2.77370297  2.13311638
  H  3.09041495  1.38592033  3.18595707
  H  1.92753995  2.72357336  2.94713174
  H -3.26278948  0.19097751  0.59095448
  H -2.48972884  1.05024794  3.31430083
  H -3.77049067 -0.14280604  3.00769661
  H -4.00406444  1.55177369  2.51866609
  H -0.23981524  2.34642022 -1.34223558
  H -2.79687208  2.57361296 -2.82221743
  H -2.12802743  3.96414829 -1.94105882
  H -1.25996222  3.30927005 -3.34722459
