59
opt_min/./Product_2717_opt.xyz
  C -2.26820900  3.27399200 -2.65203200
  O -2.33889446  2.11009822 -1.83446955
  C -1.44757506  2.01941609 -0.87190159
  O -0.66982996  2.88184960 -0.56266623
  C -1.56168187  0.72375864 -0.02984860
  C -2.40016238 -0.40153330 -0.64501880
  O -3.23099428 -0.29093884 -1.50133985
  O -2.13698550 -1.53764725  0.00628164
  C -2.87497772 -2.70488124 -0.35513402
  C -0.15593534  0.21678176  0.15503861
  C  0.76813428  0.12506663  1.12803632
  C  0.67642204  0.22965917  2.62225154
 Cl  2.30176155  0.39448943  3.38758563
  C -0.18252745  1.36799204  3.18372866
  C -1.59328164  0.91723919  3.55803565
  C -2.32552864  0.25335034  2.39928049
  C -2.37092664  1.20115645  1.19801895
  C  1.99395591 -0.50474922  0.42857289
  C  3.38136292 -0.45765251  0.97730890
  C  4.06419334  0.75634786  0.93271226
  C  5.37136235  0.82611929  1.37394824
  C  6.00794991 -0.31209855  1.84775256
  C  5.33319442 -1.51927071  1.87616562
  C  4.02284677 -1.59775150  1.43772713
  O  1.55294369 -1.92430192  0.20718521
  C  0.65016572 -1.86532062 -0.75051595
  O  0.08651698 -2.80635422 -1.22951704
  C  0.51326352 -0.34398067 -1.11475352
  C -0.02169504  0.07161162 -2.47598930
  C -0.62018660 -0.98701740 -3.34911355
  O  0.11443166  1.21031576 -2.84824195
  N  1.88929923  0.08225461 -0.87411850
  C  2.86767165 -0.30854366 -1.86867431
  H -2.72516140  4.11995807 -2.13594235
  H -2.81776366  3.03972924 -3.55967217
  H -1.22570438  3.50091049 -2.87599457
  H -3.24265883 -3.15366825  0.56635206
  H -3.70343039 -2.43242252 -1.00902501
  H -2.19607001 -3.39343288 -0.85902357
  H  0.31784184 -0.73416344  3.00266796
  H  0.29500060  1.73893687  4.09072570
  H -0.18904121  2.18755835  2.46522094
  H -1.54319547  0.22915817  4.40585434
  H -2.15585950  1.79111688  3.89367372
  H -1.80961861 -0.66416845  2.11984184
  H -3.33296008 -0.02093172  2.71270817
  H -3.39500267  1.35850356  0.85221532
  H -1.98253054  2.17370470  1.50124993
  H  3.55187626  1.63261420  0.56670169
  H  5.89672397  1.76787044  1.34884803
  H  7.02887160 -0.25478693  2.19434677
  H  5.82665190 -2.40786456  2.24111248
  H  3.49025255 -2.53574571  1.45924645
  H -1.20635012 -1.70741565 -2.79054242
  H  0.19629584 -1.52896405 -3.82760495
  H -1.22673767 -0.51605917 -4.11845923
  H  3.82054218  0.14991760 -1.61416925
  H  3.00199033 -1.39575280 -1.94078809
  H  2.54448882  0.07919684 -2.83197831
