43
opt_min/./Product_880_opt.xyz
  C -2.04452800 -0.23598600 -1.61583900
  C -1.18246460 -0.12710804 -0.35617747
  C  0.09756855  0.75387822 -0.57648601
  C  0.17570132  1.54892024 -1.89449308
  F  0.20424837  0.78987903 -3.00797783
  F  1.33243876  2.24429855 -1.91605756
  F -0.78544456  2.44665729 -2.11367151
  C -0.17680849  1.89084309  0.47038693
  C -0.20983711  1.40105241  1.89956443
  C -1.35808499  0.75186025  2.02289728
  C -1.97948001  0.79453854  0.64731508
  O -1.56184718  2.08085861  0.21134418
  C  1.27732436 -0.23691828 -0.64022218
  C  2.63973665  0.10565265 -0.07058121
  C  2.91204346  1.11857481  0.83288521
  C  4.20329135  1.32801042  1.29161215
  C  5.24143062  0.52301724  0.86269387
  C  4.98063302 -0.49587204 -0.03766083
  C  3.69503949 -0.69621952 -0.50091989
  N  0.80273527 -1.49096905 -0.05776106
  C -0.64883327 -1.52540765  0.14238518
  C -0.83534402 -1.86044410  1.63225239
  C -1.26827496 -2.70353556 -0.62566060
  H -2.93588442 -0.82403176 -1.41510890
  H -1.50795892 -0.68214063 -2.44732514
  H -2.36971731  0.75885661 -1.91518477
  H  0.37163466  2.81556415  0.29823999
  H  0.54897824  1.57863319  2.63503317
  H -1.81662803  0.32915847  2.89324101
  H -3.05891516  0.70062923  0.57676023
  H  1.46028319 -0.40341483 -1.71707135
  H  2.12997967  1.76738850  1.17902303
  H  4.39484442  2.13097107  1.98829569
  H  6.24656354  0.68969022  1.22073085
  H  5.78254087 -1.13120183 -0.38455236
  H  3.50469232 -1.48746235 -1.21182994
  H  1.10753806 -2.26635867 -0.63110796
  H -1.87521955 -1.79348699  1.93877350
  H -0.50058863 -2.88458283  1.77931306
  H -0.21580325 -1.22614721  2.25219513
  H -2.34385368 -2.73485365 -0.47937401
  H -0.85141451 -3.63383460 -0.24508683
  H -1.05542387 -2.65792599 -1.69064331
