38
opt_min/./Product_3843_opt.xyz
  C  2.95122600  1.97782300  1.41617200
  C  3.24619546  0.65039624  0.77791457
  C  4.62923556  0.12549305  1.00046464
  C  2.34600465 -0.03613204  0.06474121
  C  0.98269736  0.36951278 -0.18574835
  C  0.11809776 -0.38063745 -0.86582843
  C -1.32285632 -0.06090582 -1.14896897
  C -1.79102355  1.28941991 -0.60630919
  C -1.60752797 -0.18691852 -2.67053833
  N -2.74567056 -1.07079455 -2.82602556
  N -2.87725776 -1.85077679 -1.64620784
  C -4.27506015 -2.02093081 -1.29661823
  N -2.16413994 -1.13219230 -0.60921082
  C -2.04300794 -1.69456286  0.60953467
  O -1.30922236 -0.90017414  1.43749581
  C -1.10203327 -1.38148785  2.75332060
  O -2.58739754 -2.71391396  0.96709618
  H  3.86976038  2.44521164  1.76531968
  H  2.29379561  1.84511119  2.27712391
  H  2.46283989  2.65425021  0.71638402
  H  5.35934065  0.78420512  0.52779365
  H  4.85540382  0.09064911  2.06727530
  H  4.74500979 -0.87521105  0.58884750
  H  2.62818167 -0.99162428 -0.35959243
  H  0.68226809  1.32449185  0.21630227
  H  0.42461814 -1.34554205 -1.25006703
  H -1.20578267  2.09225636 -1.04761922
  H -1.67843285  1.30926657  0.47523904
  H -2.84458785  1.44193185 -0.84106386
  H -0.74629472 -0.62282073 -3.18830545
  H -1.82253310  0.78941870 -3.10728457
  H -3.60288808 -0.53264558 -2.99027865
  H -4.79620504 -2.39227340 -2.17685367
  H -4.73926061 -1.08793533 -0.94752811
  H -4.32570122 -2.77216405 -0.51002540
  H -1.49253068 -2.39844610  2.83975966
  H -0.02790108 -1.36607036  2.94740233
  H -1.61760110 -0.72419007  3.45591171
