46
opt_min/./Product_1006_opt.xyz
  C  3.26111600  0.46007100  2.08739600
  C  2.33187866 -0.67535825  1.71268310
  O  2.02015978 -1.51241794  2.53747113
  C  1.83082841 -0.72411639  0.34359885
  C  0.89314477 -1.56717809 -0.14414716
  C  0.31579332 -2.78150536  0.46338473
  C  0.68074151 -1.11029536 -1.57537383
  C -0.06665576  0.26337133 -1.54911613
  C  1.05765417  1.19980985 -1.06393672
  C  2.19390481  0.17152580 -0.83322787
  O  1.99177924 -0.70131473 -1.93733750
  C  0.47716414  1.90862562  0.16355750
  C  0.03131387  3.33140610 -0.18020521
  O -0.60405423  1.10224590  0.59950501
  C -1.19976023  0.49412294 -0.53444147
  C -2.30400248  1.38880185 -1.14724942
  C -3.20295290  2.05062344 -0.14338856
  O -2.46603333  1.46513436 -2.33939590
  C -2.00451654 -0.72473466 -0.14089254
  C -2.26073572 -0.99918411  1.19545643
  C -3.05531257 -2.07891092  1.53922503
  C -3.60938294 -2.87996637  0.55531179
  C -3.36402421 -2.59999799 -0.77957642
  C -2.56910672 -1.52342207 -1.12985683
  H  3.51125592  1.10515280  1.25286058
  H  2.79126239  1.04657792  2.87551164
  H  4.17138244  0.03263263  2.50491891
  H  1.00369530 -3.60746618  0.27009866
  H -0.64833531 -3.03598720  0.03356152
  H  0.23863994 -2.66419230  1.54144940
  H  0.28716030 -1.84031298 -2.27620246
  H -0.41764994  0.50992533 -2.55240000
  H  1.37578040  1.90039009 -1.83566464
  H  3.20470486  0.57042577 -0.84806236
  H  1.18180083  1.94529635  0.99950163
  H -0.57968897  3.34008415 -1.07984295
  H -0.54522230  3.74895294  0.64149772
  H  0.90614855  3.95578032 -0.34614388
  H -4.16616001  1.54210175 -0.16814184
  H -2.78547808  1.98800731  0.85598176
  H -3.37103806  3.08696767 -0.42816545
  H -1.81896716 -0.37879175  1.95794233
  H -3.24428083 -2.29399845  2.58027202
  H -4.23422639 -3.71848858  0.82409032
  H -3.79664688 -3.21729614 -1.55286133
  H -2.39161244 -1.29447060 -2.16983192
