46
opt_min/./Product_5733_opt.xyz
  O  3.09089600 -0.43705900  2.25180600
  C  2.07721566 -0.26587682  2.75595523
  O  1.06896066 -0.11253601  3.26964293
  C  0.67449086 -1.76292496  0.50605535
  C -0.60294016 -1.64373997  0.81768110
  C -1.34588016 -4.84720715  1.48799773
  O -0.26038017 -5.16111829  1.30660230
  O -2.42846673 -4.54657576  1.70411404
  C -1.34863756 -1.01352056 -0.32194115
  C -2.22294942 -2.13040607 -0.97782332
  C -3.60171343 -1.73940387 -1.40256961
  O -1.75599828 -3.22959521 -1.13081843
  C -2.12376824  0.22680610  0.06058538
  C -2.90678331  0.24925652  1.20840441
  C -3.61886958  1.38763238  1.54175188
  C -3.55311980  2.51100487  0.73528866
  C -2.77226262  2.49130143 -0.40785839
  C -2.06183727  1.35385624 -0.74698699
  O -0.33697794 -0.70529494 -1.27854934
  C  0.92562824 -1.17173652 -0.84976294
  C  1.46223413 -2.13809363 -1.92974666
  N  2.29845395 -3.10144934 -1.47213640
  C  2.84425746 -4.09247317 -2.37741726
  O  1.18611566 -2.01225495 -3.09554489
  C  1.88240747  0.04776502 -0.67751731
  O  1.46090642  1.14582848 -0.40683737
  N  3.18923062 -0.23951140 -0.81807552
  C  4.19581093  0.78486800 -0.63113114
  H  1.43967826 -2.21270745  1.11207078
  H -1.08965603 -1.98588608  1.70995550
  H -4.17866004 -1.43472857 -0.53204181
  H -4.08837242 -2.57572713 -1.89842068
  H -3.53983914 -0.88598017 -2.07480144
  H -2.97088543 -0.62279244  1.84349405
  H -4.22435100  1.39659326  2.43701275
  H -4.10624958  3.39981747  1.00031322
  H -2.71362732  3.36587384 -1.03815444
  H -1.43707846  1.33075318 -1.62525161
  H  2.43534025 -3.23778155 -0.48534380
  H  3.65047000 -3.66068708 -2.97470245
  H  3.22272618 -4.93611347 -1.80791712
  H  2.06161178 -4.42841380 -3.05801791
  H  3.49739935 -1.19086329 -0.93572995
  H  5.16266870  0.39753065 -0.93834922
  H  3.93754027  1.65411634 -1.23549020
  H  4.24110254  1.09572082  0.41465584
