52
opt_min/./Product_5385_opt.xyz
  C  1.20453400 -0.07349900 -2.32372100
  C  0.31997802  0.52648574 -1.21984004
  C  0.31223774  2.03210711 -1.51428704
  C -1.14196633 -0.07560463 -1.21483122
  C -1.21506827 -1.39606767 -1.99664996
  C -2.19172205  0.84803419 -1.83660715
  C -1.44270564 -0.36887824  0.29710064
  C -1.92465834  0.83768349  1.11798892
  C -2.67279834  0.54116299  2.39494389
  O -1.60016241  1.96877927  0.84676478
  C -2.34626003 -1.59388077  0.42931291
  C -3.83197205 -1.36430547  0.28050139
  O -1.89602301 -2.69637685  0.62909683
  N -0.11959611 -0.66600038  0.81989734
  C  0.03745886 -1.10366088  2.19499437
  C  0.88726671  0.16861872  0.20350441
  C  2.20198314 -0.67025931  0.07500683
  N  1.98974690 -1.99663087  0.09303644
  C  3.05682131 -2.95659783 -0.03755295
  O  3.29762403 -0.16408412 -0.03300878
  C  1.32116829  1.33791296  1.10571514
  O  1.06551373  1.39394602  2.28277891
  O  2.10981238  2.20217036  0.48438886
  C  2.71299016  3.23200462  1.25743736
  H  2.18674892  0.38950589 -2.27699410
  H  1.33630683 -1.14670928 -2.24388968
  H  0.77825099  0.15189994 -3.29924492
  H -0.14322953  2.21067329 -2.48381762
  H  1.33198932  2.39892592 -1.55651625
  H -0.22530078  2.59197414 -0.75756514
  H -2.22780156 -1.79213762 -1.97457694
  H -0.55242438 -2.15121116 -1.58416371
  H -0.95645885 -1.23291097 -3.03846660
  H -3.17223099  0.38105056 -1.78090128
  H -2.24186317  1.81135470 -1.34391709
  H -1.96696380  1.00225486 -2.88902939
  H -2.21514981  1.11530810  3.19961398
  H -2.68105491 -0.51198805  2.64820657
  H -3.69375977  0.90085575  2.28422279
  H -4.33429907 -1.68433871  1.19178859
  H -4.07667057 -0.32799695  0.07875208
  H -4.20945116 -2.00059859 -0.51875480
  H -0.23876984 -0.35803403  2.94192600
  H -0.55757898 -2.00576461  2.33927280
  H  1.08396872 -1.35082099  2.35778346
  H  1.03711861 -2.32699804  0.16338419
  H  2.90807788 -3.77513215  0.66494880
  H  3.99632776 -2.44879032  0.17423856
  H  3.10271317 -3.36218193 -1.05243162
  H  3.78166096  3.21648073  1.04635776
  H  2.28574850  4.18971183  0.95662813
  H  2.52843585  3.05778531  2.31834746
