45
opt_min/./Product_1710_opt.xyz
  C  1.60272797  4.88657249 -2.11072747
  N  0.79265360  4.04017748 -1.26511107
  C  1.28947878  2.90709272 -0.72747713
  O  2.40477476  2.47983948 -0.96275862
  C  0.36330580  2.16689210  0.15525903
  C -0.86700289  2.35845882  0.64156815
 Cl -1.99664245  3.60444035  0.39376626
  C -1.20664367  1.10338322  1.41964417
  C -1.43626351  0.02101603  0.27487194
  C  0.02673188 -0.24032648 -0.12842177
  C  0.76839983  0.81278187  0.72701300
  O  0.04789959  0.74402487  1.94298012
  C  0.28911102 -1.68611620  0.34054063
  C  1.12771265 -1.72572895  1.52929738
  N  1.79837276 -1.87707487  2.44450298
  C  1.05185245 -2.48621506 -0.77012148
  O  0.54118319 -3.38356267 -1.38653940
  N  2.29725851 -2.01984016 -0.97923601
  C  3.17850762 -2.62975121 -1.95158647
  N -1.01475614 -2.29020648  0.54802537
  C -1.07156995 -3.31755941  1.56508675
  N -1.96400502 -1.22482481  0.73008350
  C -3.31274891 -1.51330633  0.78589383
  N -4.11699747 -0.40520193  0.79812560
  C -5.54484991 -0.54445776  0.95827052
  O -3.76476478 -2.63526690  0.84044399
  H  2.21937082  5.55790018 -1.50734761
  H  0.96204138  5.47636701 -2.76189930
  H  2.26675397  4.26191460 -2.70965371
  H -0.17230136  4.29391121 -1.12152099
  H -1.95907928  1.15631459  2.19950467
  H -2.04302113  0.44928819 -0.53482913
  H  0.20186838 -0.13820838 -1.19939157
  H  1.83312642  0.67249533  0.88237160
  H  2.67844351 -1.29584366 -0.38995869
  H  2.58031961 -2.96419631 -2.79895640
  H  3.91075443 -1.89657115 -2.28043640
  H  3.69104804 -3.49557252 -1.52568252
  H -0.31572193 -4.05871411  1.31357759
  H -0.89881206 -2.93684985  2.58035121
  H -2.05655614 -3.77901879  1.51480357
  H -3.73811694  0.52290361  0.85963914
  H -5.84737987 -0.41279840  2.00365944
  H -6.05976645  0.19176033  0.34173202
  H -5.81527493 -1.55349523  0.64794667
