43
opt_min/./Product_2049_opt.xyz
  F  4.03648100  2.12946000  1.55111200
  C  3.77133385  0.98844559  0.90903350
  F  3.66073174  0.02910575  1.85628722
  F  4.86794694  0.67319158  0.19928925
  C  2.54860150  1.04530422  0.07034749
  C  1.66089784  2.02164711 -0.15470169
 Cl  1.58374055  3.60528450  0.40437474
  C  0.55363944  1.34786821 -0.95984111
  C -0.16164513  0.51072094  0.16140966
  C  0.79535021 -0.69903604  0.21500459
  C  1.97868449 -0.17892628 -0.63582619
  O  1.27790911  0.40856350 -1.71236926
  C -0.00461932 -1.71563361 -0.59885217
  C  0.48661322 -3.05252718 -1.06410019
  C  1.76137220 -3.54254218 -0.42475141
  O -0.12401340 -3.69254686 -1.87689055
  N -1.18415311 -1.35575571 -0.88000907
  C -1.51464767 -0.13248913 -0.20260664
  C -2.18714169 -0.54305103  1.13317202
  O -2.44911742  0.54729023  1.85580915
  C -3.10653692  0.32753656  3.09955176
  O -2.42152571 -1.66108993  1.48257878
  C -2.56385576  0.67418805 -0.92087063
  C -2.58224595  2.06005415 -0.91698076
  C -3.59880008  2.73808254 -1.56936934
  C -4.60169247  2.04014535 -2.21920085
  C -4.59525744  0.65519660 -2.20492181
  C -3.58377142 -0.02699908 -1.55357494
  H -0.06521023  1.95812326 -1.60688097
  H -0.22650622  1.10438289  1.07202543
  H  1.04690277 -1.06578432  1.20766892
  H  2.71435771 -0.90336114 -0.96956703
  H  1.83307326 -3.24998571  0.61808265
  H  2.61014083 -3.12652463 -0.96518460
  H  1.80279981 -4.62668001 -0.51492717
  H -3.31822323  1.31583402  3.50237056
  H -4.03034202 -0.23118346  2.94114629
  H -2.46356688 -0.23718604  3.77757115
  H -1.83408197  2.62123081 -0.37796032
  H -3.60336953  3.81788105 -1.56560226
  H -5.39047331  2.57378051 -2.72852760
  H -5.38183094  0.10490963 -2.69878719
  H -3.55818145 -1.10544631 -1.54625273
