41
opt_min/./Product_1325_opt.xyz
  C -2.41458472  2.75272638  0.17402361
  O -2.28806236  1.49424181 -0.48778349
  C -1.47309967  0.55238065  0.05771586
 Cl -2.06900229  0.10435040  1.72735851
  C  0.04655035  0.94745771  0.08876640
 Cl  0.60027828  1.40610118  1.73923241
  O  0.17338535  2.06343121 -0.71887459
  C  1.46369557  2.64842923 -0.80652294
  C  0.76169590 -0.32877323 -0.53830648
  C  0.88881306  0.01295972 -1.96034904
  N  0.94698019  0.23163032 -3.08035273
  C  2.11797072 -0.71982619  0.01871685
  C  2.31623180 -0.97069510  1.37328319
  C  3.56885844 -1.31855751  1.84833326
  C  4.64016703 -1.44186988  0.98260920
  C  4.44422899 -1.23517687 -0.37129984
  C  3.19528133 -0.88227150 -0.84998326
  N -0.22799722 -1.41165652 -0.56221299
  C -0.13667668 -2.45372367  0.44032191
  C -1.49753639 -0.75231457 -0.78645300
  C -2.79439767 -1.54647158 -0.56448891
  C -4.02963185 -0.79197209 -0.98106233
  O -2.85342771 -2.66125885 -0.12878151
  H -1.73989432  3.47884237 -0.27967987
  H -3.44813625  3.06648915  0.03715613
  H -2.19890962  2.65780254  1.23829655
  H  1.44238624  3.26442346 -1.70223147
  H  2.25284842  1.89985856 -0.89939384
  H  1.65695378  3.26981456  0.07234941
  H  1.49777165 -0.92254140  2.07065185
  H  3.69892768 -1.49966350  2.90406427
  H  5.61590309 -1.70907687  1.35846346
  H  5.26324891 -1.35142034 -1.06460487
  H  3.06522055 -0.72889955 -1.91009459
  H  0.87982228 -2.84049423  0.44287407
  H -0.40328939 -2.12014064  1.44894036
  H -0.80675990 -3.25551094  0.14761027
  H -1.53211237 -0.43214715 -1.84031120
  H -3.80408637  0.13663007 -1.49018777
  H -4.62619881 -1.43904238 -1.62076889
  H -4.62219190 -0.58481864 -0.09164758
