30
opt_min/./Product_3434_opt.xyz
  C -2.11823286 -1.65095520  0.17612078
  C -1.09913411 -0.64269226 -0.34966418
  C -1.68272795  0.73907398 -0.75006605
  C -3.19899874  0.86166301 -0.63981357
  C -0.97799534  1.70730217  0.22389270
  O -0.58705770  0.92571968  1.32520763
  C -0.06091531 -0.26562826  0.74944672
  C  0.08501243 -1.27627100  1.78394434
  N  0.27358362 -2.07131214  2.58272080
  C  1.37907869 -0.02538240  0.27842676
  C  1.91244753 -0.49304195 -0.91603050
  C  3.23032192 -0.21839917 -1.24027785
  C  4.03073668  0.51472905 -0.38219655
  C  3.50741535  0.97447160  0.81439866
  C  2.19196854  0.70231141  1.14112718
  H -1.60829953 -2.56605395  0.47259008
  H -2.65216555 -1.26286334  1.03973441
  H -2.83520017 -1.90194842 -0.60218510
  H -0.60052277 -1.09795093 -1.20580905
  H -1.39462468  0.98156937 -1.77742897
  H -3.51934487  0.79977517  0.39782256
  H -3.51083697  1.82420609 -1.04034883
  H -3.70020790  0.08250358 -1.20766213
  H -1.62999600  2.49877681  0.59474113
  H -0.09429688  2.16119450 -0.25062767
  H  1.32378136 -1.07808999 -1.60489352
  H  3.63067261 -0.57886229 -2.17679103
  H  5.06109247  0.71492735 -0.63577945
  H  4.12364370  1.54698498  1.49145651
  H  1.77572803  1.06422544  2.07025957
