24
opt_min/./Product_3950_opt.xyz
  O  3.50543293  0.67226415 -1.70509696
  C  2.90667041 -0.29102797 -1.85022993
  O  2.31110317 -1.26012344 -1.95965412
  C  1.21172517  0.51146218  0.66938687
  C  0.13680321  1.12504321  0.16064984
  C  0.52369492  2.56882514 -2.55317187
  O  0.05071226  3.55668528 -2.22503958
  O  0.99414612  1.57253388 -2.86097456
  C -0.91224391  0.06551332 -0.06595485
  C -2.25918899  0.36840194  0.65303227
  O -2.87643184 -0.75120489  0.93476783
  C -4.15248297 -0.67186462  1.56780601
  O -2.62834879  1.48472976  0.87320538
  C -1.28271865 -0.05016667 -1.46591507
  N -1.57588469 -0.14189132 -2.56425483
  N -0.32385981 -1.17542760  0.35967105
  C  0.87181156 -0.91017870  0.75078952
  C  1.77761785 -1.88931244  1.22045939
  N  2.56004926 -2.63198725  1.60168559
  H  2.15332510  0.92872276  0.97013882
  H -0.07665956  2.16639137  0.02570694
  H -4.31881872  0.33064293  1.96450850
  H -4.15854925 -1.40971600  2.36792446
  H -4.92000161 -0.91363426  0.83206131
