40
opt_min/./Product_4685_opt.xyz
  C  1.27239813 -0.23490389  0.97165185
  C  0.63243153 -1.43565691  0.27289720
  C  0.03104823 -1.08432020 -1.09592688
  N  0.88507017 -0.26947176 -1.90042598
  C  0.76483843 -0.35638307 -3.33320636
  C  1.84381158  0.48346518 -1.32790374
  C  2.10197829  0.55730039 -0.00337446
  C  3.14620236  1.48647574  0.42600007
  N  3.38250204  1.58451715  1.78178963
  O  3.74373745  2.21285698 -0.35065513
  C -1.35595131 -0.46406319 -0.72953415
  C -1.30496260  1.07271700 -0.78397263
  N -1.47884174  1.68787421  0.39519808
  C -1.43825673  3.12505267  0.52256700
  O -1.12244099  1.64967785 -1.83414067
  N -1.67436519 -0.97619510  0.59342305
  C -3.04010600 -1.40816843  0.80436727
  C -0.63118877 -1.91489639  1.02019233
  C -0.92691644 -3.29682788  0.65390632
  N -1.18620203 -4.36692734  0.34811046
  C -0.48604678 -1.87148939  2.46741803
  N -0.39746910 -1.83980675  3.60480128
  H  0.49411765  0.41188882  1.38833721
  H  1.86869975 -0.59988285  1.81194511
  H  1.36778292 -2.23855603  0.17260821
  H -0.16253840 -2.02040646 -1.64052739
  H  1.04179307  0.59718653 -3.77676853
  H -0.26926565 -0.56194647 -3.60317601
  H  1.40764278 -1.14526906 -3.73998663
  H  2.44061870  1.08093623 -2.00106250
  H  3.22680005  0.78536320  2.37284099
  H  4.21629370  2.10854095  2.00618274
  H -2.10923404 -0.77092479 -1.46995509
  H -1.66056076  1.12602312  1.21293913
  H -2.42747696  3.56252567  0.36532647
  H -0.76157058  3.51696703 -0.23596810
  H -1.07694681  3.39522716  1.51218962
  H -3.43917871 -1.97709848 -0.04572138
  H -3.67236854 -0.53234846  0.95984972
  H -3.09674995 -2.03440235  1.69376446
