64
opt_min/./Product_2816_opt.xyz
  C  2.45655692  4.09690026  0.87466984
  O  2.12848908  2.97042492  0.06221668
  C  2.79039778  1.84594280  0.30403877
  O  3.55380275  1.72448873  1.22803688
  C  2.56579802  0.70979213 -0.71136735
  C  3.84524422 -0.12388820 -0.41952168
  O  4.89224261  0.09685319 -0.95694232
  O  3.68429158 -0.94993909  0.61554125
  C  4.86487603 -1.63300719  1.02485787
  C  1.32860947 -0.07067975 -0.39137013
  C  0.08350825  0.29159917 -0.00573984
  C -0.64887382  1.61372699 -0.06073116
  C -0.28982236  2.27145856  1.17901423
  N -0.02316828  2.72608386  2.19573742
  C -2.16312392  1.37310951 -0.11221422
  C -2.67456765  0.46067070 -1.02716117
  C -4.04103175  0.28455123 -1.14776280
  C -4.90977319  1.03386897 -0.37356084
  C -4.40594081  1.97135520  0.51126836
  C -3.03925919  2.14659322  0.63811627
  C -0.41564462  2.61762690 -1.25010623
  C  0.30042241  2.27613562 -2.56477750
  C  1.82883765  2.31942236 -2.66301390
  C  2.60315889  1.10029207 -2.19628975
  N -0.61266774 -0.87140279  0.39364539
  C -1.71961735 -1.09307630  1.23337619
  N -1.93544757 -0.14819763  2.17819288
  C -3.08779399 -0.23751833  3.04571946
  O -2.38342944 -2.09609819  1.12045037
  N  0.24760316 -2.00396450  0.25632434
  C  0.69299267 -2.53263656  1.56034484
  N  1.33599558 -1.48981698 -0.46939678
  C  2.09771454 -2.28299938 -1.26706602
  C  1.71828784 -3.73820055 -1.23965337
  O  3.00835128 -1.83114626 -1.93902548
  H  2.29066420  4.97974758  0.26106028
  H  3.49657000  4.03131141  1.19600725
  H  1.80688495  4.11370397  1.75163970
  H  5.38957078 -2.01975494  0.15011642
  H  5.51788412 -0.94332019  1.56179225
  H  4.54500345 -2.44262510  1.67706111
  H -2.00588822 -0.11710768 -1.64655867
  H -4.42358872 -0.43999768 -1.84928190
  H -5.97572964  0.89274543 -0.46641881
  H -5.07609394  2.57162183  1.10777090
  H -2.65580952  2.88258092  1.33051108
  H  0.01365294  3.53806438 -0.85360954
  H -1.43436662  2.86408105 -1.56856340
  H -0.02756736  3.09144899 -3.21997802
  H -0.08803092  1.34928011 -2.99152521
  H  2.05262410  2.38984437 -3.73180879
  H  2.19457479  3.23524426 -2.20169683
  H  2.24118413  0.22936955 -2.74748872
  H  3.65576424  1.22057140 -2.46198331
  H -1.26818611  0.58627394  2.34754080
  H -3.23036428  0.71495654  3.54740672
  H -2.95664670 -1.02745315  3.78931541
  H -3.96704161 -0.47344592  2.44702377
  H  0.11588737 -2.09939292  2.37495880
  H  1.74887648 -2.31117402  1.72067586
  H  0.53334421 -3.60899822  1.55993837
  H  2.19716694 -4.22705647 -0.39329067
  H  2.07759420 -4.20506912 -2.15239806
  H  0.64208713 -3.84887217 -1.14291378
