22
opt_min/./Product_3371_opt.xyz
  C -1.52383856  0.30214555  0.50121045
  O -2.00855456  1.22067886  1.11019409
  C -1.72505560 -1.11062109  0.87982010
  C -0.95011807 -2.10767784  0.44934981
  C  0.14468449 -1.92138329 -0.51860810
  O  0.67674804 -2.83952009 -1.09400196
  C  0.53525463 -0.48518416 -0.76218548
  C -0.61503821  0.51968770 -0.72121735
  N  0.10919748  1.76282425 -0.62445447
  C -0.39330261  2.97127629 -0.68727956
  N -0.84008965  4.02117912 -0.81678642
  O  1.37539463  1.54212505  0.00475264
  C  1.44371684  0.16783856  0.30483822
  C  2.89881989 -0.26340686  0.28790624
  H -2.53606051 -1.28039182  1.57654411
  H -1.12427482 -3.13007986  0.75945200
  H  1.06144548 -0.42090418 -1.72398242
  H -1.23300521  0.51534631 -1.62964769
  H  1.00500956 -0.02200035  1.30444443
  H  2.99784161 -1.25224020  0.72629627
  H  3.47595396  0.45069650  0.86970904
  H  3.28051419 -0.27779830 -0.72989162
