37
opt_min/./Product_543_opt.xyz
  N -0.40165660  2.95045590 -2.19726433
  C -0.31485560  2.04292017 -1.50863410
  C -0.22113986  0.88897308 -0.65404167
  C -1.13430058 -0.28773727 -1.13128344
  C -2.03774723  0.04946504 -2.20575470
  N -2.76438005  0.27240938 -3.05884949
  C -1.97480410 -0.53328293  0.18435095
  C -2.97726119  0.60534101  0.16746362
  C -2.27221915  1.67715925  0.50052986
  C -0.87023408  1.17588377  0.75605923
  O -1.08084139 -0.15078817  1.20883550
  C -0.17673158 -1.41436199 -1.58470805
  C -0.63134166 -2.83345515 -1.22272061
  C -0.00359157 -1.33681115 -3.03603209
  N  0.27928992 -1.27831818 -4.14201487
  N  1.09768773 -1.11600505 -0.94219606
  C  1.21498765  0.28900254 -0.56000846
  C  1.74301460  0.38831449  0.89736064
  N  1.92367957 -0.78752463  1.50572835
  C  2.34368143 -0.90097343  2.87812571
  O  1.98692837  1.46797484  1.40033684
  C  2.21317971  1.04227921 -1.44446624
  H -2.35400572 -1.53863031  0.32253473
  H -4.00135975  0.51199716 -0.13187523
  H -2.55867744  2.70599360  0.57873229
  H -0.24859941  1.75305377  1.42939576
  H  0.06600473 -3.55236700 -1.64886672
  H -1.62224498 -3.03320994 -1.62551594
  H -0.63511788 -2.95584095 -0.14313958
  H  1.88238847 -1.41773812 -1.50912547
  H  1.60423174 -1.61065699  1.01438783
  H  3.17007378 -1.60759932  2.95994721
  H  1.51531700 -1.23653644  3.50617004
  H  2.66999256  0.08184999  3.21267986
  H  2.32147844  2.06696364 -1.09644529
  H  3.18483653  0.55352099 -1.38164921
  H  1.88527440  1.05236288 -2.48355055
