47
opt_min/./Product_5124_opt.xyz
  C  4.27078208  0.85733992  0.94449541
  C  3.84622368  1.29764206 -0.42686240
  C  4.79110167  2.22182830 -1.13570155
  C  2.74190590  0.86899044 -1.02721999
  C  1.76593338 -0.11852505 -0.45954518
  C  0.56243734  0.61483981  0.18863794
  C  0.30821800  0.20634967  1.61316873
  C  0.28262943 -1.25610437  1.95300303
  C  0.16549150  1.12871255  2.55454704
  C -0.62282832  0.37313769 -0.80610982
  C -1.19253550  1.68814317 -1.38234599
  O -0.23531847  2.58522284 -1.61018930
  C -0.63879236  3.79075206 -2.24823297
  O -2.35177831  1.86333317 -1.63550038
  C -1.77155452 -0.41923674 -0.21999303
  C -2.52769138  0.14403126  0.80325621
  C -3.57524423 -0.56174974  1.36302658
  C -3.88444327 -1.83230493  0.90458478
  C -3.14954536 -2.38614220 -0.12606069
  C -2.09929865 -1.68106809 -0.69037525
  O -0.06375005 -0.25756687 -1.95438714
  C  1.09976745 -0.95773518 -1.57081110
  C  1.95813138 -1.15757180 -2.72078883
  N  2.64769318 -1.34732881 -3.61202957
  H  3.42133392  0.56543412  1.55485954
  H  4.95589792  0.01157970  0.87075139
  H  4.79532804  1.66262859  1.45377191
  H  5.57407569  1.64147259 -1.62429218
  H  4.27619202  2.79669037 -1.90088134
  H  5.26739093  2.90709253 -0.43816823
  H  2.48704538  1.25228710 -2.00402086
  H  2.25840264 -0.78098195  0.25149823
  H  0.78384796  1.68530045  0.17759619
  H -0.33415729 -1.42561620  2.83154648
  H  1.28918336 -1.60984045  2.18218812
  H -0.11200197 -1.85361563  1.13574600
  H  0.21306460  2.18230397  2.33609339
  H -0.01078525  0.86329575  3.58264241
  H -1.32838927  3.57212173 -3.06511151
  H  0.26945815  4.25765805 -2.62133653
  H -1.13578710  4.44529823 -1.52934409
  H -2.29810990  1.13785255  1.15333950
  H -4.15942153 -0.11654211  2.15416043
  H -4.70349593 -2.38268667  1.34277029
  H -3.39279557 -3.37013244 -0.49941691
  H -1.54590670 -2.11254404 -1.51090152
  H  0.83829624 -1.95819983 -1.17617894
