26
opt_min/./Product_3380_opt.xyz
  C -0.21218498 -0.57441603 -1.42094699
  C -1.12746542  0.64335146 -1.35787165
  C -1.63834769  0.57840488  0.09549813
  C -2.00699852  1.89359498  0.60339797
  N -2.32111146  2.91721014  1.00125195
  C -2.82594698 -0.26695048  0.16283272
  N -3.74105721 -0.94999224  0.20503448
  N -0.51361885  0.04974618  0.87293115
  C -0.86142281 -0.73159064  2.03636582
  C  0.46171867 -0.54495975 -0.04800730
  C  1.67296983  0.40527625 -0.05391151
  N  2.56854488  0.15656686  0.92201686
  C  3.72385981  0.99576061  1.13783900
  O  1.79482665  1.31067879 -0.85125436
  H  0.51004974 -0.50130844 -2.23203960
  H -0.79565514 -1.49085860 -1.53913978
  H -0.53773672  1.55165474 -1.48831089
  H -1.94267318  0.62002626 -2.07941927
  H  0.03510162 -0.87922221  2.63947319
  H -1.57976245 -0.17230047  2.63659034
  H -1.29316484 -1.71370143  1.79415037
  H  0.75870145 -1.53942384  0.30489459
  H  2.40070837 -0.57981498  1.58781365
  H  4.63599256  0.47978403  0.83045033
  H  3.60220055  1.89526887  0.53625738
  H  3.80089743  1.27367918  2.18853031
