44
opt_min/./Product_4701_opt.xyz
  C  3.75229100  2.08956900  0.61461300
  C  3.12306981  0.80533426  0.14391105
  C  3.64411268 -0.44155374  0.78873957
  C  2.14661315  0.83019205 -0.75325805
  C  1.39785383 -0.37203139 -1.26273297
  C  0.35906042 -0.89777137 -0.24151517
  C  0.22095889 -2.39586338 -0.28294991
  C -0.04772408 -3.03107428 -1.61598399
  C  0.37443043 -3.11391634  0.81811323
  C -0.90298989 -0.14688948 -0.74218652
  C -2.19640930 -0.93817952 -0.60227540
  O -2.30565089 -1.36615969  0.66021203
  C -3.45310437 -2.15126091  0.96886406
  O -3.00156505 -1.14394535 -1.46487252
  C -1.20948471  1.20747771 -0.11817966
  C -0.63585597  1.67278337  1.05522210
  C -0.97302820  2.92476659  1.54243746
  C -1.88449101  3.71698166  0.86767086
  C -2.46265473  3.25356891 -0.29977875
  C -2.13087636  2.00491626 -0.79127942
  N -0.58693439  0.16171170 -2.14265077
  N  0.59096107  0.05298744 -2.39615506
  H  4.68715744  1.89398085  1.13323028
  H  3.94371628  2.75274101 -0.22690916
  H  3.08054024  2.61296758  1.29633594
  H  3.40261113 -0.43742966  1.85355796
  H  4.72805330 -0.48750357  0.69240788
  H  3.20872753 -1.33535499  0.34904398
  H  1.81209975  1.77833396 -1.15242409
  H  2.09681786 -1.14106534 -1.60074667
  H  0.62539204 -0.60545171  0.77043347
  H -0.93721079 -2.60626964 -2.07856735
  H -0.18772322 -4.10346325 -1.50324120
  H  0.78479944 -2.85776179 -2.29892644
  H  0.29639543 -4.18773674  0.81036894
  H  0.57619695 -2.66070462  1.77373550
  H -3.26359217 -3.19463498  0.70796655
  H -4.31010954 -1.79113814  0.39605750
  H -3.62537846 -2.04670857  2.03687888
  H  0.07451947  1.07671280  1.60420388
  H -0.51854853  3.27661347  2.45761500
  H -2.14236348  4.69206383  1.25387096
  H -3.17712662  3.86434136 -0.83151836
  H -2.57278997  1.63703011 -1.70494505
