52
opt_min/./Product_1602_opt.xyz
  C  0.08594400  3.27433100  2.25387200
  O  0.04754208  2.07800342  1.48516035
  C -0.22609315  2.22543402  0.17992659
  O -0.32484953  3.30944333 -0.32586836
  C -0.42670933  0.90282127 -0.55680066
  C -1.52016455 -0.02658410  0.08804496
  O -1.90526098  0.47462979  1.35306263
  C -3.05267476 -0.06622945  1.96344487
  C -2.67478381  0.05172031 -0.94766236
  C -2.35877822 -0.72547071 -2.22816399
  C -1.29046086  0.15680669 -2.89839095
  C -1.09156737  1.29847632 -1.90384948
  C -2.53728214  1.49658110 -1.43576842
  C -0.82827948 -1.41069866  0.13807706
  C -0.14563047 -1.96555730  1.40922775
  C -0.00294416 -1.14091655  2.65809333
  O  0.27424169 -3.09387657  1.34648501
  N  0.16160863 -1.31976941 -0.93822896
  C  0.81116958 -0.02137517 -0.74104380
  C  1.95667371 -0.25355661  0.29530992
  N  2.38981393  0.76449580  1.03986162
  C  3.51855298  0.63559888  1.93030479
  O  2.48797227 -1.34780996  0.28396581
  C  1.70013736  0.48916024 -1.88366424
  C  2.15098100 -0.48483451 -2.93263248
  O  2.10161067  1.62699250 -1.83381406
  H -0.79321714  3.88396972  2.04056767
  H  0.09635048  2.96453749  3.29572193
  H  0.98019834  3.85507090  2.01573021
  H -3.97511013  0.19792340  1.43895046
  H -2.99154696 -1.15597696  2.05418687
  H -3.08099270  0.38000806  2.95698763
  H -3.64599660 -0.19508980 -0.52554632
  H -3.25515516 -0.80388962 -2.84421598
  H -1.99136866 -1.72833981 -2.04187580
  H -1.68013674  0.59516178 -3.82088830
  H -0.39793290 -0.39922900 -3.15233261
  H -0.61604623  2.17537060 -2.33947750
  H -2.64884974  2.22753131 -0.63990850
  H -3.21222243  1.72249978 -2.25753505
  H -1.56542866 -2.18724182 -0.11859433
  H -0.78443856 -1.43507992  3.35634138
  H -0.06924032 -0.07769509  2.46362183
  H  0.95537273 -1.38815965  3.11560320
  H  0.86536596 -2.05015048 -0.80392546
  H  1.94746356  1.66284455  0.97257013
  H  3.94048765 -0.35890209  1.79287822
  H  3.20234339  0.75600443  2.96864754
  H  4.27146627  1.38845250  1.69436698
  H  3.24038365 -0.48193576 -2.95490823
  H  1.80775099 -0.13264214 -3.90476762
  H  1.78562226 -1.48853741 -2.75046439
