52
opt_min/./Product_2217_opt.xyz
  C  4.93921600 -0.09557000  0.19494400
  O  3.96508662 -0.45658683  1.15909088
  C  3.02348628 -1.32009801  0.79647138
  C  2.05161152 -1.85804382  1.56238962
  C  1.95137076 -1.76705931  3.03743727
  F  3.17017973 -1.85162506  3.61458443
  F  1.45680583 -0.58002182  3.46507470
  F  1.21437906 -2.71906830  3.59685437
  C  1.22216762 -2.70678451  0.61852999
  C  0.34978976 -1.87067645 -0.37940170
  C  1.45670857 -1.06596574 -1.08013972
  C  2.72457382 -1.83885533 -0.59996401
  O  2.21707095 -3.12865230 -0.31151390
  C  1.24383120  0.35307152 -0.53263194
  C  1.85829923  1.42531161 -1.42697532
  N  1.77621082  2.66638334 -0.91393910
  C  2.26411764  3.83310610 -1.60595222
  O  2.41145308  1.17000473 -2.47871314
  N -0.20239483  0.49793835 -0.33180057
  C -0.90123665  1.20572632 -1.39192038
  C -0.69916026 -0.83151640  0.06731212
  C -2.10324733 -1.08932755 -0.52699956
  O -3.11336532 -0.82496508  0.08740371
  N -2.13344775 -1.59395037 -1.77859242
  C -3.38162242 -1.87974353 -2.44586316
  C -0.97785419 -0.90533903  1.59522454
  O -1.04959430 -1.97611138  2.15903529
  N -1.23401228  0.27603713  2.15674018
  C -1.68987173  0.40100622  3.52080691
  H  5.57722326  0.63225961  0.68799505
  H  5.54083406 -0.95732364 -0.10218029
  H  4.47718015  0.35214438 -0.68956637
  H  0.70448085 -3.54163033  1.07463802
  H -0.08006925 -2.62377778 -1.03315868
  H  1.40176499 -1.07179892 -2.16903280
  H  3.54234909 -1.88701774 -1.31187282
  H  1.70767253  0.45088826  0.45594824
  H  1.29200762  2.80026136 -0.04171497
  H  2.80871411  3.49295000 -2.48430876
  H  2.93192642  4.40267943 -0.96022018
  H  1.43942511  4.47549242 -1.92227843
  H -0.51738301  0.96864341 -2.38994018
  H -0.79875907  2.28034011 -1.23172758
  H -1.96164980  0.98007758 -1.36690605
  H -1.28928155 -1.67926710 -2.31855811
  H -4.13929828 -2.04971504 -1.68337626
  H -3.69846511 -1.04166225 -3.07178956
  H -3.27096601 -2.76876058 -3.06172312
  H -1.09776686  1.09797547  1.59160154
  H -0.84801834  0.38653194  4.21538353
  H -2.24499423  1.32666976  3.63505838
  H -2.33560938 -0.44633582  3.74324920
