44
opt_min/./Product_4638_opt.xyz
  C  3.12612400 -1.40420500  0.26399800
  C  2.91040755  0.06594019  0.04834826
  C  4.15202903  0.89552085  0.17832485
  C  1.73440585  0.63584403 -0.19309163
  C  0.41842045 -0.04654877 -0.33315990
  C -0.70341307  0.60937467  0.49901686
  C -1.12837394 -0.02552851  1.79146058
  C -1.90406868  0.89390124  2.69540085
  C -0.79357784 -1.24244367  2.19477678
  C -1.82289806  0.75573939 -0.60885706
  C -3.27367989  0.90769357 -0.17456729
  O -3.69218166 -0.17666183  0.47893187
  C -5.05437907 -0.19225033  0.89544519
  O -3.95587192  1.86168639 -0.41972691
  O -1.42469558  1.91118853 -1.34831159
  C -0.36195757  1.51738111 -2.07810714
  O  0.27765587  2.22622999 -2.79418130
  C -0.17545252  0.02771694 -1.78153351
  C  0.58950836 -0.71077134 -2.85493542
  N -1.59016798 -0.30193682 -1.57341863
  C -1.95824872 -1.65573055 -1.21717103
  H  2.36808370 -2.01090447 -0.22412016
  H  3.11289028 -1.62809044  1.33229062
  H  4.09977237 -1.69848293 -0.12412027
  H  4.56882385  0.79044667  1.18124220
  H  4.90954795  0.56373273 -0.53143039
  H  3.94461113  1.94711688 -0.00356884
  H  1.69703828  1.70947214 -0.33585853
  H  0.49885947 -1.10741495 -0.09514138
  H -0.40830778  1.64068815  0.74204095
  H -2.67988275  0.34678597  3.22759316
  H -2.36249771  1.70864637  2.13857736
  H -1.23241689  1.32918395  3.43668852
  H -1.11185788 -1.60870631  3.15711770
  H -0.20695680 -1.92485523  1.60732124
  H -5.12634711  0.18873512  1.91583236
  H -5.65445820  0.43468522  0.23315660
  H -5.38233718 -1.22880339  0.85654824
  H  1.65341798 -0.65717794 -2.63439044
  H  0.41135336 -0.24446228 -3.82079780
  H  0.29054975 -1.75486879 -2.90913140
  H -2.95818448 -1.85450724 -1.60584558
  H -1.26421795 -2.35157864 -1.68594248
  H -1.95636839 -1.82760246 -0.13831669
