57
opt_min/./Product_2547_opt.xyz
  C  5.63787300  2.46294500 -1.07224200
  O  4.69964304  1.43612716 -0.78826733
  C  3.56012558  1.79123751 -0.20985504
  O  3.26421036  2.92448327  0.08586844
  C  2.66825841  0.64581749  0.06502092
  C  2.68712613 -0.67297137 -0.22083642
  C  3.59586281 -1.47698635 -1.06081672
  C  3.32152596 -2.96281009 -1.06389994
  O  4.48166395 -0.99735415 -1.72685391
  C  1.40698271 -1.20745894  0.43924234
  C  0.28123574 -0.72411569 -0.51663056
  C  0.27976530  0.79023115 -0.19455179
  C  1.39179642  0.85892309  0.88075722
  O  1.28048110 -0.36874873  1.55664426
  C -1.19980582  1.11903707  0.15753350
  C -1.58761906  1.07056699  1.66982951
  C -2.94649957  1.64564718  1.96212288
  O -0.87529423  0.64686336  2.53322284
  C -1.48869705  2.57621630 -0.19490055
  O -0.70343368  3.45044232  0.06059842
  O -2.69500394  2.78255132 -0.71715572
  C -3.07049549  4.12929596 -0.99017156
  N -1.96352986  0.08885757 -0.54483569
  C -2.13560850  0.35778346 -1.97603079
  C -1.20468578 -1.13770545 -0.29316075
  C -1.48221177 -1.70404350  1.10653158
  O -2.66709843 -1.32515734  1.55560240
  C -3.01736533 -1.82393807  2.84220190
  O -0.76661012 -2.49874034  1.65570729
  C -1.68082411 -2.32802101 -1.14542003
  C -0.72846878 -3.48979100 -1.20326488
  O -2.75520617 -2.34155537 -1.68226556
  H  6.16786941  2.15764684 -1.97188497
  H  6.33831950  2.55780956 -0.24002963
  H  5.12301025  3.41426774 -1.22225506
  H  3.11696253 -3.33705758 -0.06596503
  H  2.45731823 -3.16231071 -1.69549368
  H  4.18215109 -3.47896500 -1.48278744
  H  1.38136655 -2.24012869  0.76356762
  H  0.54752481 -0.91456792 -1.55854189
  H  0.56151830  1.38972693 -1.06295975
  H  1.37409393  1.71521237  1.54456533
  H -2.81075414  2.68650987  2.25774337
  H -3.60499946  1.58808810  1.10233932
  H -3.38369351  1.11771907  2.80632367
  H -4.11360580  4.23487201 -0.69785998
  H -2.96205931  4.32350599 -2.05814523
  H -2.43601953  4.81525398 -0.42651219
  H -1.61824164 -0.37116965 -2.59853997
  H -1.75711475  1.34003287 -2.24922025
  H -3.19867357  0.31132222 -2.20939114
  H -3.96850512 -1.36483355  3.09755647
  H -3.11560604 -2.91092806  2.80894030
  H -2.24243881 -1.55755293  3.56373038
  H -0.10744802 -3.54223937 -0.31649161
  H -1.30044926 -4.40793849 -1.31900961
  H -0.09505109 -3.38036965 -2.08330227
