41
opt_min/./Product_672_opt.xyz
  C -3.91571000  1.22428600  2.12446600
  N -2.91314310  1.18706083  1.08595096
  C -1.81871116  0.39911132  1.17434742
  O -1.59766779 -0.32048467  2.12550280
  C -0.82408111  0.56733993  0.03520797
  C  0.22987829 -0.54896697 -0.12658693
  C -0.06168998 -1.96968923  0.37312364
  C -1.42349814 -2.53869807  0.06834880
  O  0.79684510 -2.64613313  0.87120196
  C  0.19113901 -0.70174050 -1.70707539
  C  0.69379650  0.58380557 -2.32105989
  C -0.29496662  1.45560924 -2.17575098
  C -1.37792371  0.68958585 -1.44018842
  O -1.20633855 -0.61447634 -1.93752376
  C  1.52808950  0.08960914  0.45032910
  C  1.84787636 -0.36935705  1.89227580
  C  2.77975921 -0.17182067 -0.39115400
  O  2.93014092 -1.14015300 -1.10400848
  N  3.72220607  0.76711583 -0.18267483
  C  5.00784040  0.74363115 -0.83158372
  N  1.26795339  1.51006009  0.56135110
  C  0.04543897  1.74876509  0.39466515
  H -3.73613488  0.37670290  2.78379144
  H -3.84328779  2.14633278  2.70601860
  H -4.91199861  1.14914887  1.68993575
  H -3.01772861  1.82071850  0.31109448
  H -1.57787267 -3.41535416  0.69236727
  H -1.45042119 -2.84136631 -0.97655503
  H -2.21902910 -1.82151337  0.22991019
  H  0.62033407 -1.62561250 -2.07775087
  H  1.67160013  0.69272831 -2.74228033
  H -0.34850033  2.49182529 -2.44539271
  H -2.40725049  1.01771698 -1.55268134
  H  2.40307315 -1.30095141  1.88135112
  H  2.43690892  0.40112980  2.38483119
  H  0.91877543 -0.51040055  2.43965175
  H  3.45760065  1.57539423  0.35963371
  H  5.81310100  0.75191285 -0.09559693
  H  5.06364687 -0.17540431 -1.41279135
  H  5.12255797  1.60245979 -1.49681287
  H -0.35136773  2.74593163  0.50790510
