42
opt_min/./Product_1733_opt.xyz
  C -1.57520867  4.05208353  0.03422471
  O -0.59937999  3.09413203  0.42782660
  C -0.69896795  1.86660096 -0.06815166
  O -1.58543824  1.49557800 -0.78806196
  C  0.44974401  0.97757175  0.40355575
  C  1.44755558  0.62754863 -0.73177005
 Cl  0.89855796  0.93694622 -2.38637422
  C  2.68856646  1.49608549 -0.34231999
  C  3.33940083  0.70774697  0.77938246
  C  2.53438459  0.87929633  1.81901714
  C  1.42254239  1.78907216  1.32596041
  O  2.09555010  2.57095208  0.35155089
  C  1.64184666 -0.85286930 -0.52744122
  C  2.66918796 -1.60425850 -1.31039083
  O  2.63403772 -2.89769579 -1.03979710
  C  3.56839408 -3.73574980 -1.71216990
  O  3.42877252 -1.06361652 -2.07311433
  N  0.90289009 -1.39470437  0.34206758
  C -0.01429630 -0.43340960  0.92063877
  C  0.11211933 -0.48467795  2.36563659
  N  0.22250221 -0.51162781  3.50217779
  C -1.42434524 -0.85498462  0.52020108
  C -1.66425863 -1.29584032 -0.77626936
  C -2.93705238 -1.68814981 -1.14403790
  C -3.97318815 -1.65723995 -0.22520948
  C -3.73392674 -1.23149783  1.06748017
  C -2.46203116 -0.83299669  1.44117195
  H -1.04790525  4.91524604 -0.37006560
  H -2.14443946  4.34341762  0.91764231
  H -2.24128006  3.62402784 -0.71684567
  H  3.29949253  1.81953636 -1.17788850
  H  4.24739947  0.14814063  0.68526200
  H  2.60248709  0.47947817  2.80990368
  H  0.94152794  2.40994709  2.07562809
  H  3.04136083 -4.64857797 -1.98351799
  H  3.95544176 -3.23307952 -2.60073868
  H  4.39077312 -3.97017368 -1.03453713
  H -0.86474424 -1.32087681 -1.49931851
  H -3.11967759 -2.01575706 -2.15636559
  H -4.96452606 -1.96027662 -0.52834530
  H -4.53171931 -1.21375471  1.79484339
  H -2.28385075 -0.48820974  2.44939760
