37
opt_min/./Product_4743_opt.xyz
  C -0.42808993  0.94207492  0.88247222
  O -0.51134825  1.85435754  1.67104458
  C -1.38311242 -0.18639795  0.90238274
  O -2.30509812  0.03900393  1.85573057
  C -3.31914400 -0.89350016  2.16815694
  C -1.30866412 -1.23360319  0.01884375
  O -2.27354351 -2.18551552  0.04128446
  C -1.98105846 -3.48780546 -0.44750880
  C -0.30227376 -1.23484236 -1.05182701
  O -0.46239614 -1.81999575 -2.10137802
  C  0.96026994 -0.43360945 -0.78727919
  C  1.79312591 -0.38036548 -2.07487833
  C  0.72944969  0.93467508 -0.13445383
  C  0.57442374  2.14276241 -1.04528944
  N  1.94792993  1.02890810  0.72064712
  C  2.33652566  2.13223908  1.32943818
  N  2.72588852  3.10889406  1.78623113
  N  2.41559735 -0.18183937  1.02713765
  C  1.84818358 -1.06765047  0.29036502
  C  2.05583623 -2.50590469  0.46667261
  C  3.19214463 -2.88107325  1.37206470
  O  1.30914887 -3.30809375 -0.05402076
  H -4.05103135 -0.96215022  1.36029721
  H -2.91494616 -1.88468204  2.37271949
  H -3.79446152 -0.49436430  3.06277654
  H -1.73014144 -3.47932940 -1.50723002
  H -2.89489229 -4.05538890 -0.28156608
  H -1.15411248 -3.93242150  0.11192084
  H  1.19523665  0.00963294 -2.89410664
  H  2.68262890  0.23106676 -1.93800700
  H  2.09781742 -1.39051192 -2.33789676
  H  1.33304140  2.16220791 -1.82152901
  H  0.65674551  3.04836300 -0.44672080
  H -0.40925965  2.12515417 -1.50866178
  H  4.09723467 -2.35881498  1.07651247
  H  3.34615313 -3.95626004  1.34542200
  H  2.95115087 -2.57029623  2.38619893
