60
opt_min/./Product_3119_opt.xyz
  N  1.69214155  3.16926851 -1.39336119
  C  1.61210447  2.05410531 -1.15658879
  C  1.68723246  0.60351115 -0.98365332
  C  2.79659348  0.38852632  0.04902970
  C  2.62186849 -0.42581444  1.15885027
  C  3.65515034 -0.60931104  2.06263769
  C  4.86833236  0.02682894  1.87548485
  C  5.04232187  0.85823254  0.78172446
  C  4.01366331  1.03962410 -0.12404035
  C  0.35524021  0.10413842 -0.46665020
  C -0.31854494 -1.06194656 -0.50584110
  C -0.03466013 -2.41129109 -1.06978077
 Br -1.68709606 -3.23478234 -1.80513497
 Br  0.46886396 -3.60020006  0.46908724
  C  1.01397210 -2.63498168 -2.14618087
  C  2.45116130 -2.31290264 -1.72580941
  C  3.01464403 -1.10223390 -2.45496751
  C  2.10652807  0.12349114 -2.40334619
  C -1.63816771 -0.89877180  0.25493136
  C -1.98151727 -2.03717184  1.25076008
  C -1.39746928 -1.86583141  2.62326402
  O -2.70019159 -2.95026492  0.94737606
  C -2.75864575 -0.70490249 -0.78783178
  O -2.54139570 -0.24619649 -1.88887540
  O -3.95213564 -0.95302252 -0.29374053
  C -5.08340480 -0.77823711 -1.13897364
  N -1.43736928  0.32353929  1.00428965
  C -2.58017848  1.01595941  1.55327782
  C -0.38564948  1.10433065  0.38517191
  C -0.90042862  2.37680409 -0.34690571
  N -1.28688673  2.19850480 -1.61789822
  C -1.79929642  3.28640595 -2.41703663
  O -0.95168225  3.43265288  0.24515790
  H  1.68146050 -0.92431729  1.34048957
  H  3.50321996 -1.25555734  2.91358781
  H  5.67140327 -0.11794674  2.58171773
  H  5.97952903  1.37170490  0.63094248
  H  4.15816756  1.69614924 -0.96940197
  H  0.96571623 -3.69322822 -2.41358258
  H  0.72388546 -2.06481470 -3.02839317
  H  2.50596402 -2.14272742 -0.65070403
  H  3.09078621 -3.17248171 -1.93427082
  H  3.18033490 -1.34784682 -3.50702532
  H  3.98256509 -0.84457772 -2.02220801
  H  2.65401479  0.93937092 -2.88459945
  H  1.19753243 -0.02200152 -2.98977565
  H -0.50029682 -1.25587315  2.60621371
  H -1.19765824 -2.84335343  3.05491715
  H -2.13794128 -1.36821775  3.24697844
  H -5.71777857 -0.00614028 -0.70341812
  H -5.61693781 -1.72701168 -1.17476251
  H -4.76094755 -0.48583974 -2.13927538
  H -3.36379863  0.29598771  1.77846440
  H -2.98737169  1.77999758  0.88205495
  H -2.27251922  1.50880001  2.47755107
  H  0.27519158  1.49612042  1.17709746
  H -1.37819923  1.26863167 -2.00553168
  H -2.79354079  3.04427270 -2.79310966
  H -1.13084016  3.47885166 -3.25762926
  H -1.84424540  4.17288538 -1.78693199
