36
opt_min/./Product_570_opt.xyz
  C -3.06820924  3.07171778 -0.71353496
  O -2.39243037  2.26792019  0.24231367
  C -1.59250668  1.31522667 -0.24282334
  O -1.41033540  1.12900095 -1.42087358
  C -0.95000046  0.57479593  0.85174073
  C -1.15870653  0.74844822  2.19053381
  C -2.07727648  1.59195498  2.83802394
  N -2.80966919  2.28095922  3.38818020
  N -0.24847381 -0.04290987  2.91316420
  N  0.47185859 -0.68791631  2.15060918
  C  0.15799537 -0.44599283  0.75568829
  C  1.41288673  0.15694487  0.11745093
  C  2.10923550 -0.49050066 -0.88842400
  C  3.23747497  0.09596223 -1.43848373
  C  3.68399628  1.32327589 -0.98343745
  C  2.99721965  1.96221247  0.03486082
  C  1.86821402  1.38465247  0.58444621
  C -0.28242871 -1.75168269  0.10591671
  C -0.27887632 -2.92375531  0.85499030
  C -0.67438803 -4.11686180  0.27574116
  C -1.08522138 -4.15637749 -1.04491061
  C -1.10361085 -2.98565234 -1.78527273
  C -0.70540799 -1.78897373 -1.21453363
  H -3.71707247  3.73031812 -0.14307413
  H -2.34762245  3.64726763 -1.29831098
  H -3.65308010  2.44469186 -1.38984413
  H  1.78988092 -1.45501101 -1.25184680
  H  3.76538823 -0.41963584 -2.22658682
  H  4.56376023  1.77879796 -1.41196114
  H  3.33843736  2.91808550  0.40410274
  H  1.34680272  1.89903040  1.38000571
  H  0.05134176 -2.90362873  1.88218885
  H -0.66055432 -5.01772190  0.87130680
  H -1.37682294 -5.09466989 -1.49192278
  H -1.44292153 -2.99634820 -2.80985657
  H -0.73851576 -0.88840291 -1.80886120
