72
opt_min/./Product_2999_opt.xyz
  C -2.60132738 -1.74386995 -2.11163538
  O -2.76298732 -1.69016257 -0.71251144
  C -2.08114177 -0.66597179 -0.01274231
  O -2.39313128 -0.82186700  1.33745414
  C -3.77074140 -0.70359863  1.64118137
  C -0.55044962 -0.78021942 -0.17482748
  C  0.31366919  0.05301584 -0.79002888
  C  0.31685887  1.47495455 -1.41297079
  C  1.30001608  1.49131626 -2.50032932
  N  1.98808744  1.67599347 -3.39406864
  C  0.79479413  2.45545400 -0.33566916
  C  1.48394149  3.60485399 -0.70952936
  C  1.85113017  4.54845794  0.23311434
  C  1.53377929  4.36190542  1.56726702
  C  0.87233415  3.20875350  1.95146989
  C  0.50792694  2.25987235  1.01114675
  C -0.86491081  2.21239306 -2.21398978
  C -2.13788716  2.82578109 -1.56065175
  C -3.18446613  1.81484032 -1.00754698
  C -2.21275152  0.73206369 -0.60183616
  C  1.67019151 -0.67292487 -0.80267704
  C  1.73239332 -1.39070334 -2.19249020
  N  2.62254873 -2.39090349 -2.22732573
  C  2.81502501 -3.19047025 -3.41370907
  O  0.99931058 -1.09155019 -3.11042399
  C  2.89618620  0.21307934 -0.61407983
  O  3.73494994  0.41268408 -1.44944744
  O  2.93505369  0.73652960  0.61439082
  C  4.02463439  1.60061763  0.90696172
  N  1.56088100 -1.72204402  0.19254553
  C  2.53171773 -1.92851706  1.23525840
  C  0.14727379 -1.96338155  0.46280585
  C -0.27849136 -3.31335952 -0.11846907
  C -0.14568075 -1.94334562  1.97225766
  O -0.46121611 -2.90129988  2.62198293
  O  0.08462899 -0.72816572  2.47293801
  C -0.16114111 -0.52654163  3.85786535
  H -2.95681752 -2.73003929 -2.40708376
  H -1.55625685 -1.63161673 -2.41536233
  H -3.21008430 -0.98313358 -2.61253934
  H -4.13569191  0.30062493  1.40453474
  H -3.85224469 -0.88894276  2.71005952
  H -4.35587879 -1.44245466  1.09129711
  H  1.74434558  3.76621569 -1.74511962
  H  2.38671517  5.43171293 -0.08145712
  H  1.80912887  5.10362366  2.30267820
  H  0.63590190  3.04044705  2.99205344
  H  0.03973401  1.34909287  1.35009711
  H -0.35707801  3.07155911 -2.66515944
  H -1.15431552  1.57094378 -3.05210118
  H -2.59336618  3.44929888 -2.33286357
  H -1.82627099  3.48464192 -0.74794989
  H -3.90457317  1.51414246 -1.76787656
  H -3.72239268  2.26477735 -0.17271202
  H -1.52911717  1.28514710  0.04038261
  H -1.75411384  0.50499512 -1.55450647
  H  2.96300052 -2.74881779 -1.34920261
  H  3.80293965 -3.64452890 -3.38625001
  H  2.73607736 -2.53391085 -4.27862620
  H  2.05671473 -3.97417309 -3.49979131
  H  4.35189555  2.10945170 -0.00135809
  H  3.66447436  2.31647998  1.64256689
  H  4.85570481  1.02154619  1.31496497
  H  3.53123966 -1.96630531  0.79717305
  H  2.52906907 -1.15673735  2.01539598
  H  2.32021972 -2.89373040  1.69780781
  H -1.32984607 -3.48559915  0.08844178
  H  0.30484732 -4.10410476  0.34632833
  H -0.11003238 -3.32194740 -1.19189897
  H -1.01924312  0.13851001  3.96112480
  H -0.37204508 -1.48262082  4.33946575
  H  0.72527436 -0.06636196  4.29491554
