41
opt_min/./Product_1518_opt.xyz
  C  4.19425100 -1.86655000 -1.08240500
  N  3.24217547 -1.01336908 -0.41293144
  C  3.00819632  0.24534356 -0.85009575
  O  3.64118322  0.77912739 -1.73403005
  C  1.93433606  0.94890822 -0.10505097
  C  1.13407120  1.93422194 -0.52930158
  F  1.02321776  2.51286767 -1.70780561
  C  0.26379100  2.32956292  0.64445289
  C -0.76754845  1.19997361  0.92106518
  C  0.15171098  0.09694758  1.50091636
  C  1.54047554  0.77924515  1.35670274
  O  1.17490453  2.11017785  1.71606971
  C -0.30722601 -1.13158458  0.68464816
  C  0.03178883 -2.50121398  1.25533320
  O  1.33317908 -2.58691528  1.51610144
  C  1.79150104 -3.82963118  2.04971848
  O -0.76450431 -3.37139339  1.44994148
  N -1.70950977 -0.83817828  0.56276599
  C -1.51693879  0.41079916 -0.17494301
  C -2.74710297  1.04777036 -0.77609734
  O -3.77827265  0.46907094 -0.97740811
  O -2.50385382  2.31655869 -1.07153059
  C -3.53412328  3.02007873 -1.76012548
  C -0.51457570 -0.06527523 -1.25975471
  O -0.42482993  0.26181035 -2.39689925
  O  0.21432598 -1.03686494 -0.66549736
  H  5.10020947 -1.97729037 -0.48032909
  H  3.76111369 -2.84833337 -1.26821845
  H  4.46194045 -1.39842622 -2.02987195
  H  2.60127251 -1.44140271  0.23601912
  H -0.13664612  3.33815103  0.63964575
  H -1.50042883  1.55176997  1.64877089
  H -0.03761694 -0.09151491  2.55875840
  H  2.31413635  0.39685694  2.01724566
  H  2.87578575 -3.76413900  2.07812164
  H  1.38736277 -3.97304074  3.05247371
  H  1.46711121 -4.65360365  1.41229114
  H -2.26443301 -1.53911963  0.08023373
  H -4.50212623  2.81384981 -1.29977710
  H -3.55673210  2.70755896 -2.80498819
  H -3.28088577  4.07403702 -1.68628383
