45
opt_min/./Product_4713_opt.xyz
  C  2.28955700 -2.79479800 -1.63490300
  C  1.63223422 -2.02279390 -0.52595721
  C  1.62082689 -2.74680770  0.78374414
  C  1.13279963 -0.81209258 -0.75329581
  C  0.53777645  0.13054644  0.23530839
  C  1.05372264  1.57464228  0.03269258
  C  2.40179969  1.83846802  0.63618371
  C  2.48192983  1.86818804  2.13658846
  C  3.46585825  2.04887175 -0.12328860
  C -0.08420086  2.35248021  0.63775917
  N -1.15696312  1.72303622  0.81062069
  C -1.01981952  0.35212482  0.33656104
  C -1.64378658 -0.62527888  1.32947819
  O -1.40902138 -1.80570133  1.34825112
  O -2.51461341 -0.02084378  2.13134445
  C -3.24660003 -0.83379467  3.03654059
  C -1.92566668  0.22240461 -0.87869002
  C -1.62085638 -0.48870566 -2.02684275
  C -2.53180704 -0.55616330 -3.07106174
  C -3.75987511  0.07125034 -2.98108330
  C -4.08183843  0.76159462 -1.82353503
  C -3.17770238  0.82967072 -0.78077656
  H  2.41887850 -2.18604313 -2.52688230
  H  1.68493749 -3.66522926 -1.89502660
  H  3.26578540 -3.15514903 -1.31331500
  H  2.63001408 -2.76643018  1.20073399
  H  1.29912937 -3.77646477  0.63098701
  H  0.94775533 -2.29126343  1.50025821
  H  1.26475393 -0.39583611 -1.74768131
  H  0.82813849 -0.18621025  1.24244922
  H  1.08026434  1.80482710 -1.04190321
  H  3.41133397  1.41851141  2.47926165
  H  1.64625021  1.34289366  2.59346598
  H  2.46141752  2.90085811  2.49044554
  H  4.44007398  2.23269908  0.30012582
  H  3.41084495  2.04558563 -1.19948742
  H  0.00320384  3.39837310  0.88853855
  H -3.24008787 -0.33434517  4.00420405
  H -4.27171074 -0.93367486  2.67375907
  H -2.78408630 -1.82031373  3.10937540
  H -0.68984354 -1.01849022 -2.12565289
  H -2.26572172 -1.11335460 -3.95795441
  H -4.46589229  0.01365348 -3.79615398
  H -5.04661563  1.23769983 -1.72782868
  H -3.43397254  1.36051273  0.12328067
