37
opt_min/./Product_496_opt.xyz
  C  3.73266400  2.39986500  0.47604000
  O  3.80477104  1.29697087  1.34993230
  C  3.16725803  0.16726849  0.98402239
  C  3.13440801 -1.00703778  1.62323275
 Cl  3.87014159 -1.50743523  3.07379484
  C  2.18058107 -1.88308417  0.82245446
  C  0.76347397 -1.33953516  1.18188700
  C  0.77557101 -0.00391609  0.40705025
  C  2.23075515 -0.02961189 -0.19623725
  O  2.39624917 -1.39929942 -0.48626231
  N -0.20923658 -0.13947672 -0.63699701
  C -1.18536337  0.80301807 -0.87502734
  C -2.39200428  0.47625845 -1.50606767
  C -3.32733383  1.44614372 -1.80517149
  C -3.09077879  2.77447832 -1.49922078
  C -1.89223246  3.11682700 -0.89836822
  C -0.94972440  2.15496782 -0.59404216
  N -0.39965495 -1.53700587 -0.79610645
  C -0.41865813 -2.09276712  0.54802009
  C -0.34999306 -3.61730716  0.53158875
  H  4.26521256  3.20766349  0.97872457
  H  2.69792123  2.70812765  0.29172486
  H  4.21795662  2.19201025 -0.48275312
  H  2.33429059 -2.95249604  0.88635478
  H  0.65627777 -1.25044723  2.26008295
  H  0.61558005  0.87841468  1.02404672
  H  2.36041988  0.57449472 -1.08777962
  H -2.62407637 -0.54599867 -1.76872889
  H -4.25290273  1.15898755 -2.28369192
  H -3.82271292  3.53211423 -1.73429237
  H -1.68018710  4.14950580 -0.66328981
  H -0.01742784  2.46857193 -0.15148964
  H -1.22254433 -1.74222497 -1.34784643
  H -1.32888381 -1.78612792  1.11135781
  H  0.39845480 -3.98466824  1.22923645
  H -0.06046628 -3.94392711 -0.46599100
  H -1.30977346 -4.05195836  0.79198274
