39
opt_min/./Product_4665_opt.xyz
  C -1.15283000  0.81196900 -0.74692100
  O -1.58969451  1.42658028 -1.69893723
  C -2.02718321 -0.04188040  0.07546577
  O -3.38039328  0.03902131 -0.07303641
  C -3.98363585  1.27367600 -0.42567488
  C -1.49923050 -1.01135038  0.88465441
  O -2.15830348 -1.91442924  1.62875790
  C -3.53739744 -1.79957201  1.91133472
  C -0.03814843 -1.18129012  1.06571295
  O  0.38398007 -1.91939845  1.92463333
  C  0.91368578 -0.42694727  0.13618764
  C  1.30189855 -1.42087308 -0.96054036
  C  0.31595743  0.89938569 -0.37166604
  C  1.07648656  1.49966928 -1.55687878
  C  0.54999639  1.76501560  0.88219835
  O  1.82384285  1.39885141  1.36523760
  C  2.10204298  0.06057626  1.01180868
  C  3.45944850 -0.03218594  0.31626086
  O  3.95739687  0.82311102 -0.36430701
  O  4.01287475 -1.21736393  0.56500312
  C  5.28268475 -1.49552588 -0.01536180
  H -5.02219412  1.18162967 -0.11092485
  H -3.51399210  2.11222264  0.09157028
  H -3.93728317  1.44356653 -1.50219458
  H -3.75089266 -2.61539464  2.60028500
  H -3.75836180 -0.84478737  2.39633378
  H -4.14868938 -1.90332829  1.01475348
  H  0.41881345 -1.70700692 -1.52735692
  H  1.72928051 -2.31034352 -0.50502087
  H  2.03080004 -0.98945471 -1.63936039
  H  0.95643085  0.87973023 -2.44098761
  H  0.66090964  2.47811393 -1.78189890
  H  2.12823471  1.61752247 -1.32214184
  H  0.56828151  2.83509449  0.66998325
  H -0.21763484  1.55817020  1.64506700
  H  2.17227385 -0.56488329  1.91433017
  H  5.22336210 -2.47747947 -0.48205209
  H  6.03412934 -1.50376413  0.77408737
  H  5.53089560 -0.73226332 -0.75507276
