46
opt_min/./Product_1281_opt.xyz
  N -1.17677681  1.26059346 -3.07504631
  C -1.08274494  0.74129073 -2.06020937
  C -1.13558603  0.00991163 -0.81702008
  C  0.20828845 -0.18271146 -0.02307412
  C  1.35687625  0.52564254 -0.71703405
  C  1.18138725  1.84049070 -1.14917816
  C  2.17267494  2.50814872 -1.84432388
  C  3.37819534  1.88130514 -2.10713706
  C  3.58096164  0.59214637 -1.65131748
  C  2.58210504 -0.08003956 -0.96700593
  C  0.33786279 -1.72764064 -0.03529144
  C -0.74137953 -2.41720378  0.81316187
  C -2.03406658 -2.21662187  0.00564773
  C -1.54579174 -1.43297780 -1.21026566
  C -0.16175862 -2.04576427 -1.44611349
  C -0.12068152  0.41161304  1.38497832
  C  0.44012466 -0.35073025  2.59342826
  C -0.39394524 -0.24295053  3.83574666
  O  1.52066590 -0.88368125  2.55255471
  C  0.41747844  1.85480951  1.63844481
  C  1.89403555  2.04465915  1.81852315
  O -0.38100107  2.74651150  1.76519797
  O -1.53701435  0.43934575  1.47103382
  C -2.03414424  0.77401220  0.19458037
  C -3.44446271  0.47034812  0.07177194
  N -4.56483166  0.28995893 -0.06077909
  H  0.26778009  2.37340608 -0.92841616
  H  1.99662948  3.51914070 -2.17785570
  H  4.15135507  2.39665134 -2.65592946
  H  4.52259275  0.09578912 -1.83177161
  H  2.78362447 -1.08318091 -0.63089092
  H  1.33085076 -2.07263011  0.23419254
  H -0.49220400 -3.47443147  0.90702050
  H -0.82342079 -2.01085393  1.81592955
  H -2.80017489 -1.69087216  0.57205065
  H -2.45913667 -3.16701137 -0.31653496
  H -2.23402582 -1.44983302 -2.05536212
  H -0.20726225 -3.11334738 -1.65164386
  H  0.40174764 -1.54769225 -2.23454981
  H  0.26051428 -0.23408415  4.70497802
  H -1.04594367 -1.11102175  3.92042443
  H -1.01995707  0.64356419  3.80882320
  H  2.30860520  2.54450043  0.94552142
  H  2.42004342  1.10588345  1.95812660
  H  2.05096501  2.70053685  2.67330903
  H -1.93547551  1.86230149  0.02394556
