36
opt_min/./Product_714_opt.xyz
  F  0.94532600  1.23931700  2.77849300
  C  1.22995008  0.08548316  2.14819426
  F  2.55587957 -0.08289736  2.32544029
  F  0.65841001 -0.89482844  2.85178118
  C  0.83293037  0.10043282  0.67674596
  C  1.61167263 -0.97823560 -0.11377467
  C  2.25627574 -0.09068504 -1.22989015
  C  3.38260191  0.62868524 -0.50223513
  C  2.78233507  1.55184739  0.23612562
  C  1.29884337  1.39451997 -0.06530283
  O  1.32607024  0.95380261 -1.40275286
  C  0.53606781 -1.99652550 -0.42283139
  C  0.85004437 -3.28060968 -1.08527436
  N -0.61575618 -1.70417380  0.00687093
  C -0.66826354 -0.33442973  0.47754844
  C -1.59720929 -0.16501943  1.69793421
  C -1.81109682  1.25438760  2.16096767
  O -2.14051262 -1.10447968  2.20274875
  C -1.44064111  0.24324931 -0.74947355
  O -1.04486046  0.25976753 -1.87589284
  O -2.67571840  0.56645722 -0.37984072
  C -3.61213863  0.88095245 -1.40637182
  H  2.39994647 -1.46875356  0.46107572
  H  2.47672964 -0.58423474 -2.17018089
  H  4.41816342  0.36203702 -0.56270391
  H  3.19466718  2.25619689  0.92946455
  H  0.66090094  2.26432449  0.06358756
  H  1.71090961 -3.75305547 -0.61565606
  H -0.01030684 -3.93967285 -1.02750948
  H  1.09349311 -3.09427220 -2.13047729
  H -1.40457610  1.36742933  3.16446148
  H -2.88257959  1.42784137  2.22760016
  H -1.35689081  1.98641463  1.50192950
  H -3.22013519  0.57573947 -2.37728943
  H -3.79376146  1.95699409 -1.40224192
  H -4.53145675  0.34658537 -1.17474307
