29
opt_min/./Product_4229_opt.xyz
  O -4.17616313 -1.24328874 -0.05706161
  C -3.26579638 -1.37222303 -0.73568736
  O -2.35761308 -1.45066678 -1.42795640
  C -1.67503821  0.59204912  1.52295165
  C -0.51354475 -0.02606664  1.79191067
  C -0.24051072 -0.11618604  4.86675250
  O  0.86080752 -0.42272888  4.88625590
  O -1.34868353  0.16431799  4.86249124
  C  0.58139054  0.76875749  1.17182013
  C  1.50631801 -0.10346958  0.29195124
  N  1.66605101  0.39705761 -0.93793722
  C  2.47988941 -0.25331592 -1.93628712
  O  1.99497121 -1.12411074  0.71467705
  C  1.39395834  1.56600309  2.24547121
  C  2.75452884  2.00552805  1.81333546
  O  0.88129317  1.87099761  3.28224447
  N -0.06514956  1.82802767  0.44690143
  C -1.33399871  1.73397003  0.69181138
  C -2.28533494  2.61909120  0.14300136
  N -3.08590266  3.31899360 -0.28251399
  H -2.66673263  0.32743362  1.83147683
  H -0.35027214 -0.94143043  2.32117619
  H  1.19316669  1.26060824 -1.16287941
  H  2.66211517 -1.27546635 -1.61295345
  H  1.96048307 -0.25870621 -2.89329188
  H  3.43761298  0.25990696 -2.05068469
  H  2.63063679  2.87557086  1.16822772
  H  3.27659099  1.23286241  1.26092950
  H  3.32740506  2.29908534  2.68884898
