45
opt_min/./Product_1313_opt.xyz
  C -2.37033000 -3.61229200  0.76631000
  O -1.62411529 -2.44860422  1.09958382
  C -1.40632636 -1.59896671  0.09851879
  O -1.79894117 -1.78448622 -1.02385870
  C -0.61539752 -0.37663982  0.55105198
  O -0.73151389 -0.13131286  1.93897897
  C -2.01269346  0.20464585  2.42626074
  C  0.95978656 -0.45032029  0.32088799
  O  1.66301059 -0.94042415  1.39194814
  C  1.61041189 -2.34001262  1.61723314
  O  1.34127980 -1.17930985 -0.81334640
  C  0.83090406 -0.84116775 -2.09406928
  C  1.27304473  1.09937434  0.16090494
  C  1.51993751  1.80509154  1.50991601
  C  2.51046883  1.28985548 -0.71544975
  O  2.53225766  1.82874965 -1.78763144
  O  3.57037652  0.77236315 -0.10737394
  C  4.80775668  0.82771892 -0.80572195
  N  0.08964954  1.64576836 -0.43075476
  C -0.90541969  0.88430954 -0.25399674
  C -2.27828216  1.24719599 -0.71167518
  O -2.25775713  2.33914747 -1.45746228
  C -3.49051832  2.79988882 -1.99341999
  O -3.26648486  0.62362998 -0.41238735
  H -2.46915591 -4.18156693  1.68724680
  H -3.34969801 -3.33150621  0.37496199
  H -1.84311280 -4.19611725  0.00933744
  H -1.87728928  0.32189940  3.50033045
  H -2.38108982  1.14391998  2.00356882
  H -2.74907739 -0.57928927  2.23649329
  H  2.24452102 -2.50953060  2.48535411
  H  0.59356903 -2.66578925  1.84005132
  H  2.00180727 -2.89346240  0.76137805
  H -0.25844250 -0.84189568 -2.12443426
  H  1.20797506 -1.62372884 -2.75068160
  H  1.19403477  0.12884308 -2.44010684
  H  2.34506918  2.50661441  1.42318847
  H  0.62802892  2.35583255  1.79784523
  H  1.74623011  1.06351305  2.26768411
  H  5.36466351  1.71362437 -0.49333596
  H  5.36112521 -0.07088622 -0.54023226
  H  4.63516731  0.87032304 -1.88236110
  H -3.59134152  3.85638737 -1.74624220
  H -3.46157244  2.67915846 -3.07710230
  H -4.32406973  2.23137569 -1.57608496
