41
opt_min/./Product_4502_opt.xyz
  C -0.10946887  1.96555193  0.71639016
  C -0.50541463  0.94859178 -0.36982846
  C -0.32835356  1.58765148 -1.74263299
  C -1.94156654  0.34187760 -0.12473036
  C -2.72861792  0.92569927  1.05486613
  C -2.87829338  0.37260991 -1.33611816
  C -1.56556039 -1.13337019  0.26641045
  C -2.54040889 -1.86850919  1.00550855
  N -3.31475900 -2.46684024  1.59762598
  N -0.26016299 -0.95231549  0.89460654
  C  0.30082289 -2.12246797  1.53759757
  C  0.37177306 -0.34756784 -0.24904869
  C  1.87779686 -0.30941111 -0.28818047
  C  2.52218119 -1.52704914 -0.52307756
  C  3.90000248 -1.60656375 -0.59095062
  C  4.66740818 -0.46684965 -0.42764720
  C  4.03979038  0.74228672 -0.20662186
  C  2.65732218  0.82895704 -0.13586512
  O -0.01647398 -1.20563982 -1.39446764
  C -1.18041933 -1.76633137 -1.09332337
  O -1.77133436 -2.57196634 -1.74548426
  H -0.97049710  2.44732483  1.15950766
  H  0.49934451  2.75636520  0.28052139
  H  0.44792572  1.48108259  1.51515857
  H -0.95320422  2.47504495 -1.82883503
  H -0.57254751  0.88952591 -2.53984877
  H  0.71261339  1.87540887 -1.88389907
  H -2.20229258  0.78817921  1.99823331
  H -3.68048548  0.40067287  1.11960746
  H -2.93785966  1.98325000  0.89620489
  H -3.23923766  1.38855436 -1.49553268
  H -2.40979100  0.03589824 -2.25597167
  H -3.73317200 -0.27457846 -1.14319064
  H -0.28341123 -2.29947936  2.44104559
  H  0.26773576 -3.02696125  0.91245797
  H  1.33588188 -1.90979070  1.80551680
  H  1.92494294 -2.41142179 -0.67619199
  H  4.36150321 -2.56512137 -0.77547453
  H  5.74381832 -0.52786850 -0.48208442
  H  4.61974312  1.64662550 -0.08729549
  H  2.22741161  1.79644660  0.03144475
