45
opt_min/./Product_1285_opt.xyz
  C  5.33414589 -0.11080715  2.01316331
  O  4.25920920 -0.59858487  1.21971316
  C  3.46449873  0.29987686  0.62998734
  O  3.57625345  1.49471393  0.72652332
  C  2.43127120 -0.36589972 -0.18154747
  C  2.14265703 -1.67531650 -0.30809690
  C  2.81765595 -2.80998427  0.14310668
  N  3.37230018 -3.76813678  0.44579697
  C  0.87313249 -1.69787113 -1.16130275
  C -0.19616996 -1.22775270 -0.12003879
  C  0.06131457  0.28821495 -0.14164145
  C  1.35822400  0.35781670 -0.97808789
  O  1.07701607 -0.58984221 -1.99922048
  C -1.18513401  0.88607082 -0.85226308
  C -1.65928112  2.11698791 -0.04383167
  N -2.90172086  2.01894422  0.43528315
  C -3.51091149  3.06285142  1.22235692
  O -0.92621348  3.07437909  0.10844634
  C -0.99591399  1.35946071 -2.29741266
  O -2.17722503 -0.13894359 -0.85863590
  C -1.69988575 -1.38753651 -0.39809205
  C -2.07312166 -2.48456592 -1.40353643
  C -2.41469837 -1.67148504  0.94689547
  C -2.13936058 -3.00453004  1.58923980
  O -3.16035789 -0.85980469  1.42691975
  H  5.27430968 -0.59657585  2.98712158
  H  6.27211906 -0.37768316  1.52482401
  H  5.25756987  0.97284314  2.11970121
  H  0.65929199 -2.59441106 -1.73401128
  H  0.05244086 -1.68584669  0.84292781
  H  0.14081783  0.72536651  0.85264280
  H  1.63404524  1.33230710 -1.36180729
  H -3.42251372  1.16591395  0.28643898
  H -3.37063658  2.88018600  2.29132483
  H -4.57657258  3.11273099  1.00674038
  H -3.03330921  4.00879423  0.96547342
  H -0.72543451  0.52890863 -2.94354554
  H -0.22364550  2.12095323 -2.34576937
  H -1.93819420  1.78641008 -2.63386618
  H -1.99126104 -2.07875110 -2.40977849
  H -3.09965438 -2.80575475 -1.24640082
  H -1.41227911 -3.34164291 -1.31031079
  H -1.40977963 -3.59517222  1.04656553
  H -3.07735323 -3.55478887  1.65444021
  H -1.79786340 -2.83940434  2.61021670
