46
opt_min/./Product_5171_opt.xyz
  C  2.10304600  0.60672300 -1.25934600
  C  0.63688134  0.29129650 -1.02140388
  C  0.28609445 -1.19434617 -0.85348945
  N  1.26000313 -1.89935667 -0.04283480
  C  0.82344655 -3.01873174  0.74785179
  C  2.53951813 -1.45526725  0.04951362
  C  3.01604673 -0.32971228 -0.51456897
  C  4.42461463  0.07608273 -0.50413033
  N  5.31207297 -0.68745738  0.22169878
  O  4.82839817  1.02420191 -1.15538673
  C -1.02852349 -1.03819743 -0.07744968
  C -2.08789004 -2.05067101 -0.09664890
  C -2.64839629 -2.40781179 -1.32094759
  C -3.65505307 -3.35369166 -1.37846534
  C -4.10470264 -3.96090665 -0.21768645
  C -3.55639609 -3.60281855  1.00259090
  C -2.55660206 -2.64948415  1.06627732
  N -1.12610110  0.05795288  0.54507903
  C  0.04565476  0.87847382  0.28458257
  C -0.29312609  2.34041370  0.22740272
  C -1.15170740  2.83787167 -0.74422854
  C -1.45599552  4.18596521 -0.79116923
  C -0.90737939  5.05726007  0.13392055
  C -0.05605997  4.56994534  1.11080829
  C  0.24394595  3.22022352  1.15814302
  H  2.32737553  0.54760948 -2.32888722
  H  2.31208896  1.63262064 -0.94812950
  H  0.03587712  0.67646306 -1.85206604
  H  0.17278333 -1.71623025 -1.81356434
  H  1.66642842 -3.68419502  0.93664132
  H  0.40550082 -2.70312998  1.71102456
  H  0.05939989 -3.58090561  0.20781796
  H  3.18561647 -2.12696766  0.59915216
  H  4.98902779 -1.26218654  0.98072978
  H  6.22523189 -0.27745515  0.34384023
  H -2.29910507 -1.93255718 -2.22667733
  H -4.09044945 -3.61641344 -2.33107036
  H -4.88303177 -4.70763651 -0.26490204
  H -3.90923245 -4.06730200  1.91187409
  H -2.14300505 -2.35598375  2.01952895
  H  0.75681658  0.71802408  1.10678734
  H -1.59852481  2.16734678 -1.46367475
  H -2.12686350  4.55826227 -1.55193302
  H -1.14632603  6.10945929  0.09811701
  H  0.37686261  5.24140632  1.83721400
  H  0.91025021  2.84618936  1.92242057
