64
opt_min/./Product_2817_opt.xyz
  C -4.26848361  0.45603879  2.91135627
  O -3.20005829 -0.17486615  2.21174651
  C -3.43094771 -0.52490343  0.95825412
  O -4.48876737 -0.40945696  0.39593806
  C -2.17622276 -1.16993289  0.32769765
  C -2.62031149 -1.64980844 -1.05647689
  O -3.17642601 -2.68260200 -1.28866362
  O -2.35225091 -0.72761552 -1.98684443
  C -2.72076872 -1.06229566 -3.32372668
  C -1.08652118 -0.13311958  0.27283884
  C  0.26324347 -0.27160827  0.29048512
  C  1.18397765 -1.31220463 -0.31411569
  C  0.77533219 -1.29097003 -1.71145818
  N  0.41153632 -1.18863984 -2.79291565
  C  2.62759750 -0.80775645 -0.26580406
  C  3.52940957 -1.26451920  0.68548758
  C  4.82129793 -0.77002218  0.71756516
  C  5.23122018  0.18717610 -0.19290208
  C  4.33697283  0.65049061 -1.14108730
  C  3.04526874  0.15691129 -1.17567805
  C  1.06282822 -2.74275809  0.24790971
  C -0.12697961 -3.54978949 -0.28376338
  C -1.31014477 -3.64654638  0.67354433
  C -1.80842502 -2.33954684  1.28794160
  N  0.81200983  1.01724986  0.62998362
  C  1.57542382  1.18502347  1.76937644
  C  1.79867315  2.62672200  2.13140610
  O  2.06480796  0.24618301  2.35268930
  N -0.17320554  1.97588236  0.32922545
  C -0.04537101  2.43460144 -1.05457352
  N -1.38028313  1.22285115  0.50670961
  C -2.57776511  1.98009471  0.35141908
  N -3.18526691  1.81186360 -0.83963884
  C -4.51156851  2.33171975 -1.08479754
  O -2.91445071  2.76930346  1.19995637
  H -5.16446467 -0.16622191  2.87486420
  H -3.91975196  0.57880623  3.93273525
  H -4.47910793  1.43038773  2.46724722
  H -2.13234000 -1.91456836 -3.66334584
  H -2.49542348 -0.18730753 -3.92691769
  H -3.78229789 -1.31102684 -3.36655123
  H  3.23255514 -1.98817217  1.42542512
  H  5.50751541 -1.13248605  1.46799469
  H  6.23930857  0.57307512 -0.16187629
  H  4.64110413  1.40046426 -1.85663045
  H  2.35816077  0.52995893 -1.92188195
  H  1.02550383 -2.69254341  1.33567823
  H  1.98239981 -3.26030027 -0.03390627
  H -0.45942947 -3.14926855 -1.24245342
  H  0.20775162 -4.57207024 -0.47440406
  H -2.13379542 -4.12623696  0.14477227
  H -1.03398394 -4.29459056  1.50952020
  H -1.08184253 -1.94797087  2.00120148
  H -2.70575388 -2.60023168  1.85377725
  H  2.22754992  2.67723002  3.12744606
  H  0.86126219  3.17433926  2.08699794
  H  2.49439083  3.06940645  1.42139576
  H  0.94858148  2.86232348 -1.16176607
  H -0.79068574  3.20886236 -1.22234372
  H -0.17815676  1.62776173 -1.78429065
  H -2.88685603  1.04281802 -1.42629701
  H -4.59366237  2.62671824 -2.12955272
  H -5.26814007  1.57740748 -0.85594989
  H -4.66013368  3.19805968 -0.44275475
