43
opt_min/./Product_1010_opt.xyz
  C -1.16809400  1.37129200  1.59777200
  C -0.98820490  0.64342300  0.27116969
  C -0.09454340 -0.64218593  0.24883180
  C  0.38329668 -1.15827741  1.59885369
  F -0.59263887 -1.43076398  2.48380976
  F  1.17523732 -0.30116988  2.27101444
  F  1.08397508 -2.29291021  1.47885303
  C -0.99341399 -1.67299440 -0.49140774
  C -2.18223997 -2.14020995  0.35722087
  C -3.00917493 -0.85294869  0.53197512
  C -2.29573504  0.14380950 -0.39217128
  C -1.74357029 -0.77834223 -1.48277330
  C  1.14132218 -0.18958005 -0.63348653
  C  1.68901489 -1.18941563 -1.65752575
  C  2.42813219 -0.54070202 -2.79238920
  O  1.58468317 -2.38167235 -1.53469860
  C  2.37420018  0.20504774  0.23049643
  O  2.55849578  1.31926750  0.62988984
  O  3.18591347 -0.82498620  0.39823147
  C  4.34745406 -0.62536587  1.19746290
  N  0.76556151  1.05394973 -1.25295301
  C -0.27608702  1.53851318 -0.72979488
  C -0.80450511  2.86339717 -1.13268337
  H -0.24444608  1.87955526  1.87222563
  H -1.95901267  2.11212047  1.49709373
  H -1.43898864  0.70172820  2.40814573
  H -0.42659971 -2.50098135 -0.90764313
  H -2.73503439 -2.87301286 -0.23345268
  H -1.92152438 -2.62435854  1.29173584
  H -4.04168628 -0.99653518  0.21337333
  H -3.02714997 -0.51193233  1.56434267
  H -2.93272957  0.95985316 -0.72869228
  H -1.10630787 -0.27877068 -2.20878726
  H -2.52585459 -1.31983662 -2.01027319
  H  3.47602740 -0.45724111 -2.50595498
  H  2.37211361 -1.17509012 -3.67364437
  H  2.04257485  0.45408327 -2.99082614
  H  4.57184989  0.43999325  1.27119079
  H  5.16076679 -1.16338095  0.71449241
  H  4.16568637 -1.03246675  2.19270013
  H -0.06272024  3.37399567 -1.73982008
  H -1.71852820  2.74739854 -1.71158929
  H -1.02349350  3.46087423 -0.25124380
