49
opt_min/./Product_5651_opt.xyz
  C -0.03180900 -1.50497400  0.50918000
  O  0.88608707 -2.28846504  0.38582866
  C -0.00342487 -0.17514103 -0.23760831
  O  0.07796401 -0.28767722 -1.63198443
  C  0.80791075 -1.36386348 -2.19352643
  C -1.19326156  0.77654235  0.12099366
  O -1.30903487  1.86127737 -0.76646471
  C -1.94050265  1.69830186 -2.02997889
  C -2.49304370  0.02898445  0.41514171
  O -3.57591707  0.43427939  0.04709498
  C -2.32830477 -1.11659435  1.32147004
  C -3.53139829 -1.47242324  2.13042449
  C -1.16223568 -1.78801720  1.40921425
  C -0.96815003 -2.92324676  2.36023067
  N -0.78593979  1.33170218  1.40654666
  C -1.15507645  2.61851374  1.85888221
  N -2.42586965  2.96064642  1.54277464
  C -2.95256320  4.24487009  1.94175376
  O -0.43226618  3.25509907  2.58326968
  O  0.56505873  0.99750864  1.66107235
  C  1.15269985  0.67989708  0.42090139
  C  2.46825789 -0.00832515  0.60742408
  C  2.74916980 -0.71255224  1.77121284
  C  3.96514248 -1.35797968  1.91232314
  C  4.90460306 -1.30698481  0.89796605
  C  4.63387665 -0.59292843 -0.25655735
  C  3.42428176  0.06190684 -0.40027883
  H  1.79346473 -1.47287131 -1.74176017
  H  0.91224447 -1.10568578 -3.24732255
  H  0.26147397 -2.30743439 -2.09930808
  H -2.96548416  1.33980242 -1.92604438
  H -1.37520284  1.02364179 -2.67178769
  H -1.94367710  2.69963444 -2.45650952
  H -3.41992431 -1.08320817  3.14366288
  H -4.41421677 -1.01858072  1.68439346
  H -3.65895801 -2.55040858  2.19627465
  H -1.15312313 -2.58904298  3.37990610
  H -1.66266401 -3.73511331  2.14095392
  H  0.04726734 -3.30290169  2.27509629
  H -2.92743846  2.47530836  0.81722741
  H -3.94702037  4.11898970  2.37148656
  H -3.01218432  4.93121106  1.09314450
  H -2.27924480  4.66017976  2.69023056
  H  1.26656292  1.57523757 -0.21298542
  H  2.01876251 -0.73720851  2.56432840
  H  4.17793352 -1.90390613  2.81968334
  H  5.85019026 -1.81769006  1.00837048
  H  5.37055721 -0.54033310 -1.04488351
  H  3.21553298  0.62985067 -1.29599182
