45
opt_min/./Product_1557_opt.xyz
  N  1.12461533 -0.31307996  3.11181154
  C  0.76620947 -0.49389190  2.04173966
  C  0.34017370 -0.68909861  0.67147673
  C -0.93346261 -1.58238493  0.54731211
 Cl -1.54660498 -2.13035658  2.16131909
  C -0.45687844 -2.76629614 -0.30639169
  C  0.52486803 -3.62134399  0.50291242
  C  1.76503438 -2.71564528  0.63748598
  C  1.37676206 -1.46406716 -0.16692888
  C  0.50656570 -2.07135617 -1.27002583
  N -1.91583045 -0.70750845 -0.03337109
  C -2.96888525 -1.19113010 -0.74631632
  O -3.71989214 -0.24704543 -1.34913654
  C -4.84301652 -0.74688428 -2.06372340
  O -3.21635451 -2.37143250 -0.82742362
  N -1.56385755  0.61177659  0.38697833
  C -2.38091224  1.76184189  0.05339935
  C -0.12501460  0.69814854  0.12934045
  C  0.06391691  0.90051110 -1.30141545
  N  0.03944081  1.16533995 -2.41522312
  C  0.55839364  1.84817719  0.84641265
  C  1.78197601  2.30774682  0.37730118
  C  2.43625809  3.33163191  1.03933102
  C  1.87537896  3.89691025  2.17008707
  C  0.66086249  3.43179606  2.64372871
  C  0.00164937  2.40790002  1.98842287
  H -1.28438877 -3.31721983 -0.74076282
  H  0.75865743 -4.51681819 -0.07392321
  H  0.12930398 -3.93902090  1.46498633
  H  1.97835124 -2.46941080  1.67711769
  H  2.65661364 -3.18482458  0.22031299
  H  2.22151205 -0.84964357 -0.47401497
  H  0.02151039 -1.34560091 -1.91623960
  H  1.05442122 -2.78116145 -1.88651477
  H -5.34608159  0.12740332 -2.46762000
  H -4.51493073 -1.41123711 -2.86517159
  H -5.50142975 -1.30125716 -1.39285721
  H -3.08452286  1.55222762 -0.74605482
  H -1.74046267  2.58422592 -0.26430328
  H -2.93676380  2.06325194  0.94452055
  H  2.22057664  1.87154479 -0.50925959
  H  3.38677885  3.68384099  0.66688532
  H  2.38766252  4.69540479  2.68637478
  H  0.22458352  3.86218353  3.53282805
  H -0.93009037  2.02738576  2.37212830
