48
opt_min/./Product_2317_opt.xyz
  C -3.60304300 -0.50202100 -2.39938400
  N -2.55671825 -0.01208403 -1.53260777
  C -2.80634799  0.43907359 -0.29373642
  O -3.91062052  0.54258246  0.18177411
  C -1.53166124  0.94867798  0.43992775
 Cl -1.49690050  2.63109627 -0.21739327
  C -0.27699882  0.24843510  0.03837401
  C  0.10615238 -1.03823889  0.11614938
  C -0.51597112 -2.23794190  0.76928993
  F -1.45357875 -2.78668078 -0.06644788
  F  0.43580027 -3.20677110  0.89664707
  C -1.10828118 -2.02656321  2.16893360
  C -2.50531039 -1.40437343  2.16314579
  C -2.56773066  0.03574255  2.65744851
  C -1.62829030  1.04071885  1.97545813
  C  1.43627027 -1.12167003 -0.63467602
  C  2.35759847 -2.32595884 -0.56582602
  O  2.17946995 -3.34188777 -1.16819734
  O  3.41009890 -2.05421807  0.20190359
  C  4.36233244 -3.10191803  0.35649603
  N  1.97935572  0.17368659 -0.26512847
  C  0.86777783  0.93260805 -0.73037083
  C  1.10717321  2.43527836 -0.62161466
  O  1.07542857  3.02004004 -1.80416367
  C  1.31469920  4.42365042 -1.83462516
  O  1.43406745  2.94166820  0.41685576
  O  0.65834977  0.47801965 -2.12563400
  C  0.97700514 -0.82076337 -2.12048131
  O  0.92643863 -1.55939027 -3.04486619
  H -3.55562472 -0.00091741 -3.36679312
  H -4.55873945 -0.29320442 -1.92238293
  H -3.49520564 -1.57857879 -2.54764408
  H -1.62819915  0.02070922 -1.91989051
  H -1.15375447 -3.03106107  2.59530554
  H -0.39323605 -1.44333853  2.74941852
  H -3.15017156 -1.98784802  2.82473080
  H -2.94088516 -1.48962131  1.17003953
  H -2.32439968  0.05364387  3.72261859
  H -3.59492212  0.37549859  2.53232788
  H -0.61623474  0.93327571  2.37308733
  H -1.97996361  2.03668246  2.24295498
  H  3.85701594 -4.06860199  0.36435822
  H  5.07770733 -3.07738233 -0.46783793
  H  4.86959316 -2.92111633  1.30222787
  H  2.87632570  0.40498844 -0.68086820
  H  1.95533291  4.71506544 -1.00018812
  H  1.79146749  4.64153117 -2.78821177
  H  0.36042776  4.94902034 -1.76348228
