41
opt_min/./Product_1516_opt.xyz
  C  5.82881300  0.46320200 -0.51977900
  N  4.46451069  0.85543691 -0.27019208
  C  3.52378315 -0.03266228  0.12228788
  O  3.73530556 -1.21845041  0.27697740
  C  2.18630806  0.55458431  0.36129352
  C  1.67434128  1.78254406  0.23636936
  F  2.23887969  2.90802941 -0.19995267
  C  0.20569537  1.69043159  0.60715739
  C -0.44496698  0.98483500 -0.62192112
  C  0.11696992 -0.44707079 -0.45676500
  C  0.98334373 -0.26486710  0.82371558
  O  0.24138323  0.67379944  1.57825893
  C -1.18278678 -1.25104239 -0.23509872
  C -1.07455133 -2.64647800  0.32737060
  O -0.06577044 -3.29096159  0.36584369
  O -2.27112931 -3.06610014  0.73450610
  C -2.33170220 -4.39362071  1.24798761
  N -1.99752678 -0.30474192  0.51275002
  C -1.95215470  0.73002562 -0.46029121
  C -2.85680159  1.93356561 -0.23165484
  O -4.08236907  1.53201456  0.04889195
  C -5.06250811  2.53931182  0.29393185
  O -2.47623770  3.07009992 -0.28109854
  O -2.35316830  0.07299366 -1.72350023
  C -1.86811764 -1.16963069 -1.64416065
  O -1.94684889 -2.00390819 -2.48758350
  H  6.11202290  0.68777946 -1.54897748
  H  5.89482590 -0.60819296 -0.34542746
  H  6.51091358  0.98063500  0.15724833
  H  4.21633398  1.82121004 -0.40503632
  H -0.28430959  2.59580090  0.95235501
  H -0.22735966  1.49019709 -1.55976142
  H  0.69833567 -0.84321465 -1.28558190
  H  1.20939555 -1.17290316  1.37204188
  H -1.72306460 -5.06274670  0.63884206
  H -3.37744763 -4.68517685  1.21723991
  H -1.95958801 -4.41383329  2.27320240
  H -2.92567367 -0.64220758  0.74129947
  H -5.76931974  2.12225321  1.00678947
  H -5.56894647  2.78476245 -0.63947158
  H -4.59018594  3.43686624  0.69540912
