42
opt_min/./Product_4547_opt.xyz
  C -1.29242800 -2.74444300 -1.13627200
  C -0.64298535 -1.57126742 -0.39682386
  C  0.71642044 -1.10357419 -0.93895269
  C  0.81079398 -0.96291658 -2.45599582
  C  0.82128155  0.26443787 -0.22399353
  C  1.95980284  1.15688338 -0.74157469
  N  1.64174200  2.46130018 -0.83041028
  C  2.63329494  3.47398924 -1.10966560
  O  3.05588298  0.71208317 -1.00389702
  C  1.13546594  0.08013570  1.26387530
  O  0.53592877  0.63522823  2.14505378
  O  2.16841121 -0.73442777  1.44792384
  C  2.58732328 -0.96345731  2.78834751
  N -0.51106319  0.84780006 -0.31472364
  C -1.47506175 -0.25520638 -0.27808351
  C -2.56292767 -0.04692744 -1.33377188
  C -2.18388917 -0.23808130  1.08772578
  O -2.51448300 -1.22784335  1.68794152
  O -2.41669578  1.00629657  1.47620889
  C -2.98919737  1.20440298  2.76249857
  H -0.74527515 -2.99433472 -2.04041914
  H -2.31832755 -2.52823209 -1.41487025
  H -1.30869244 -3.62270351 -0.49751397
  H -0.46652248 -1.89247772  0.63543562
  H  1.51637202 -1.76335312 -0.59886515
  H  1.67848464 -0.36320555 -2.71702775
  H  0.93862151 -1.93859482 -2.91801139
  H -0.07924492 -0.50006278 -2.87507302
  H  0.70354080  2.75672444 -0.62007777
  H  3.41914200  3.02309995 -1.71582749
  H  3.08042651  3.85580043 -0.18801003
  H  2.17461025  4.29635801 -1.65630709
  H  3.66579662 -1.10327846  2.76191061
  H  2.09876620 -1.86133849  3.17207776
  H  2.31394556 -0.11278918  3.41481293
  H -0.62437988  1.36782294 -1.17845902
  H -2.90978126  0.98433694 -1.28152984
  H -3.41846108 -0.69373814 -1.15086744
  H -2.17888719 -0.24197595 -2.33273261
  H -3.09523051  0.24506425  3.27149263
  H -3.96695899  1.67358849  2.64228153
  H -2.32219778  1.85791359  3.32205175
