41
opt_min/./Product_601_opt.xyz
  F -2.04832600  0.48481300  1.54267200
  C -1.13131155  0.63919712  0.52683198
  C  0.30318775  0.43486086  1.02190428
  C  0.98153875  1.67055617  0.35102405
  C  0.60169439  2.77347267  1.32573051
  C -0.68060950  3.01328897  1.09110731
  C -1.06626507  2.07912464 -0.04206204
  O  0.15759035  1.97846706 -0.75882024
  C  0.64018835 -1.02647989  0.66164732
  C  0.40629392 -1.93773575  1.88759893
  C  2.06352806 -1.13544466  0.15513599
  C  3.12278132 -1.13474924  1.05611999
  C  4.42801151 -1.18089346  0.59972333
  C  4.69316915 -1.22685192 -0.75788619
  C  3.64242687 -1.22170435 -1.65914243
  C  2.33682162 -1.17104206 -1.20477892
  O -0.28168353 -1.40480193 -0.35940791
  C -1.33216095 -0.46976135 -0.55193475
  C -2.74229908 -1.08416887 -0.39006418
  C -2.82137467 -2.56663992 -0.17985401
  O -3.70957291 -0.37722997 -0.50482116
  C -1.28934777 -0.01799840 -2.02201430
  H  0.36791168  0.57544532  2.10277530
  H  2.01778854  1.56122833  0.04815489
  H  1.26867960  3.22582939  2.03090028
  H -1.37169663  3.64901302  1.60614038
  H -1.89971770  2.38392500 -0.66425133
  H  1.09382505 -2.78016419  1.86860178
  H -0.61017761 -2.32128619  1.85354442
  H  0.53032578 -1.40297058  2.82521965
  H  2.93269861 -1.08812111  2.11789505
  H  5.24140417 -1.18145158  1.31078294
  H  5.71248825 -1.26624212 -1.11096013
  H  3.83954025 -1.25534548 -2.72063887
  H  1.51603788 -1.18026307 -1.90456338
  H -1.86377708 -2.97682959  0.12134492
  H -3.11206926 -3.02222555 -1.12663971
  H -3.59778495 -2.78824534  0.54905649
  H -1.51690087 -0.88488397 -2.64012484
  H -0.30263276  0.35597528 -2.27616135
  H -2.02837817  0.75459143 -2.20974579
