46
opt_min/./Product_5430_opt.xyz
  C  1.02250382 -0.07638314 -1.57588005
  O  0.71014229 -0.17318950 -2.74523269
  C  0.06183326  0.59170987 -0.57186364
  O  0.18721937  1.97206088 -0.55302335
  C -0.04103762  2.65238837 -1.77721116
  C  0.25588951  0.02732407  0.85900330
  O -0.53218391  0.84196668  1.69462279
  C -0.88793872  0.29545408  2.95334910
  C  1.72793709  0.05239128  1.26219362
  O  2.08539891  0.37994086  2.37245561
  C  2.67982559 -0.38399461  0.22770226
  C  4.06220595 -0.69387814  0.70181247
  C  2.34068418 -0.47965152 -1.07728799
  C  3.30990861 -0.95338792 -2.11099701
  N -0.30769926 -1.31453153  0.77030425
  C  0.46216559 -2.48708474  1.13992214
  N -0.91839026 -1.43303541 -0.54065320
  C -1.95889861 -2.44932809 -0.58169502
  C -1.31968762 -0.06896303 -0.86925220
  C -1.80524696  0.04446709 -2.22311173
  N -2.32820255  0.12775577 -3.23751187
  C -2.42036308  0.50825596  0.05469072
  O -3.05282907 -0.14356424  0.83885239
  O -2.58634465  1.79613209 -0.19704898
  C -3.50990636  2.51368804  0.61219116
  H -1.06603197  2.50360991 -2.12423115
  H  0.12170209  3.70349859 -1.54778814
  H  0.65234796  2.33088474 -2.55929582
  H -1.46557516 -0.62425118  2.82375225
  H -1.50728155  1.05577257  3.42447918
  H -0.00358675  0.10500377  3.56402685
  H  4.31493381 -1.73315429  0.49176870
  H  4.13085776 -0.51447822  1.77234737
  H  4.79010950 -0.06615554  0.18855249
  H  3.78105353 -1.88639889 -1.80678015
  H  2.78975113 -1.09463653 -3.05573602
  H  4.09844393 -0.21334563 -2.25385518
  H  1.31253858 -2.21124086  1.75767568
  H -0.17858171 -3.15794986  1.71650413
  H  0.82823522 -3.01531715  0.25437346
  H -2.42367911 -2.58928006  0.39557549
  H -2.72722453 -2.15016793 -1.29262472
  H -1.51556707 -3.38740125 -0.92132793
  H -3.92064009  1.85594354  1.38034355
  H -2.97184987  3.34417881  1.06804421
  H -4.30921388  2.88785990 -0.02928577
