46
opt_min/./Product_1090_opt.xyz
  C  0.19099302  1.00046671  3.01845800
  O -0.45358694  1.26835178  1.78631200
  C -0.57385911  0.15693850  0.95257704
  C -1.63032969  0.38263557 -0.15784026
  O -2.87265091  0.15944353  0.43979053
  C -4.00749368  0.15385653 -0.40882598
  O -1.56263956  1.61500507 -0.81808672
  C -1.85725716  2.77809217 -0.05429178
  C -1.18695695 -0.68696254 -1.21202021
  C -1.72687336 -0.43501224 -2.63031510
  C -1.61299920 -1.99714144 -0.74249550
  N -1.88692983 -3.05053620 -0.39215477
  N  0.27175280 -0.57015747 -1.16993161
  C  1.01787802 -1.60140011 -1.86321438
  C  0.71457893 -0.23615985  0.18590903
  C  1.66678025  0.99341656  0.14526634
  N  1.41171205  1.82023476 -0.87488532
  C  2.13259839  3.05167563 -1.07233305
  O  2.53351993  1.16220521  0.97491948
  C  1.50725637 -1.37911663  0.84566649
  O  2.60281276 -1.70945901  0.48558130
  O  0.84195112 -1.96283311  1.83926042
  C  1.48579432 -3.04580763  2.50670251
  H  0.06867284  1.90159723  3.61622072
  H -0.28237920  0.15235915  3.52340906
  H  1.25507470  0.79904181  2.87331061
  H -0.93929992 -0.70692146  1.53010238
  H -4.86582460  0.19314079  0.25938806
  H -4.05214638 -0.76495601 -1.00084546
  H -4.01798579  1.02207001 -1.07234183
  H -2.63942625  2.57454878  0.67750914
  H -2.19997662  3.52270940 -0.77330122
  H -0.96598630  3.13297179  0.46372565
  H -0.90274615 -0.40640825 -3.33658908
  H -2.23314142  0.52420169 -2.66929193
  H -2.41681915 -1.22107879 -2.93065745
  H  0.86234403 -2.60616892 -1.45089076
  H  0.72558733 -1.61016143 -2.91238145
  H  2.07539580 -1.35632946 -1.79957798
  H  0.61135673  1.61851206 -1.45585679
  H  3.11660686  2.94608856 -0.61608354
  H  2.23570028  3.24972956 -2.13704695
  H  1.61923304  3.89293818 -0.59721132
  H  2.56696540 -2.96529633  2.38436505
  H  1.20953879 -2.97918387  3.55680220
  H  1.13020730 -3.98481475  2.08070019
