35
opt_min/./Product_1040_opt.xyz
  C  5.41966902 -1.16206790 -0.40298595
  O  4.07152382 -0.79135339 -0.14597627
  C  3.78010342  0.50766199 -0.32196725
  O  4.57832283  1.33397785 -0.68231234
  C  2.37202779  0.77208445 -0.02205767
  C  1.67147473  1.91606280 -0.12147524
 Cl  2.12633377  3.42346254 -0.69582168
  C  0.24834076  1.56293185  0.30093595
  C -0.31404647  0.76658937 -0.90431779
  C  0.46699513 -0.56526491 -0.74179447
  C  1.35389855 -0.24425079  0.47715606
  O  0.48119153  0.55094235  1.26117664
  C -0.65076808 -1.58410378 -0.46438079
  C -0.35082615 -2.93141333 -0.88991436
  N -0.10624865 -4.00142918 -1.20277148
  O -1.79042713 -1.07218280 -1.13662734
  C -1.80390635  0.31531547 -0.84447815
  C -2.51897025  0.61552562  0.52034050
  N -3.28832736 -0.39462475  0.94177119
  C -4.10943619 -0.27500468  2.12575823
  O -2.40865054  1.68044451  1.08011025
  C -2.61319199  1.03253037 -1.81196430
  N -3.27055722  1.60917175 -2.54583605
  H  5.68453299 -0.93191973 -1.43706799
  H  5.47821801 -2.23208387 -0.22101649
  H  6.09401470 -0.61872529  0.26174325
  H -0.37139965  2.35413464  0.70826481
  H -0.11053115  1.24068992 -1.86474421
  H  1.03082783 -0.82237928 -1.63993994
  H  1.73922133 -1.09124411  1.03596429
  H -0.83526684 -1.59423081  0.62822903
  H -3.35700409 -1.24597611  0.40294947
  H -4.21684426 -1.24952070  2.59649750
  H -3.62436213  0.41991061  2.81077511
  H -5.09685041  0.11881850  1.87260951
