49
opt_min/./Product_5103_opt.xyz
  C -1.17457924  2.45907012 -1.15681540
  C -0.72602717  1.20088555 -0.41335181
  C -0.61778922  0.06751693 -1.43413998
  C  0.61449630  1.45672643  0.33563009
  C  1.76190449  0.58358752 -0.06447886
  C  2.89002705  1.07364934 -0.57497429
  C  4.05694078  0.29912423 -0.96493597
  C  4.02795211 -1.18709817 -0.75709723
  C  5.11763783  0.90387060 -1.49780566
  N  0.28003628  1.25528219  1.74797369
  C  0.75181956  2.10793026  2.69789196
  C  0.13354311  1.97866809  4.06730361
  O  1.65906074  2.87162890  2.44101983
  N -0.86996806  0.47484480  1.91464502
  C -0.58617067 -0.90202535  2.24974946
  C -1.71972370  0.86229861  0.77122440
  C -2.26676647  2.10819573  1.31294340
  N -2.64391154  3.04541282  1.84899714
  C -2.87486082 -0.02876184  0.35629282
  C -2.78517850 -1.40429595  0.17672891
  C -3.88963603 -2.14828731 -0.20761461
  C -5.10763654 -1.53235767 -0.42991961
  C -5.20450145 -0.16104304 -0.28384426
  C -4.10597607  0.58024764  0.11244885
  H -1.18556568  3.32689140 -0.50098738
  H -2.17379603  2.32426738 -1.56907871
  H -0.49061532  2.65665784 -1.97966601
  H  0.15843618  0.30759720 -2.15753996
  H -1.55958431 -0.05110100 -1.96642857
  H -0.36793323 -0.88295872 -0.97419059
  H  0.92840279  2.50042417  0.22617423
  H  1.65627604 -0.47367549  0.12505878
  H  2.97308867  2.14185628 -0.72813950
  H  3.20175075 -1.63059596 -1.31278476
  H  4.95554458 -1.63804608 -1.09842842
  H  3.89219360 -1.42306895  0.29721755
  H  5.14380074  1.96974344 -1.65005340
  H  5.99614966  0.35892108 -1.79167969
  H -0.78080675  1.39638409  4.04616538
  H  0.85600731  1.52179766  4.74097144
  H -0.07815429  2.97952140  4.43521158
  H  0.05032671 -0.88349125  3.13460830
  H -0.06908452 -1.47199608  1.46693865
  H -1.51927878 -1.39927903  2.50683471
  H -1.84649700 -1.92506152  0.26098417
  H -3.78606164 -3.21332625 -0.33926975
  H -5.96884301 -2.11161521 -0.72654825
  H -6.14164986  0.33969436 -0.47576104
  H -4.20518743  1.64965893  0.20827234
