40
opt_min/./Product_1053_opt.xyz
  F  1.56644200 -2.35764300 -2.64572000
  C  1.57380679 -2.41289472 -1.29599785
  F  1.45065543 -3.72440201 -0.98999817
  F  2.80300868 -2.05919004 -0.90699860
  C  0.48430761 -1.60248028 -0.69180933
  C  0.59058482 -0.42478291 -0.01436454
  C  1.76488197  0.42053644  0.13889428
  C  2.38834972  0.87929654 -1.02283838
  C  3.49281643  1.70374808 -0.94126903
  C  3.99846815  2.06544766  0.29579924
  C  3.39261695  1.59880391  1.45051060
  C  2.27897006  0.78522134  1.37885896
  C -0.81259064 -0.05663313  0.37817557
  C -1.08274083  0.20172457  1.88101270
  O -0.45177640  0.98939405  2.54143125
  N -2.08080538 -0.56258866  2.34863492
  C -2.57883429 -0.45098523  3.69736516
  C -1.16846160  1.31898582 -0.28478072
  O -0.43924665  2.27280062 -0.21889766
  N -2.35145582  1.27049176 -0.90963245
  C -2.95282815  2.41796190 -1.53906722
  N -1.65162916 -1.10701434 -0.11871648
  C -0.91533307 -1.97672978 -0.72483190
  C -1.45935839 -3.19234391 -1.37039285
  H  1.98364604  0.60694497 -1.98696764
  H  3.95431294  2.05695966 -1.85144144
  H  4.86099446  2.71177845  0.36072915
  H  3.79172441  1.87707945  2.41491502
  H  1.81012485  0.42495961  2.27963314
  H -2.56375311 -1.15539741  1.68824090
  H -1.97616266  0.29057626  4.21810576
  H -2.49505214 -1.41019343  4.20976066
  H -3.62246431 -0.13407097  3.69865876
  H -2.83831906  0.38570881 -0.88584709
  H -3.23278561  2.18542020 -2.56687321
  H -3.84067082  2.73578476 -0.98721693
  H -2.22274623  3.22402620 -1.53617099
  H -1.10373589 -4.07944631 -0.84831969
  H -2.54482774 -3.16914564 -1.34669180
  H -1.11331540 -3.25528206 -2.39977887
