44
opt_min/./Product_1025_opt.xyz
  F  0.24749800 -0.59599000 -1.58387600
  C  0.27981184 -0.10259628 -0.32619176
  C  1.35816567 -0.02553804  0.47440963
  C  2.76320697 -0.25277861  0.13760942
  C  3.25528681  0.12400443 -1.10944365
  C  4.57882318 -0.10420463 -1.43064851
  C  5.42486120 -0.71013294 -0.51550508
  C  4.93881178 -1.09554219  0.72067093
  C  3.61620856 -0.87058999  1.04689773
  N  0.95305966  0.32464431  1.74824878
  C  1.70321564  1.08656517  2.71078621
  N -0.46344032  0.53909227  1.76203463
  C -1.00157626  0.18777818  0.43702525
  C -1.76223292  1.41185850 -0.06184546
  C -3.00821547  1.70366188  0.47410887
  C -3.69555310  2.83464860  0.07004963
  C -3.14467350  3.68578080 -0.87318346
  C -1.90032505  3.40565136 -1.40553276
  C -1.20897482  2.27649045 -0.99816686
  C -1.86221052 -1.06137458  0.39095986
  C -1.75458748 -2.06584224  1.33906054
  C -2.52077886 -3.21632240  1.23406962
  C -3.38724169 -3.38067007  0.16834696
  C -3.47693566 -2.39667061 -0.79976473
  C -2.71760886 -1.24743890 -0.69177469
  H  2.59124450  0.59713946 -1.82100896
  H  4.95507406  0.19255065 -2.39896727
  H  6.46252852 -0.88481948 -0.77268019
  H  5.59536898 -1.57980236  1.43507706
  H  3.23330710 -1.18999083  2.00357793
  H  1.87690646  0.48481816  3.60763305
  H  2.66572610  1.38717755  2.29774104
  H  1.13982653  1.98210810  2.99164782
  H -0.87666068 -0.03969472  2.49733923
  H -3.44127861  1.04032599  1.20560792
  H -4.66645288  3.05355777  0.48995789
  H -3.67949925  4.56861966 -1.19541117
  H -1.45974081  4.06430961 -2.13970175
  H -0.23536327  2.05591433 -1.40818641
  H -1.06281047 -1.97666907  2.16232215
  H -2.43455516 -3.99221336  1.98246790
  H -3.98177136 -4.27981121  0.09061269
  H -4.14055621 -2.52505196 -1.64652672
  H -2.78510350 -0.48162582 -1.45092707
