49
opt_min/./Product_5206_opt.xyz
  C  0.36752300 -0.65257300  1.89182700
  C -0.25387116 -1.12056851  0.57306810
  C -1.29509746 -2.19665520  0.89492213
  C  0.80902741 -1.72813256 -0.39735065
  C  1.94586671 -2.44573623  0.29107328
  O  2.71201464 -1.97059798  1.07633370
  C  1.27850818 -0.55146153 -1.29857803
  C  2.62434515  0.04406474 -0.79493342
  N  2.48978094  1.12425121 -0.01982502
  C  3.61235910  1.82061156  0.55056025
  O  3.68596771 -0.44023537 -1.12545988
  C  1.54654252 -1.01322816 -2.73471642
  N  0.21457415  0.43708475 -1.20189977
  C -0.84359767  0.08042208 -0.25958516
  C -2.15254407 -0.36300393 -0.97423218
  O -3.25806579 -0.17816313 -0.51780818
  N -1.96048421 -0.95347025 -2.17448839
  C -3.05339542 -1.44108167 -2.97828302
  C -1.21821799  1.30295221  0.56852715
  C -2.15164012  1.21449120  1.59699044
  C -2.51956020  2.33642964  2.31757588
  C -1.96416326  3.57005497  2.02649407
  C -1.05654643  3.67506847  0.98909942
  C -0.69731670  2.55439508  0.26031133
  H  1.18188609  0.04313164  1.72125419
  H  0.75863506 -1.50360536  2.44370350
  H -0.38112441 -0.17022502  2.51215860
  H -2.09100864 -1.79289639  1.51445216
  H -1.74558360 -2.61478290 -0.00286189
  H -0.81941767 -3.00837775  1.44391678
  H  0.30554711 -2.46223083 -1.03627609
  H  2.02462324 -3.51428549  0.00880683
  H  1.55761271  1.48562467  0.12613798
  H  3.68528412  2.83439870  0.15222174
  H  4.51026625  1.26166151  0.29010895
  H  3.51755521  1.86702730  1.63637581
  H  0.74521921 -1.62755109 -3.14472658
  H  2.46846339 -1.58944438 -2.74827122
  H  1.68798646 -0.14519761 -3.37738437
  H -0.14057739  0.73340382 -2.10183683
  H -1.02724716 -1.16233841 -2.48910921
  H -3.97737713 -1.11933519 -2.49992927
  H -2.99395766 -1.02839326 -3.98605421
  H -3.04091933 -2.53195348 -3.03658184
  H -2.62034997  0.27161749  1.82707421
  H -3.24867760  2.24453105  3.10867878
  H -2.24913813  4.44525703  2.59207951
  H -0.62875656  4.63471209  0.73697195
  H -0.01553503  2.66436305 -0.56967663
