60
opt_min/./Product_2592_opt.xyz
  C  1.03292896  1.84819407  2.75844696
  O  0.24606044  1.57594077  1.61224559
  C  0.02635952  0.25448133  1.21182447
  C  1.25190333 -0.42851704  0.46617032
  C  2.46042400  0.35344780  0.46768013
  N  3.47793437  0.87923559  0.46138226
  C  1.52160443 -1.63839572  1.44539384
  C  0.38739050 -2.62890948  1.30826509
  C -0.63578453 -2.06637745  1.93689669
  C -0.11917147 -0.73120554  2.42626084
  O  1.24677123 -1.03565235  2.69144148
  C  0.79850527 -0.67380450 -0.99512499
  C  0.91628433 -2.13471544 -1.47483581
  N  2.10922658 -2.74848318 -1.22920623
  C  2.32686874 -4.13610850 -1.58263186
  O  0.04126037 -2.67457807 -2.10833648
  C  1.66541486  0.26227997 -1.91129403
  O  1.36924326  1.43348089 -2.04581552
  N  2.72320621 -0.28076682 -2.52863369
  C  3.65258420  0.52148778 -3.29363011
  N -0.58462478 -0.27703098 -1.04096346
  C -1.20750282  0.03093293 -2.30929392
  C -1.13838028  0.27148434  0.17791659
  C -1.64302463  1.75363415 -0.00895188
  O -2.72861439  2.11641912  0.39229341
  N -0.80694177  2.54537951 -0.67959661
  C -1.10972000  3.93825999 -0.89466152
  C -2.33729428 -0.53964723  0.63656677
  C -2.78504831 -1.63979546 -0.08662971
  C -3.91621441 -2.32810097  0.31538163
  C -4.61958686 -1.92177460  1.43642330
  C -4.17688750 -0.82900604  2.16182603
  C -3.04372408 -0.14038361  1.76765009
  H  1.30903761  2.89699413  2.66549080
  H  0.45689160  1.70370191  3.67682059
  H  1.93424206  1.23597330  2.80330405
  H  2.54216581 -2.01957721  1.45140920
  H  0.44776639 -3.57629218  0.81352984
  H -1.60991333 -2.46012576  2.13258767
  H -0.60852684 -0.31118311  3.29794842
  H  2.76591612 -2.35084963 -0.57772848
  H  1.48668414 -4.45377001 -2.19790766
  H  2.38066157 -4.76577383 -0.69269666
  H  3.25260927 -4.23831754 -2.14956144
  H  2.96451741 -1.24890099 -2.38788838
  H  3.87504548  0.02653220 -4.23784147
  H  4.57505540  0.67649022 -2.73066925
  H  3.18818905  1.48715194 -3.48247845
  H -2.28693410 -0.00986014 -2.17589750
  H -0.94244090  1.01870480 -2.70155828
  H -0.91385036 -0.72859329 -3.03188698
  H  0.09070181  2.20369535 -1.00237837
  H -0.83133848  4.53807148 -0.02407357
  H -2.18267520  4.04717581 -1.05555156
  H -0.56253292  4.29123294 -1.76552544
  H -2.23210086 -1.97890230 -0.94754387
  H -4.24918373 -3.18454885 -0.25244058
  H -5.50727162 -2.45527799  1.74423787
  H -4.72116671 -0.50547493  3.03706295
  H -2.71257198  0.71408166  2.33462742
