48
opt_min/./Product_2111_opt.xyz
 Br  2.86179700 -0.44884700  4.82231200
  C  1.41608593 -0.75097577  3.67842487
  C  0.14748628 -0.37426842  3.77181230
  C -0.46145091 -0.82701609  2.46143755
  C  0.05810197  0.19626475  1.40419721
  C  1.54207691 -0.21679977  1.32243075
  C  1.55899641 -1.41248442  2.31862969
  O  0.28425068 -1.99362467  2.15767388
  C  1.79594044 -0.55622481 -0.16164606
  C  2.75874491 -1.71986510 -0.37446510
  C  2.29901832  0.75412060 -0.82024556
  C  3.14350033  0.66191883 -2.05903482
  O  1.99154203  1.82733627 -0.35090902
  N  0.46430998 -0.89284134 -0.64136028
  C  0.26756918 -1.32868670 -2.00087971
  C -0.50795177 -0.01949560 -0.02037517
  C -0.59022634  1.31816030 -0.78440347
  O -0.88513116  2.35678837 -0.00450319
  C -0.89054334  3.63700470 -0.62436490
  O -0.44219163  1.40032052 -1.97806460
  C -1.88820401 -0.65140211 -0.00255709
  C -3.03876438  0.12827882  0.00859766
  C -4.28746983 -0.46802433  0.04306481
  C -4.40319527 -1.84651668  0.07404983
  C -3.25999105 -2.62902370  0.08574917
  C -2.01190587 -2.03648630  0.04970253
  H -0.36731671  0.16298370  4.54196906
  H -1.52854109 -1.02199212  2.45283914
  H -0.10747698  1.21632201  1.73569528
  H  2.23201421  0.55612171  1.66050282
  H  2.36193902 -2.13412017  2.21228908
  H  2.32587213 -2.62637317  0.03918776
  H  2.93276257 -1.88318512 -1.43311716
  H  3.70847790 -1.51862624  0.11461705
  H  2.65177127  0.07803230 -2.83355996
  H  3.33654651  1.66355826 -2.43439246
  H  4.08900932  0.17972835 -1.81728970
  H  0.69323181 -0.65476090 -2.75162817
  H  0.69828337 -2.32426695 -2.13371640
  H -0.79990994 -1.38757638 -2.19549027
  H -1.32957868  3.56907030 -1.62116841
  H  0.13555151  3.99873789 -0.70182635
  H -1.47849943  4.28796980  0.01827992
  H -2.96573325  1.20456741 -0.00059414
  H -5.17320217  0.15020497  0.04683571
  H -5.37863322 -2.30879644  0.09578424
  H -3.34023516 -3.70489850  0.12713915
  H -1.11702538 -2.63721563  0.08422201
