56
opt_min/./Product_1932_opt.xyz
  C -3.22796800  3.87629800 -0.17568800
  N -2.43815570  2.83511930  0.43425556
  C -1.83882366  1.87274256 -0.29025438
  O -1.93328145  1.79055627 -1.49554512
  C -1.11610764  0.83808279  0.57271516
  C -0.16389014  0.00752788 -0.25604371
  C -0.29333804 -1.26898549 -0.68106617
  C -1.32499051 -2.41973096 -0.45424197
  F -2.23729370 -2.35978835 -1.48014051
  F -0.64302789 -3.59051777 -0.71126981
  C -2.13733926 -2.84215981  0.83544437
  C -3.38602334 -2.10498036  1.40703978
  C -3.15411195 -0.66065338  1.93030287
  C -2.09249268 -0.27489840  0.92765279
  C  0.79392339 -1.56782022 -1.72438520
  C  1.74195152 -2.74461029 -1.42420037
  C  0.13829048 -1.77306516 -3.10335734
  N  1.52994584 -0.32659535 -1.72603985
  C  1.10182496  0.65126958 -0.78347572
  C  0.83878740  2.03790439 -1.42511094
  C  0.88583432  2.11293649 -2.92328072
  O  0.60575720  3.01280149 -0.75616069
  C  2.08350136  0.81103936  0.40071839
  C  3.14097410 -0.08157729  0.52585680
  C  4.02098146 -0.00488839  1.59018299
  C  3.86233579  0.97139427  2.55833893
  C  2.82396907  1.87663706  2.43527020
  C  1.93782606  1.79303015  1.37392845
  H -3.08656090  4.81408162  0.35874701
  H -2.89787404  3.98752986 -1.20724556
  H -4.29123147  3.61848168 -0.17328814
  H -2.32832437  2.84775452  1.43320043
  H -0.61207751  1.29911300  1.42190637
  H -1.40444570 -3.02483464  1.62791372
  H -2.52139103 -3.82657388  0.54228194
  H -4.12017034 -2.04913022  0.60249415
  H -3.77903595 -2.74600537  2.19632290
  H -2.80297971 -0.64658923  2.96213778
  H -4.08698357 -0.09462884  1.88220970
  H -1.35087656 -1.01289050  1.21793370
  H -2.53588901 -0.51012305 -0.04089861
  H  2.69222675 -2.55706586 -1.92402310
  H  1.92687733 -2.84733502 -0.35804997
  H  1.35209022 -3.68250127 -1.80602272
  H -0.51063571 -0.93097282 -3.32879537
  H  0.91774385 -1.83490374 -3.86102279
  H -0.43967893 -2.69112234 -3.13542148
  H  2.40762417 -0.25073390 -2.20266105
  H  1.57299202  2.90397122 -3.21716929
  H -0.11214483  2.39959146 -3.25157487
  H  1.16076918  1.17193327 -3.38136275
  H  3.29009570 -0.85063202 -0.21428076
  H  4.83638535 -0.70971801  1.66609399
  H  4.54666408  1.02637070  3.39225566
  H  2.69191348  2.65376628  3.17425500
  H  1.15960354  2.53410574  1.30099544
