47
opt_min/./Product_2212_opt.xyz
  F -2.01526034 -0.11428529  1.78231961
  C -1.43301264  0.18487639  0.57302594
  C  0.01378283  0.75882328  0.71015615
 Br  0.60704507  0.67835949  2.57914976
  C -0.17010742  2.20560583  0.21059794
  C -1.07153350  2.99728167  1.17077837
  C -2.47666964  2.41485393  0.92303332
  C -2.21052373  1.32104576 -0.11859203
  C -1.11606689  1.96876584 -0.97320810
  C  0.89187007 -0.12522659 -0.22674590
  C  1.89852841 -1.05401272  0.54971079
  N  2.97330628 -0.44482405  1.05637459
  C  3.97297886 -1.16779852  1.80351113
  O  1.69244788 -2.24382099  0.61922959
  C  1.75662761  0.72523729 -1.16861771
  O  2.59874211  1.50228039 -0.77520340
  O  1.49957263  0.50623455 -2.44465726
  C  2.26621960  1.22281749 -3.40349069
  N -0.05594212 -0.91144228 -0.99419614
  C  0.38910441 -2.02920691 -1.80623938
  C -1.27789701 -1.11850369 -0.24851041
  C -1.19575179 -2.26872130  0.65616023
  N -1.08359264 -3.18972752  1.32079894
  C -2.49313181 -1.31499787 -1.18178938
  C -3.70878716 -1.86500711 -0.49683613
  O -2.43857371 -1.04107787 -2.34952501
  H  0.76813703  2.71082985  0.00122312
  H -0.76211462  2.88351695  2.20750761
  H -1.03142358  4.05883236  0.92990962
  H -3.14728224  3.16216852  0.49641023
  H -2.93537724  2.02912451  1.83188091
  H -3.09831276  0.97763269 -0.64291206
  H -1.44563908  2.89772247 -1.42976417
  H -0.73233282  1.30312895 -1.74142484
  H  3.07065462  0.55811071  0.99575467
  H  3.86714735 -0.97261408  2.87320139
  H  4.96512671 -0.86249307  1.47490584
  H  3.82925776 -2.23150988  1.62207347
  H  2.53003300  2.20723278 -3.01322237
  H  3.17736550  0.66700397 -3.63216749
  H  1.64522619  1.30763884 -4.29106792
  H  0.37145759 -2.97705655 -1.25902187
  H  1.40490889 -1.85055915 -2.14243626
  H -0.26054544 -2.09376182 -2.67940100
  H -3.61019325 -2.95087130 -0.45941811
  H -4.60338208 -1.62470466 -1.06713786
  H -3.79384714 -1.50387615  0.52558315
