49
opt_min/./Product_5382_opt.xyz
  C  0.62608500  2.20540800  1.21155800
  C -0.24989131  3.38765264  0.95092567
  C -1.23688719  3.35953620  0.06140068
  N -1.59606426  2.26346047 -0.68072442
  C -2.29272498  2.52943268 -1.91601702
  C -0.92784670  1.01617439 -0.46783209
  C  0.51107282  1.15123326  0.08911230
  C  1.49538400  1.38108983 -1.04838590
  N  2.79189248  1.55030903 -0.67983087
  O  1.15806786  1.40303894 -2.21140312
  C  0.64352711 -0.20402251  0.77330708
  C  1.95250982 -0.75823947  1.14491315
  C  2.74237524 -1.36073498  0.16805575
  C  3.98136306 -1.87684513  0.49539245
  C  4.44894741 -1.79351260  1.79454047
  C  3.66674866 -1.19694666  2.76985895
  C  2.42059066 -0.68514881  2.45040438
  N -0.45098454 -0.75579627  1.05489069
  C -1.58586535 -0.01805934  0.52614956
  C -2.34340219  0.66834652  1.67314465
  C -2.49844106 -1.05886661 -0.09442184
  C -2.68306984 -2.23813525  0.62326264
  C -3.50045193 -3.24067529  0.13923706
  C -4.15942627 -3.08188837 -1.06861047
  C -3.98961320 -1.90983493 -1.78155022
  C -3.16126843 -0.90869815 -1.29749043
  H  1.66263585  2.54174621  1.31754881
  H  0.34921521  1.73728398  2.16488741
  H -0.05563894  4.27985518  1.52329777
  H -1.82571040  4.24229581 -0.13989068
  H -3.33967118  2.78557860 -1.71953735
  H -1.82371880  3.35911666 -2.45889132
  H -2.26411356  1.65638371 -2.56283395
  H -0.82840213  0.49858141 -1.43176629
  H  3.10510937  1.33099413  0.25149926
  H  3.48614247  1.59434631 -1.40996297
  H  2.37420199 -1.42458320 -0.84536926
  H  4.58244799 -2.35191203 -0.26614531
  H  5.41761452 -2.19975228  2.04723267
  H  4.02613280 -1.13261449  3.78582488
  H  1.80755769 -0.22779198  3.21201236
  H -3.14413879  0.02614079  2.03698269
  H -1.67565959  0.88404509  2.50464713
  H -2.77195378  1.60512922  1.31774054
  H -2.16409295 -2.36072541  1.56339159
  H -3.62622692 -4.15264634  0.70477384
  H -4.79757860 -3.86529117 -1.45006156
  H -4.50431870 -1.76509061 -2.72142660
  H -3.06082428 -0.00683459 -1.87420031
