32
opt_min/./Product_3420_opt.xyz
  C -1.70347490  1.87399543  0.92531044
  C -0.92224456  0.89886064  0.05236732
  C  0.60018677  1.02278136  0.21726128
  C  1.18328700  2.14215971 -0.63219263
  C  1.11086018 -0.37772102 -0.16405067
  C  2.40667039 -0.68206650  0.59039471
  C  3.66150673 -0.56808236 -0.24013064
  O  2.41454022 -1.00835319  1.74660593
  N  0.05699519 -1.26269336  0.26342492
  C  0.14981151 -2.63540555 -0.15031888
  C -1.23192638 -0.59188156  0.34568216
  C -2.30281344 -1.12215294 -0.62258960
  C -1.72061960 -0.78800684  1.70826116
  N -2.10862934 -1.00198599  2.76153057
  H -1.45841791  1.73081485  1.97513408
  H -1.46595654  2.89956766  0.64501499
  H -2.77525524  1.72341547  0.79969675
  H -1.16887479  1.08897235 -1.00130340
  H  0.83475176  1.20265800  1.27270266
  H  1.02083434  1.94826113 -1.69304436
  H  0.70844383  3.08868879 -0.37993083
  H  2.25372966  2.24988495 -0.46070719
  H  1.30399052 -0.44790125 -1.25265712
  H  3.62644010  0.31123910 -0.87811954
  H  3.71707865 -1.45004877 -0.88174069
  H  4.53899977 -0.54372733  0.40090392
  H  1.11769409 -3.02830022  0.16301342
  H  0.05310787 -2.76949227 -1.24283026
  H -0.62504334 -3.21776151  0.34768528
  H -3.17692175 -0.47506394 -0.58213637
  H -2.61279714 -2.13315330 -0.36144304
  H -1.91019865 -1.12784043 -1.63815157
