30
opt_min/./Product_4160_opt.xyz
  O  3.85580100  1.16063700  0.18730500
  C  4.41833093  0.22939598  0.54204549
  O  4.98877161 -0.69831692  0.89241273
  C  1.67339491 -1.53203641  1.43581659
  C  0.83357577 -1.60512088  0.38825676
  C  3.14805811 -2.38995407 -1.66018604
  O  3.48201917 -1.29629920 -1.60369268
  O  2.81274930 -3.48239526 -1.69371955
  C  0.30296096 -0.22231983  0.21409903
  C  0.67507559  0.40114387 -1.15924618
  C  0.85236383  1.87807406 -1.11733638
  O  0.77330034 -0.29003270 -2.13401557
  C -1.21333896 -0.10349493  0.21337903
  C -1.84503820  0.79134355  1.06471314
  C -3.22651646  0.88017545  1.06182500
  C -3.97626419  0.08780779  0.21001944
  C -3.34151790 -0.79668680 -0.64613575
  C -1.96171921 -0.89301053 -0.64929489
  N  0.93722052  0.50954181  1.28390265
  N  1.69211942 -0.23189866  1.93357848
  H  2.27553334 -2.28633291  1.90332329
  H  0.58886739 -2.43681919 -0.23890063
  H  0.15270814  2.33524075 -0.42455289
  H  1.85902604  2.07519305 -0.74745229
  H  0.75032380  2.29361316 -2.11668581
  H -1.25435580  1.40064013  1.73132470
  H -3.71510943  1.57296621  1.73032418
  H -5.05345984  0.16013166  0.20985370
  H -3.92100147 -1.41243939 -1.31742930
  H -1.46739107 -1.56794772 -1.33160295
