42
opt_min/./Product_4823_opt.xyz
  C  0.15257807 -1.96652395  1.61720705
  C -0.26169154 -0.50097544  1.41210346
  C -1.10676074 -0.08533132  2.61099310
  C  1.01661624  0.35375332  1.24611041
  C  0.85697688  1.82225543  1.58975670
  O -0.15364093  2.45659959  1.55053543
  C  1.38807533  0.14832023 -0.24911366
  C  2.37156260 -0.92224389 -0.32625051
  N  3.12267491 -1.78373388 -0.38991191
  C  1.96188114  1.44650662 -0.89525913
  C  3.30982052  1.32100528 -1.54899855
  O  1.35388909  2.47802320 -0.85027522
  N  0.15152557 -0.19622439 -0.92924512
  C  0.32717490 -0.90977290 -2.16659313
  C -0.94811155 -0.36015668  0.01206026
  C -1.80090299  0.94890305 -0.07206703
  O -1.34917079  1.71604089 -1.05209236
  C -1.94846891  2.99590093 -1.20686753
  O -2.75104582  1.18905284  0.61660558
  C -2.02825728 -1.45052843 -0.11744233
  C -2.08488274 -2.41251370 -1.27480501
  O -2.87782956 -1.50120666  0.73438255
  H -0.72838088 -2.59406540  1.72459781
  H  0.74341553 -2.06088158  2.52600729
  H  0.74634487 -2.34408698  0.78734902
  H -0.50329903 -0.15780193  3.51482282
  H -1.48557667  0.92590366  2.52230695
  H -1.96020442 -0.75168992  2.69834002
  H  1.82792222 -0.05189275  1.86147536
  H  1.80907615  2.28517647  1.93376265
  H  3.49547567  2.19648845 -2.16827862
  H  3.39693329  0.41452755 -2.14210463
  H  4.06825492  1.27964646 -0.76633343
  H -0.57629090 -0.82260272 -2.76477597
  H  0.60310405 -1.96656331 -2.05179161
  H  1.12682033 -0.41778491 -2.72394247
  H -2.49416012  3.26265167 -0.30126131
  H -1.13622841  3.69768328 -1.38637948
  H -2.62946212  2.97245926 -2.06000771
  H -2.35652308 -1.88308488 -2.18532075
  H -2.86818154 -3.13576457 -1.05371849
  H -1.14762636 -2.93531670 -1.42663458
