31
opt_min/./Product_209_opt.xyz
  C -4.01776998 -1.54093002  0.47403902
  O -3.15672118 -0.42153251  0.45469723
  C -1.92090183 -0.53310032  0.92536988
  C -1.00647059  0.48198403  0.99474087
  C -1.17982188  1.86302019  0.55890397
  O -2.14092553  2.30229901 -0.01984628
  O -0.10718981  2.61102774  0.89115156
  C -0.15665543  3.96966422  0.48760989
  C  0.26225337 -0.08614002  1.56657983
  C  1.42322783  0.04499907  0.59361722
  C  2.46597285  0.91924503  0.85910596
  C  3.49538591  1.06665608 -0.05402341
  C  3.49232413  0.33927616 -1.23182663
  C  2.45346611 -0.53656455 -1.49589831
  C  1.41937436 -0.68137350 -0.58808777
  N -0.02308582 -1.45480053  1.85049855
  C -1.23207163 -1.70887349  1.48296357
  C -1.76707949 -3.00976374  1.63177914
  N -2.18708726 -4.06990419  1.74581408
  H -3.62955935 -2.35584403 -0.14372419
  H -4.95921090 -1.18734922  0.05722700
  H -4.18371680 -1.90563037  1.49127878
  H  0.83650872  4.37544585  0.66368221
  H -0.90139506  4.51332569  1.07350118
  H -0.42128110  4.04329675 -0.56919029
  H  0.55170541  0.40255841  2.50241336
  H  2.46996487  1.49060765  1.77495611
  H  4.30322974  1.75159344  0.15708723
  H  4.29704222  0.45452723 -1.94247615
  H  2.44412496 -1.10796215 -2.41200315
  H  0.60895109 -1.36390032 -0.79967981
