45
opt_min/./Product_1556_opt.xyz
  N -2.77716200  2.15098907  1.82161191
  C -2.12980346  1.43908462  1.20780601
  C -1.27517186  0.57197559  0.42229833
  C -0.32616548 -0.32923466  1.25559356
 Cl -0.68516006 -0.30740470  3.01036505
  C -0.54364551 -1.72618188  0.65622897
  C -1.89045988 -2.27148302  1.13951017
  C -2.90523593 -1.31305705  0.48865220
  C -2.03615550 -0.46078799 -0.44387983
  C -0.89089584 -1.40521253 -0.80105138
  C  1.07287303  0.30588070  1.03899927
  C  1.31413887  1.29192413  2.09324031
  N  1.53662090  2.12376454  2.84362177
  C  2.19508139 -0.71863298  1.06000577
  C  2.68463478 -1.17119363  2.27794867
  C  3.68680068 -2.12756382  2.31013316
  C  4.20300315 -2.62995817  1.12884087
  C  3.71874274 -2.17163957 -0.08488587
  C  2.71773717 -1.21955598 -0.12436478
  N  0.99030726  0.98036528 -0.26421742
  C  1.96343173  2.05334619 -0.40728362
  N -0.37566381  1.40283000 -0.38342197
  C -0.91216812  2.12913228 -1.39867324
  O  0.00234926  2.60477793 -2.26954289
  C -0.49390261  3.47191426 -3.28123214
  O -2.10199323  2.32862352 -1.48485550
  H  0.29787628 -2.39236197  0.83356413
  H -1.97642475 -2.30137849  2.22485173
  H -2.01483574 -3.29035357  0.76629464
  H -3.40857280 -0.68891247  1.22766539
  H -3.66936106 -1.85329184 -0.07373784
  H -2.58415015  0.01088915 -1.25502191
  H -1.22802511 -2.28597147 -1.34821312
  H -0.08965784 -0.92584434 -1.35788978
  H  2.28147153 -0.77967303  3.19967716
  H  4.06252701 -2.47475167  3.26089865
  H  4.98508734 -3.37497159  1.15408145
  H  4.12073559 -2.55850237 -1.01066381
  H  2.34804781 -0.85078008 -1.06756315
  H  2.91155388  1.69062652 -0.01275226
  H  1.67777412  2.96778382  0.12617873
  H  2.08567479  2.27788260 -1.46563801
  H  0.01370897  3.20892465 -4.20853949
  H -0.26433795  4.50557656 -3.01307280
  H -1.57453429  3.34749769 -3.38040286
