41
opt_min/./Product_662_opt.xyz
  C  0.58975228  1.88532390  1.75689122
  C  1.55751270  1.85878381  0.85077192
  C  2.24359926  0.52351138  1.03406077
  C  1.29545305 -0.58423747  0.46730301
  C  0.16556752 -0.54875081  1.51267100
  C  0.69338440  0.55969960  2.47932057
  O  2.09277006  0.30141240  2.42652463
  C -1.14795648 -0.30680615  0.74180767
  C -2.06206297 -1.54293619  0.84941260
  C -1.91856384  0.82424682  1.23979957
  N -2.60441272  1.66676762  1.59582509
  N -0.72769731 -0.02976804 -0.61013266
  C -1.67656989  0.34639561 -1.62058223
  C  0.63316057 -0.35020587 -0.90529508
  C  0.70317280 -1.70085802 -1.71473161
  N  1.94921651 -2.06309798 -2.05869182
  C  2.19087661 -3.24500416 -2.86007886
  O -0.29449821 -2.34322279 -1.94058802
  C  1.39827553  0.70441098 -1.68742003
  O  2.58792781  0.60313832 -1.89752503
  O  0.64585990  1.68911511 -2.14684412
  C  1.28225932  2.70856972 -2.91107377
  H -0.13229874  2.64659011  1.96878066
  H  1.84421545  2.60457216  0.13616803
  H  3.28158303  0.45138993  0.72423471
  H  1.84768900 -1.52497684  0.49898679
  H  0.11045328 -1.49661338  2.05053949
  H  0.32704782  0.50920315  3.50052569
  H -2.97459117 -1.40231548  0.27446920
  H -1.54005015 -2.41032549  0.45015241
  H -2.33172268 -1.71574616  1.88900535
  H -1.31327811  0.03268906 -2.59609513
  H -1.84797154  1.43133603 -1.63950344
  H -2.63437448 -0.14814389 -1.45164015
  H  2.68012225 -1.36944328 -1.96395786
  H  1.52832544 -3.25856113 -3.72720120
  H  3.22673535 -3.25170885 -3.18585458
  H  1.99214811 -4.13940667 -2.26667920
  H  1.16350158  2.49130463 -3.97336691
  H  2.34418689  2.75891591 -2.66594863
  H  0.78396052  3.64472791 -2.66547457
