59
opt_min/./Product_2556_opt.xyz
  C  3.99436100  1.94767200  1.77289200
  O  3.05903426  1.08028532  1.14194356
  C  3.40057648  0.49410005  0.00344462
  O  4.47746587  0.60527394 -0.52198246
  C  2.23337750 -0.37357509 -0.49944188
  C  2.36979706 -0.72337170 -2.00404153
  C  3.63039710 -1.40117426 -2.44957857
  O  1.45811701 -0.51129801 -2.76241422
  C  0.95995188  0.40676238 -0.33040531
  C -0.29971086  0.13289166  0.04685496
  C -0.91599828 -1.09921672  0.63745488
  C -2.41531585 -0.87886484  0.96725810
  C -3.38903651 -1.91729687  0.50923637
  O -2.75131529  0.07455767  1.62260458
  C -0.79508346 -2.25097612 -0.37521168
  C -1.19743387 -1.90633612 -1.77410698
  O -0.41494109 -3.34885144 -0.04419614
  C -0.32805414 -1.45314517  2.03720346
  C  1.07152363 -0.96159395  2.39776163
  C  2.23772213 -1.70963003  1.76399500
  C  2.33373291 -1.72883570  0.24012684
  C -1.05561282  1.46252508 -0.14084990
  C -2.55550901  1.46205609 -0.43392472
  N -3.24878627  2.41901724  0.18290835
  C -4.66558014  2.59358706 -0.02859645
  O -3.02529335  0.66056540 -1.21902257
  O -0.36367902  2.04719168 -1.24125930
  C  0.91337846  1.89564972 -0.73111851
  C  1.96480221  2.54638177 -1.59190382
  O  0.79781053  2.59485865  0.57464905
  C -0.43781285  2.34398352  0.98622009
  O -0.94463729  2.74687905  1.98999689
  H  3.47454432  2.88017533  1.98775647
  H  4.85119637  2.11719150  1.11846827
  H  4.32655567  1.48514955  2.70346503
  H  3.50076430 -2.47628785 -2.33002765
  H  4.49157532 -1.07224089 -1.87936740
  H  3.77809287 -1.19876787 -3.50807977
  H -4.25976001 -1.90215724  1.16160616
  H -2.95260500 -2.91005584  0.47202084
  H -3.71079777 -1.63182520 -0.49265294
  H -1.78217140 -2.72095035 -2.19888235
  H -0.30153791 -1.80398591 -2.38580232
  H -1.75190339 -0.97466304 -1.82599433
  H -0.99180848 -1.00471431  2.77994801
  H -0.37328974 -2.53979196  2.14427117
  H  1.15738170  0.10891896  2.21698404
  H  1.16814286 -1.11448363  3.47671014
  H  3.16032340 -1.28806694  2.17126542
  H  2.18715163 -2.75459850  2.08064169
  H  3.31294455 -2.14886274 -0.00111518
  H  1.58060299 -2.39925338 -0.16483108
  H -2.81434658  2.98647957  0.89521380
  H -5.18870622  2.60149845  0.92693926
  H -5.02174176  1.76124954 -0.63326157
  H -4.86011876  3.53051079 -0.55489167
  H  1.52859053  3.43976252 -2.03164152
  H  2.26332314  1.87178007 -2.38771102
  H  2.82747658  2.82592091 -0.99612662
