73
opt_min/./Product_3090_opt.xyz
  C  3.23598800 -1.53099200  3.59695500
  O  2.21539830 -1.36763999  2.61816464
  C  1.74614151 -2.49141807  2.06470624
  O  2.10765939 -3.59360231  2.35410204
  C  0.49754432 -2.18694775  1.20893554
  F -0.39033391 -1.94284523  2.27545506
  C  0.56523304 -0.94259462  0.36860748
  C -0.41397759 -0.05887033  0.11228785
  C -1.91380149 -0.22817695 -0.03657465
  C -2.64880359  1.06934219  0.43679381
  C -3.92029917  1.47461794 -0.26405318
  O -2.29303234  1.59760359  1.45528710
  C -2.12741367 -0.48387875 -1.53275645
  C -3.39831958 -1.15166798 -1.99149137
  O -1.29677433 -0.14666917 -2.34810523
  C -2.60312279 -1.29096465  0.85318768
  C -2.43154729 -2.78884426  0.51937814
  C -1.23220530 -3.21407161 -0.33132812
  C  0.04630545 -3.43611890  0.46735805
  C  0.22443101  1.26353456 -0.29913006
  C -0.49558212  1.91031465 -1.48707387
  C  0.27971337  2.12246896 -2.75538163
  O -1.62240464  2.33194356 -1.34411736
  C  0.20784890  2.19920321  0.92281672
  C -0.13318033  3.54207296  0.83722532
  C -0.04073841  4.36295397  1.94813034
  C  0.41241093  3.86341192  3.15461146
  C  0.78007210  2.53206834  3.24083368
  C  0.68405039  1.70926141  2.13494548
  N  1.60682388  0.92445912 -0.61134132
  C  2.57951897  1.97616354 -0.47021451
  C  1.84487916 -0.47587131 -0.32626488
  C  1.82930153 -1.15761324 -1.74674311
  O  2.73690983 -0.57119395 -2.52235214
  C  2.79333568 -1.01357552 -3.87638235
  O  1.10222887 -2.04157349 -2.09146404
  C  3.14899426 -1.07593687  0.18876063
  C  4.34431397 -0.24322699  0.54844117
  O  3.22603803 -2.28718262  0.20039558
  H  3.78988489 -0.59595232  3.63401122
  H  3.88698435 -2.36106666  3.31869054
  H  2.78103018 -1.73770709  4.56735329
  H -4.08474446  2.52947966 -0.05979789
  H -3.87382120  1.32138352 -1.33474832
  H -4.75720418  0.91830394  0.15756917
  H -3.68524241 -0.72057683 -2.94916804
  H -3.18515067 -2.20461426 -2.16549155
  H -4.21400282 -1.07061039 -1.28459793
  H -2.28480734 -1.08509199  1.87276917
  H -3.67542139 -1.08316281  0.83311228
  H -3.33709605 -3.13094120  0.01496463
  H -2.38042963 -3.32876323  1.46704763
  H -1.47514972 -4.16077138 -0.81845581
  H -1.02588144 -2.48843027 -1.11576907
  H  0.85565136 -3.72106874 -0.20415005
  H -0.08856887 -4.23131073  1.20283063
  H -0.38508731  1.96760163 -3.60061684
  H  1.13261738  1.45851217 -2.81418105
  H  0.62047371  3.15788228 -2.77770830
  H -0.49535489  3.96277747 -0.08761692
  H -0.32515002  5.40172243  1.86413829
  H  0.47790117  4.50515855  4.02087344
  H  1.13932194  2.12672820  4.17563309
  H  0.97453929  0.67354250  2.22581004
  H  3.44112540  1.75705928 -1.09794271
  H  2.12538379  2.89459694 -0.83935139
  H  2.90193788  2.16357615  0.56078564
  H  3.19925351 -0.18886886 -4.45761179
  H  3.44482067 -1.88640799 -3.94963347
  H  1.79335816 -1.27750755 -4.22314467
  H  4.73980088  0.22523537 -0.34904178
  H  5.10398034 -0.90713347  0.95705548
  H  4.09379939  0.52596440  1.27032914
