37
opt_min/./Product_4333_opt.xyz
  C -0.65977974  1.17651014  0.18967518
  C -2.03826662  1.76131686  0.14171499
  C -3.07078358  1.01322501  0.53442949
  N -2.93558985 -0.28641602  0.94055288
  C -4.07481284 -1.00228815  1.45396587
  C -1.77575866 -1.04585156  0.56461649
  C -0.72425161 -0.28647548 -0.26843256
  C -1.05695791 -0.38787903 -1.75589672
  N -0.23523099  0.30098766 -2.57418394
  O -1.99230844 -1.03254542 -2.17166364
  C  0.59200173 -1.06633680  0.12994193
  C  0.78453477 -2.17335306 -0.79037441
  N  0.94634357 -3.02014673 -1.54076579
  C  1.84774481 -0.22259234  0.15817922
  C  2.60929931 -0.03760659 -0.98951181
  C  3.73926970  0.76376826 -0.95617334
  C  4.12354961  1.38038630  0.22120385
  C  3.37605579  1.18549867  1.37023506
  C  2.24608567  0.38635906  1.34252527
  N  0.31320608 -1.64128793  1.44189590
  C -0.92315683 -1.60293556  1.67687462
  H  0.04106633  1.75223433 -0.41607144
  H -0.28781458  1.19510915  1.22177161
  H -2.17249613  2.77181570 -0.19797112
  H -4.08027222  1.39539812  0.55932098
  H -3.91239759 -2.07474968  1.36008357
  H -4.97994587 -0.74623856  0.89702408
  H -4.24043813 -0.76501485  2.50984595
  H -2.10805316 -1.91508783 -0.03690914
  H -0.39423208  0.23262415 -3.56547770
  H  0.58235352  0.78404799 -2.24555173
  H  2.34626235 -0.55175307 -1.90378470
  H  4.32545133  0.89912742 -1.85335038
  H  5.01529457  1.99122920  0.25029620
  H  3.67095605  1.66766906  2.29045363
  H  1.67512122  0.21570994  2.24285063
  H -1.32042443 -1.99140254  2.60012325
