38
opt_min/./Product_675_opt.xyz
  C  1.60884197  4.27922802 -0.37911089
  O  1.27012358  2.97190645  0.06496589
  C -0.01556418  2.72713832  0.34715156
  O -0.89999074  3.54705171  0.25155120
  C -0.26942769  1.34837245  0.75453682
  C  0.42652183  0.19079525  0.68539174
  C  1.79197838 -0.12903743  0.32807242
  C  2.85232804  0.67620957  0.74509859
  C  4.15308810  0.34092053  0.42231052
  C  4.41905120 -0.79722083 -0.32174440
  C  3.37428931 -1.61309223 -0.72541097
  C  2.07227084 -1.29236397 -0.39340267
  C -0.60836619 -0.87417990  1.01947431
  C -1.52062292 -0.96835351 -0.25556509
  C -2.30673948  0.35054689 -0.14638761
  C -1.67377544  0.94148104  1.16056281
  O -1.45132710 -0.21502277  1.93458255
  N -3.67170526 -0.10038489  0.03165717
  C -4.78257721  0.76437204  0.29803402
  N -3.78348477 -1.40414824  0.11938150
  C -2.63846742 -1.97583636 -0.07506395
  C -2.42308634 -3.34975213 -0.00070983
  N -2.18555965 -4.47140922  0.08096183
  H  1.96313145  4.21438905 -1.40861667
  H  2.40443479  4.65734591  0.26223247
  H  0.73408857  4.93004694 -0.32462075
  H  2.64755888  1.55187979  1.33892508
  H  4.96525011  0.96960790  0.75561288
  H  5.43612193 -1.05322550 -0.57774934
  H  3.57501798 -2.50788591 -1.29545204
  H  1.26706851 -1.94069003 -0.70554111
  H -0.25025505 -1.82210993  1.41036506
  H -0.95278056 -1.11214462 -1.17312208
  H -2.22985517  1.04915808 -0.98154485
  H -2.27131450  1.68293608  1.68067788
  H -5.12713451  0.65447484  1.32951243
  H -4.47135149  1.79293255  0.12969279
  H -5.60954829  0.52105850 -0.37174451
