54
opt_min/./Product_1999_opt.xyz
  C  1.63922616 -0.17951626  2.69091866
  C  1.73201769 -1.19056765  1.58523139
  O  2.63371433 -1.99291100  1.55375147
  C  0.70453317 -1.18122420  0.43432080
  C -0.79697224 -0.88774730  0.78099475
  C -1.07409807 -0.58333831  2.16642144
  N -1.38993341 -0.41186947  3.25285392
  C -1.50430905 -2.27245478  0.60114477
  C -1.68926383 -2.71056844 -0.84926676
  C -0.24279004 -2.73170231 -1.36458478
  C  0.59417211 -2.63733119 -0.08042095
  C -0.35199469 -3.20275563  0.98466716
  C -1.17902243  0.34288221 -0.10047296
  C -2.25388956  0.09868241 -1.17554498
  O -3.47324996  0.01330091 -0.62605883
  C -4.55686516 -0.11396325 -1.53824273
  O -2.04680967  0.07152232 -2.35353116
  C -1.69655584  1.53319657  0.73095137
  O -0.01418424  0.75345400 -0.77459217
  C  1.13732341 -0.04275601 -0.54868730
  C  1.67921256 -0.44500160 -1.95058875
  C  2.71798710 -1.53433792 -2.06813631
  O  1.32817193  0.18536102 -2.90896548
  C  2.24589274  0.88886766 -0.01187947
  C  1.92077693  2.21022667  0.28599170
  C  2.87777203  3.09736291  0.74099511
  C  4.19372369  2.69374333  0.88284534
  C  4.53335893  1.38874137  0.56948581
  C  3.57032349  0.49504175  0.12940997
  H  1.11340042 -0.62720216  3.53376261
  H  1.12180291  0.72789174  2.39900890
  H  2.64827930  0.06025653  3.02172085
  H -2.41140039 -2.34298005  1.20128360
  H -2.34077861 -2.08902262 -1.44853458
  H -2.12294325 -3.71259875 -0.84523985
  H -0.01953979 -3.65094039 -1.90435272
  H -0.06774554 -1.89271080 -2.03603491
  H  1.55459853 -3.13940592 -0.13845460
  H -0.58937782 -4.25391451  0.83326738
  H  0.01394286 -3.06589008  2.00186752
  H -5.46142486 -0.09379197 -0.93657291
  H -4.54728519  0.71107788 -2.25256643
  H -4.48607302 -1.05495960 -2.08836748
  H -2.62103954  1.27545163  1.23863272
  H -0.95445338  1.83685863  1.46654717
  H -1.87783425  2.36913786  0.05792894
  H  2.96056376 -2.02064427 -1.13263556
  H  3.61584849 -1.09092719 -2.49711497
  H  2.35795922 -2.27242129 -2.78266203
  H  0.91020384  2.55283148  0.13587591
  H  2.59168403  4.11269887  0.97244436
  H  4.94724745  3.38848473  1.22256612
  H  5.56103991  1.06374938  0.62972296
  H  3.88153689 -0.51334840 -0.07024263
