42
opt_min/./Product_5232_opt.xyz
  C  0.78061000 -1.70963500 -0.31856100
  O  1.54525128 -1.71497118 -1.25059394
  C -0.20196326 -2.79613950 -0.13500667
  C -1.19897829 -2.76010225  0.75010362
  C -1.39974720 -1.62499883  1.66558347
  O -2.08504910 -1.69587523  2.65717979
  C -0.60768077 -0.38155400  1.32978553
  C  0.80161651 -0.65742758  0.78737112
  C  1.23048329  0.73928602  0.28513243
  C  2.32683257  0.77338579 -0.81042135
  N  3.44338208  0.07658147 -0.49104795
  C  4.54547303 -0.03198869 -1.41780767
  O  2.22882297  1.46909301 -1.78777935
  C  1.75090728  1.61696520  1.43895179
  N -0.00420268  1.25833840 -0.28311290
  C -1.15834775  0.55115866  0.21052411
  C -2.26338959  1.46192866  0.77171019
  O -3.29657822  1.06316850  1.22703762
  O -1.92234794  2.74995462  0.68813114
  C -2.88087250  3.68521861  1.17561788
  C -1.81996335 -0.22190956 -0.94947822
  O -1.49236011 -0.12607694 -2.09435188
  O -2.82454902 -0.97771871 -0.50107147
  C -3.59658870 -1.68117943 -1.47052898
  H -0.07726279 -3.63876492 -0.80415428
  H -1.88762585 -3.58570146  0.86555714
  H -0.55355855  0.21989299  2.24434497
  H  1.45814437 -1.03914858  1.57488443
  H  3.43586539 -0.56570573  0.28491721
  H  5.49424350  0.03388573 -0.88436990
  H  4.50139494 -0.97405047 -1.97040640
  H  4.45744927  0.79287988 -2.12393920
  H  1.14594809  1.49900378  2.33575650
  H  2.78290540  1.37438188  1.68514717
  H  1.71877568  2.66141443  1.13410005
  H -0.09693300  2.25843995 -0.17368925
  H -3.26847757  3.35447572  2.14071426
  H -2.35972458  4.63570271  1.26711821
  H -3.70871395  3.77273178  0.47011803
  H -3.87904548 -2.63340028 -1.02509615
  H -3.00608569 -1.83196364 -2.37629692
  H -4.49006545 -1.10171105 -1.70660345
