39
opt_min/./Product_4395_opt.xyz
  C -0.63085007  0.94719594 -2.38864986
  C  0.10724845  0.63436742 -1.09850132
  C  1.43158409 -0.13428732 -1.24062026
  C  1.34870715 -1.34723034 -2.15743616
  C  1.69100708 -0.51492045  0.23678848
  C  2.47737208 -1.71820739  0.38440014
  N  3.09297124 -2.66862131  0.54362269
  C  2.45360940  0.61141417  0.98940206
  C  2.56329918  0.37505658  2.46812527
  O  2.93039737  1.55221202  0.42181734
  N  0.36748149 -0.66681419  0.87613111
  C -0.66692530 -0.19405672 -0.04643494
  C -1.65942675  0.76791595  0.66684984
  N -1.20455766  1.21256683  1.84662663
  C -1.92579829  2.15982237  2.65776953
  O -2.71495577  1.08672547  0.17124072
  C -1.54136607 -1.32813605 -0.57424597
  O -2.14175047 -1.36017159 -1.60883242
  O -1.60885193 -2.30608265  0.34973903
  C -2.47674860 -3.39885289  0.07757525
  H -1.54984427  1.47837795 -2.15561852
  H -0.89703439  0.04939251 -2.93410215
  H -0.00392475  1.57695411 -3.01482903
  H  0.34449780  1.58958033 -0.61149890
  H  2.22335815  0.53560223 -1.58539233
  H  2.28314892 -1.90655748 -2.13696401
  H  1.16577808 -1.02794182 -3.17906692
  H  0.54572782 -2.01781204 -1.85651117
  H  2.72721562  1.31438895  2.98836223
  H  1.69469064 -0.14790663  2.85655992
  H  3.43446439 -0.26183327  2.62933125
  H  0.19176569 -1.62966905  1.14550472
  H -0.31789856  0.85776021  2.17232034
  H -2.90300235  2.30983561  2.20316996
  H -1.39755664  3.11505140  2.69924394
  H -2.05089358  1.77905549  3.67256052
  H -3.26928118 -3.07916277 -0.60074637
  H -1.90992095 -4.21187786 -0.38012381
  H -2.88626487 -3.71770091  1.03288923
