31
opt_min/./Product_3835_opt.xyz
  C -3.29748300 -0.32232600  0.51053800
  C -2.06338138  0.55557451  0.36136832
  C -2.30428665  1.93528903  0.98137985
  C -0.72321138 -0.08326871  0.86761702
  C -0.85069582 -1.46858044  1.43977330
  O -0.32755298 -2.46202308  1.03128630
  C  0.12781753  0.03316168 -0.44243455
  C  1.60998335  0.02397577 -0.28131692
  C  2.29716340  1.22909459 -0.21545693
  C  3.66929081  1.22367863 -0.03878907
  C  4.35094658  0.02313610  0.06939104
  C  3.66260582 -1.17651364 -0.00338655
  C  2.29026055 -1.18225350 -0.17840426
  O -0.39816889  1.20466010 -1.01841768
  N -1.74673785  0.78752976 -1.07979365
  C -1.58329874 -0.52274729 -1.69161208
  O -2.38076590 -1.07330458 -2.37111232
  O -0.37674060 -0.97709402 -1.33530614
  H -3.53491568 -0.45267817  1.56398729
  H -3.16448902 -1.30225932  0.05757502
  H -4.13838748  0.16359102  0.02154049
  H -2.01740503  1.95011055  2.03011089
  H -3.35387003  2.20329488  0.90597772
  H -1.71990855  2.68070808  0.44714262
  H -0.26719696  0.54259136  1.64097611
  H -1.49070875 -1.48666940  2.34361120
  H  1.75264360  2.15538048 -0.31378386
  H  4.20554119  2.15907077  0.01043978
  H  5.42227090  0.02295819  0.20651322
  H  4.19499918 -2.11211831  0.07495600
  H  1.74125490 -2.10821710 -0.24054101
