34
opt_min/./Product_635_opt.xyz
  C -3.13959810  2.83606181 -0.11883834
  N -2.23287746  1.73456799 -0.34107403
  C -1.94018645  0.85553283  0.62377571
  O -2.40668988  0.82526513  1.74186372
  C -0.92858466 -0.18210960  0.21285534
  C -1.10850565 -1.34787745 -0.39837633
  C -2.36355274 -1.89689410 -0.99155041
  F -2.34889496 -1.83433969 -2.33332936
  F -3.46579515 -1.26387640 -0.58871556
  F -2.52736111 -3.19730148 -0.67933186
  C  0.18142541 -2.13653292 -0.48167176
  C  0.62303388 -2.34212930 -1.85203189
  N  1.00258486 -2.50257902 -2.91582023
  N  1.16443893 -1.32549173  0.23811787
  C  1.82433679 -2.03288478  1.31516933
  C  0.53671120 -0.02877700  0.55813912
  C  1.17324125  1.04283668 -0.40434671
  N  2.47256633  1.23376263 -0.18920734
  C  3.28764640  2.09351628 -1.01540011
  O  0.51060082  1.59568512 -1.25314852
  C  0.75316899  0.42240292  1.91522908
  N  1.01586741  0.80435422  2.95971729
  H -3.91035895  2.84091312 -0.89053193
  H -2.60481751  3.78654449 -0.14110714
  H -3.60557427  2.69203895  0.85403279
  H -1.64978576  1.75422006 -1.16928384
  H  0.05357789 -3.12932020 -0.01964663
  H  2.39998510 -2.85206045  0.88116006
  H  2.51515089 -1.36324912  1.82688623
  H  1.12824078 -2.44034676  2.06081830
  H  2.94785410  0.69446545  0.51858432
  H  3.80536204  2.82444201 -0.39558619
  H  2.62977961  2.60358225 -1.71670316
  H  4.02070077  1.50500867 -1.57031117
