32
opt_min/./Product_3410_opt.xyz
  C -1.89582610 -1.54025985 -1.34870003
  C -1.15798143 -0.71410782 -0.30689720
  C  0.24611524 -1.24031018  0.00906596
  C  0.29434847 -2.43165197  0.95086138
  C  0.93106177  0.02784645  0.58251112
  C  0.57001390  0.23081617  1.97504155
  N  0.26026039  0.50016828  3.04193634
  C  2.44587594 -0.17518334  0.44818915
  C  3.06053698  0.35568187 -0.81205621
  O  3.06363545 -0.77918735  1.28754548
  N  0.41444315  1.09581064 -0.25847191
  C  0.65274573  2.44334882  0.20399584
  C -0.92649781  0.74809063 -0.74142242
  C -2.05737420  1.64610906 -0.24277725
  H -1.34830867 -1.54710192 -2.28952574
  H -2.01313327 -2.56607694 -1.00813369
  H -2.88449363 -1.12466218 -1.52900013
  H -1.73331960 -0.71074776  0.62635287
  H  0.75099074 -1.49070938 -0.93136138
  H -0.09879327 -3.31848930  0.45898520
  H -0.29067315 -2.23855640  1.84817146
  H  1.32157619 -2.63108141  1.25101627
  H  3.53506828  1.31099804 -0.59106880
  H  2.30544487  0.51136279 -1.57649844
  H  3.83685274 -0.32642774 -1.15230902
  H  1.69854043  2.52942923  0.49875668
  H  0.47075056  3.13511206 -0.61842247
  H  0.03653779  2.73793573  1.06297901
  H -0.89485652  0.80735877 -1.84109987
  H -2.09343734  1.65393791  0.84480012
  H -3.00374339  1.25928578 -0.61469123
  H -1.94393964  2.66642810 -0.59955200
