51
opt_min/./Product_5541_opt.xyz
  C  5.60163700 -2.22927300 -0.55449100
  C  4.52251569 -1.52560487  0.21078429
  C  4.99494518 -0.56481895  1.26346891
  C  3.23026177 -1.72398981 -0.08276100
  C  2.11337323 -1.05606989  0.53539314
  C  0.85091819 -1.28164131  0.16740044
  C -0.36908455 -0.57869449  0.70323076
  C -0.14339344  0.07712989  2.05935696
  C -1.55136698 -1.56405493  0.73239021
  N -2.13906171 -1.48036854 -0.58463652
  C -3.18365849 -2.23044741 -0.97426044
  O -3.55501979 -3.05105591  0.05897099
  C -4.63858108 -3.91315260 -0.24147164
  O -3.72006069 -2.24819853 -2.05629556
  N -1.49802670 -0.47115670 -1.36094733
  C -2.32691341  0.15236290 -2.37461135
  C -0.84943662  0.41647796 -0.40795318
  C  0.34348978  1.09387929 -1.08524413
  O  0.57760448  1.04526518 -2.26032589
  O  1.10179392  1.75629411 -0.21078513
  C  2.26741636  2.36876920 -0.74507046
  C -1.82484181  1.43829951  0.19660627
  O -3.01341505  1.26162070  0.25145199
  O -1.20992969  2.53275836  0.64046295
  C -2.01488093  3.54761097  1.23098071
  H  5.20127698 -3.06191330 -1.12489700
  H  6.07495214 -1.53630576 -1.25015095
  H  6.37293320 -2.59899419  0.11733750
  H  6.02175804 -0.78381688  1.54467150
  H  4.96210901  0.45777337  0.88828758
  H  4.37701933 -0.61505885  2.15601888
  H  2.97322507 -2.42901165 -0.86241588
  H  2.33609724 -0.34273857  1.31369460
  H  0.64058475 -1.98180401 -0.62742956
  H  0.53503298  0.91930344  1.96736527
  H -1.08114729  0.43600096  2.47721973
  H  0.27792701 -0.65516171  2.74463309
  H -1.22080992 -2.58537201  0.93889525
  H -2.29167657 -1.28624814  1.48990519
  H -4.45746215 -4.45256680 -1.17287081
  H -5.56534845 -3.34431112 -0.34062548
  H -4.71052056 -4.60514852  0.59432892
  H -1.89667043  1.11715601 -2.62722645
  H -3.35895235  0.29428884 -2.04560135
  H -2.31828806 -0.48046364 -3.25944648
  H  2.97871542  1.60181075 -1.05820297
  H  2.68227091  2.97558504  0.05532740
  H  2.01471502  2.98854107 -1.60615916
  H -1.60678266  4.50492976  0.91367380
  H -1.95901181  3.45981470  2.31753898
  H -3.05070303  3.44303393  0.90645981
