45
opt_min/./Product_5179_opt.xyz
  C  3.11590700 -1.18583100 -0.18497800
  C  3.18178506 -1.13778750 -1.68258637
  C  2.46835913 -0.22232340 -2.33673344
  N  1.52001840  0.52107630 -1.65982025
  C  1.37989933  1.92328114 -1.94736025
  C  0.74433498 -0.26055172 -0.72110537
  C  1.68697785 -0.91784254  0.32648379
  C  1.08581809 -2.25781360  0.78929589
  N  1.14860083 -2.45015876  2.11925858
  O  0.63932915 -3.06667962  0.01231921
  N  1.67512570  0.04047927  1.41475369
  N  0.72117228  0.79780750  1.36994695
  C -0.18743812  0.49474413  0.25547788
  C -0.97076952  1.69072152 -0.22182258
  C -1.66272574  1.64557941 -1.42610342
  C -2.45434160  2.71154904 -1.81278567
  C -2.57214835  3.82593906 -0.99956126
  C -1.89625877  3.86862768  0.20714802
  C -1.10539287  2.80282959  0.59903271
  C -1.25264416 -0.44587643  0.83485138
  C -1.53965127 -0.39355971  2.19552453
  C -2.51102170 -1.21674277  2.73743183
  C -3.21511196 -2.08993592  1.92870259
  C -2.95181088 -2.12596866  0.57184642
  C -1.98166909 -1.30497071  0.02482562
  H  3.48265713 -2.13905937  0.20054450
  H  3.75026376 -0.38586595  0.21711516
  H  3.85145760 -1.80765023 -2.19347218
  H  2.58126855 -0.01915072 -3.39478616
  H  1.19485418  2.48561803 -1.03127189
  H  0.56894839  2.13979424 -2.65450241
  H  2.32265764  2.26838460 -2.37394609
  H  0.21855721 -1.05690735 -1.26577519
  H  0.87538640 -3.34457975  2.49414516
  H  1.52219704 -1.74251626  2.73147676
  H -1.57942220  0.78442394 -2.07255982
  H -2.98168680  2.66738319 -2.75556742
  H -3.19322338  4.65614285 -1.30046794
  H -1.99305414  4.73151144  0.85248414
  H -0.57568151  2.83114512  1.53889376
  H -1.00219612  0.29783776  2.82670491
  H -2.71325623 -1.17361906  3.79775859
  H -3.97122772 -2.73376626  2.35262569
  H -3.50611911 -2.79463287 -0.06951348
  H -1.79398562 -1.35607384 -1.03593878
