36
opt_min/./Product_3672_opt.xyz
  C  0.07204400  1.14711500 -1.52409100
  C  1.53160309  0.94442997 -1.77736403
  C  2.33160378  0.29963805 -0.92938518
  N  1.91516520 -0.19686762  0.28584602
  C  2.82654870 -0.88029795  1.16680846
  C  0.51681034 -0.23365623  0.58676090
  C -0.31260019  0.92526053 -0.04596170
  C -0.13835774  2.27952125  0.63293710
  N  1.13681443  2.54142955  0.99901018
  O -1.02803567  3.08267739  0.80249796
  N -1.67669230  0.39908423 -0.01720150
  C -2.35555412  0.45940603  1.28357445
  N -1.45711950 -0.92344588 -0.44781807
  C -2.58130393 -1.67319331 -0.90587438
  C -0.26098796 -1.50475899  0.11512375
  C  0.48121618 -2.34076992 -0.92582925
  H -0.52042599  0.45360092 -2.12791718
  H -0.22589692  2.15696238 -1.81712153
  H  1.92572510  1.32064733 -2.70672516
  H  3.38403624  0.16470662 -1.13502091
  H  3.68008247 -1.26366675  0.60686109
  H  3.20256815 -0.20990629  1.95116887
  H  2.32902015 -1.72133524  1.65130935
  H  0.41080607 -0.15025018  1.67734366
  H  1.89194825  1.93470939  0.73770583
  H  1.34394078  3.47344680  1.32251809
  H -2.00815212  1.30259359  1.87033990
  H -3.42156405  0.59090095  1.09643386
  H -2.21127573 -0.46011633  1.86140874
  H -3.08381005 -1.10806680 -1.69207029
  H -2.23410131 -2.61803492 -1.31823043
  H -3.31849931 -1.89063248 -0.11475246
  H -0.46315325 -2.14898353  0.99466155
  H  0.51490538 -1.81654489 -1.87594966
  H -0.02012159 -3.29525792 -1.06714259
  H  1.49808608 -2.54310571 -0.60049460
