40
opt_min/./Product_4360_opt.xyz
  C -0.41520700  1.26808200  2.40380800
  C -0.36368756  0.09745729  1.42266598
  C -1.77104220 -0.36282886  1.01354858
  C -1.79598715 -1.84529362  0.64993589
  C -2.04617110  0.54444742 -0.19452922
  C -3.13350090  0.08166862 -1.15607365
  C -2.89336206  0.39339580 -2.60696399
  O -4.13725978 -0.45261983 -0.75623372
  O -0.80062100  0.72239854 -0.84549909
  C  0.26874762  0.46886973  0.05033788
  C  1.15718070  1.71493417  0.15267705
  O  0.69617387  2.71008054 -0.59439183
  C  1.45921535  3.90847520 -0.61702383
  O  2.15956942  1.77794160  0.81788387
  C  1.16451345 -0.64006153 -0.48869579
  C  0.94761632 -1.16933553 -1.75445200
  C  1.76096655 -2.17621426 -2.24084566
  C  2.80683659 -2.65759684 -1.47249747
  C  3.03480041 -2.12459540 -0.21637255
  C  2.21903799 -1.12024959  0.27723830
  H -1.00748204  0.98967424  3.27323442
  H  0.58525516  1.52593957  2.74234386
  H -0.86417444  2.14779795  1.94742961
  H  0.19854240 -0.72013113  1.87605610
  H -2.49953585 -0.17267553  1.80380496
  H -1.49817007 -2.44093170  1.50959745
  H -2.79829174 -2.14227750  0.35298882
  H -1.11161516 -2.05329180 -0.16949928
  H -2.40015017  1.53211573  0.16158034
  H -3.74584199  0.94406435 -2.99920399
  H -1.97489153  0.95235790 -2.74107526
  H -2.83973945 -0.54438355 -3.15982583
  H  0.76179385  4.72521994 -0.78964299
  H  1.98390965  4.03823238  0.33174333
  H  2.18886291  3.86161935 -1.42781209
  H  0.13228920 -0.78508147 -2.34814840
  H  1.57447568 -2.57853260 -3.22599789
  H  3.44426322 -3.44266595 -1.85251934
  H  3.85331740 -2.48898093  0.38692946
  H  2.41800592 -0.70107217  1.25079949
