53
opt_min/./Product_5698_opt.xyz
  C -0.26926100 -1.07456100 -2.11542400
  C -0.64096758  0.20018784 -1.35030176
  C -1.71920424  0.93042875 -2.14389348
  C  0.59596757  1.09582190 -1.10296558
  C  1.47755788  1.28568729 -2.30867102
  O  1.75491986  2.36220686 -2.75912418
  C  1.26249062  0.46490383  0.14635540
  C  2.10583829  1.45926334  0.99462713
  C  2.71483355  2.61136785  0.25897364
  O  2.33333240  1.24084956  2.15617201
  C  2.37088277 -0.53919482 -0.22188663
  O  3.30034727 -0.27560817 -0.94159896
  O  2.21568300 -1.70523319  0.39854307
  C  3.25115189 -2.66177753  0.20132215
  N  0.17971500 -0.20390941  0.83930709
  C  0.13517729 -0.32887850  2.28030475
  C -1.08169875 -0.10928809  0.12349943
  C -1.78173664 -1.48528616  0.10216304
  N -1.00187632 -2.49915959  0.51791385
  C -1.44077590 -3.87018441  0.51395751
  O -2.91183545 -1.66120517 -0.30992791
  C -1.97100445  1.00514327  0.68038865
  C -3.36050230  0.96064302  0.61165445
  C -4.13240048  1.99393601  1.11053117
  C -3.53681586  3.10181095  1.68560014
  C -2.15751848  3.16310284  1.75947688
  C -1.38563453  2.12798776  1.26272593
  H  0.02829189 -0.82380312 -3.13072056
  H -1.13190484 -1.73207120 -2.18857242
  H  0.53947234 -1.61650137 -1.63465777
  H -1.98821933  1.87284099 -1.67364532
  H -2.60855313  0.30936485 -2.20477498
  H -1.36428359  1.13723474 -3.15142535
  H  0.21996018  2.08456541 -0.81882177
  H  1.84978522  0.36186755 -2.77557406
  H  3.33029937  2.22527296 -0.55190287
  H  3.33316192  3.18380147  0.94669743
  H  1.95970246  3.26006885 -0.17760917
  H  3.42057425 -2.82992830 -0.86318396
  H  2.91731584 -3.57571933  0.68520381
  H  4.17859796 -2.30459270  0.65265908
  H -0.76275608 -0.88716202  2.54031128
  H  0.09955910  0.62220110  2.82064589
  H  1.01306378 -0.87711984  2.62322533
  H -0.04792660 -2.28931022  0.77326693
  H -0.86144641 -4.45620535 -0.20453343
  H -1.33630662 -4.31496006  1.50394707
  H -2.48953247 -3.88277960  0.22062438
  H -3.83728642  0.10450227  0.16568289
  H -5.20857237  1.93319602  1.04488784
  H -4.14017309  3.90977247  2.07225217
  H -1.67555696  4.02081012  2.20585322
  H -0.31329934  2.21687714  1.34653879
