45
opt_min/./Product_4792_opt.xyz
  C  4.61521000 -1.30696700 -0.45952300
  C  3.50389894 -0.29953952 -0.44842253
  C  3.72138135  0.94975452  0.35400639
  C  2.39401756 -0.50421715 -1.14970296
  C  1.24143247  0.44896357 -1.23512959
  C  0.22208319  0.29788686 -0.07047462
  C  0.34365300 -1.02235190  0.64349645
  C -0.02254395 -2.27644063 -0.09731084
  C  0.78251125 -1.06736625  1.89317315
  C -1.12273121  0.48956340 -0.82079702
  C -1.40030381  2.00780211 -0.90108121
  O -1.76052014  2.49679463  0.29635795
  C -2.08287002  3.88075455  0.34495386
  O -1.32195414  2.66730150 -1.89549429
  C -2.31496212 -0.19232595 -0.20406464
  C -2.53316971 -0.14501396  1.16676448
  C -3.64555301 -0.76359630  1.70911744
  C -4.54751612 -1.42735760  0.89460715
  C -4.33846679 -1.46147398 -0.47251834
  C -3.23047154 -0.84220092 -1.02172443
  O -0.89038698 -0.01908157 -2.11120575
  N  0.46431558  0.30660637 -2.46672034
  H  4.23287829 -2.30708828 -0.65366094
  H  5.14634136 -1.31620342  0.49131439
  H  5.33279226 -1.06243509 -1.24486792
  H  3.66708894  1.83051239 -0.28863920
  H  2.95082202  1.04552377  1.11669007
  H  4.69297308  0.93567701  0.84180674
  H  2.28694103 -1.42110865 -1.71291217
  H  1.61361182  1.48500971 -1.23692941
  H  0.36722106  1.10055370  0.65484060
  H  0.84345049 -2.93334276 -0.17506328
  H -0.39023898 -2.06060873 -1.09813633
  H -0.80532655 -2.81436048  0.44044074
  H  1.04380796 -0.18074677  2.44687197
  H  0.89948152 -2.00352658  2.41215161
  H -2.74912082  4.01559684  1.19557059
  H -1.17373188  4.46993536  0.48128469
  H -2.56935362  4.18400105 -0.58598861
  H -1.84167061  0.37787511  1.80610295
  H -3.80795863 -0.72617350  2.77687035
  H -5.41339258 -1.91225658  1.32542297
  H -5.04113528 -1.96973846 -1.11917992
  H -3.06091345 -0.86372236 -2.08594053
  H  0.76849453 -0.50192222 -3.01361487
