39
opt_min/./Product_531_opt.xyz
  C  0.81172417  3.77449797  0.26037185
  O  0.49706950  2.39273060  0.37567812
  C -0.47626862  1.94422467 -0.41359650
  O -1.09370839  2.64132529 -1.17505160
  C -0.72673508  0.45233083 -0.24259616
  C -1.96290189 -0.00192548 -1.05978848
  C -2.88421195 -0.62321536 -0.00538045
  C -3.43365272  0.54006047  0.83074415
  C -2.22290993  0.95725453  1.69617009
  C -1.10266275  0.03661763  1.19840692
  C -1.87559178 -1.26317888  0.95062454
  N -1.38680118 -0.96943364 -1.99196026
  C -2.09461033 -1.60419004 -2.89622671
  N -2.74735787 -2.14781902 -3.66825347
  N -0.06474641 -1.13680432 -1.82394903
  C  0.38161772 -0.39761054 -0.87325773
  C  1.78455117 -0.47225408 -0.51092228
  C  2.64231367 -1.19815097 -1.34681406
  C  3.98295546 -1.32265971 -1.04818540
  C  4.50285611 -0.72869859  0.09137059
  C  3.66514964 -0.01285340  0.92840436
  C  2.31920359  0.11599003  0.63626774
  H  0.00938855  4.38482130  0.68075951
  H  0.94760163  4.04778533 -0.78670371
  H  1.73067319  3.92395039  0.82132369
  H -2.44042272  0.81252090 -1.61155047
  H -3.64414941 -1.28485605 -0.41825959
  H -3.76833935  1.35707657  0.19361997
  H -4.27173558  0.21990254  1.44609922
  H -2.40935311  0.76237351  2.75170986
  H -1.98227493  2.01242669  1.58444443
  H -0.25457083 -0.06023714  1.87122911
  H -2.33960172 -1.64622720  1.85577468
  H -1.27200809 -2.04267723  0.48921506
  H  2.23341489 -1.65709947 -2.23296251
  H  4.62696617 -1.88513117 -1.70758213
  H  5.55258169 -0.82330369  0.32629482
  H  4.05278319  0.45313854  1.82258085
  H  1.69419440  0.68262176  1.30531888
