58
opt_min/./Product_3005_opt.xyz
  C  0.01737300 -3.55951600  0.17820900
  C -0.39399190 -2.51159468 -0.81966407
  O -0.17710656 -2.68805139 -1.98805981
  C -1.21100509 -1.23073300 -0.36790128
  C -2.32254934 -1.25540593 -1.45918818
  F -2.81744208 -2.51312844 -1.54643112
  F -1.91132618 -0.89818726 -2.66336637
  F -3.41051680 -0.51254969 -1.20197318
  C -0.25629212 -0.02601107 -0.49215164
  C -0.27274052  1.31034306 -0.30977879
  C -1.31979341  2.26391933  0.24070820
  C -1.83896818  3.17172166 -0.90288113
  F -2.82956825  3.97188387 -0.49914761
  F -2.31803960  2.43225832 -1.90368181
  F -0.91482151  3.97921377 -1.43492826
  C -0.77861654  3.17717894  1.36906787
  F -0.02828578  4.20032692  0.95114230
  F -1.78391473  3.74248001  2.05035298
  F -0.04559214  2.50740077  2.25918672
  C -2.56821607  1.56371804  0.79122985
  C -2.29299140  0.67459753  2.00527511
  C -2.83700329 -0.72113448  1.75526586
  C -1.84302930 -1.60753131  1.00002698
  C  1.01395020  1.93331231 -0.87483000
  C  1.87557738  2.94652129 -0.08762883
  C  2.19390985  4.22251778 -0.79550008
  O  2.39834147  2.59656543  0.94014168
  N  1.90977846  0.81987447 -1.09480640
  C  1.14661956 -0.42508716 -0.97909820
  C  1.89361419 -1.12963641  0.15298289
  O  1.27405193 -0.89934044  1.31787416
  C  2.00325030 -1.15955982  2.51772132
  O  2.97246618 -1.65043413  0.06193932
  C  1.24190893 -0.90245660 -2.46315010
  C  2.28845645 -1.92024061 -2.79533007
  O  0.62724808 -0.28024777 -3.28258299
  H  0.41523466 -3.16466969  1.10360353
  H  0.76144632 -4.19092893 -0.30335372
  H -0.84496223 -4.18210651  0.41176599
  H -2.93593833  0.94763992 -0.01564381
  H -3.33714168  2.30076861  1.01840916
  H -1.22644489  0.58342382  2.20410440
  H -2.75894953  1.11008148  2.88950107
  H -3.80544146 -0.67921976  1.25650244
  H -2.99519611 -1.22051418  2.71357571
  H -1.01064821 -1.76696204  1.68270696
  H -2.34761402 -2.56105274  0.83331837
  H  0.75744103  2.35514073 -1.85810726
  H  2.50440034  3.99243254 -1.81265785
  H  1.32417271  4.86919441 -0.85331966
  H  2.99037051  4.73869550 -0.26616261
  H  2.69537355  0.81724010 -0.45061427
  H  2.82595396 -1.84710911  2.31619635
  H  1.30774396 -1.58759797  3.23753763
  H  2.39367708 -0.21383368  2.89520931
  H  3.20358591 -1.37336283 -3.02174814
  H  2.49354511 -2.60491060 -1.98187866
  H  1.97967937 -2.46168894 -3.68482042
