39
opt_min/./Product_4927_opt.xyz
  C -0.36666843  0.98054781 -0.02970248
  O  0.22040375  1.91312360  0.47693699
  C -1.81934065  0.83924089  0.02367024
  O -2.63297808  1.90081811  0.12679124
  C -2.14798060  3.19096697 -0.19235711
  C -2.39461084 -0.40760422  0.17931437
  O -3.73556179 -0.39487281  0.35297944
  C -4.39266580 -1.43309282  1.06348597
  C -1.61325607 -1.64024069  0.06614168
  O -2.11267117 -2.74799898  0.12047011
  C -0.12012306 -1.52013378 -0.19650163
  C  0.31564965 -2.72548503 -1.04845406
  C  0.38913046 -0.16420601 -0.72637719
  C  0.32169529  0.05278236 -2.23525502
  N  1.74308780 -0.12811332 -0.14005597
  C  2.71541556  0.85680325 -0.39207069
  N  3.67882139  0.87476244  0.54158751
  C  4.80923693  1.76233775  0.45847192
  O  2.68641477  1.54844232 -1.38511073
  N  1.76561834 -0.82586798  0.99704512
  C  0.73295035 -1.58708246  1.07513223
  C  0.45729310 -2.44490821  2.14357424
  N  0.17966649 -3.14473491  3.01033897
  H -1.71045088  3.66489027  0.69000063
  H -1.40139266  3.17168251 -0.98769244
  H -3.01989694  3.75716275 -0.51828833
  H -5.44738515 -1.16807712  1.01825516
  H -4.06537749 -1.45144623  2.10639217
  H -4.22714183 -2.40960301  0.61281763
  H  1.36105567 -2.63262693 -1.33484074
  H  0.18481643 -3.63513171 -0.46609980
  H -0.30164051 -2.81607923 -1.93907209
  H  1.19789004  0.61260456 -2.55112627
  H  0.28204227 -0.88693257 -2.77475085
  H -0.56364617  0.63399928 -2.48552004
  H  3.59978526  0.23831167  1.32036370
  H  5.71880787  1.21302183  0.20283128
  H  4.60164673  2.49189454 -0.32239693
  H  4.95595958  2.27673241  1.40804550
