27
opt_min/./Product_2080_opt.xyz
  C -1.33257182  3.15941771 -0.99757527
  N -1.46482632  1.80809620 -0.50273054
  C -0.42276658  1.15476126  0.01665581
  O  0.68200472  1.62742905  0.16996627
  C -0.71922187 -0.27879996  0.49152602
 Br -1.78816170 -0.02417374  2.13311910
  C -1.43168487 -1.19788330 -0.49971227
 Br -3.36515164 -1.08139132 -0.52938126
 Br -0.77707202 -0.81303764 -2.31516351
  C -0.93602981 -2.58968633 -0.07686963
  C -1.72396735 -3.13377062  1.02821310
  N -2.28013695 -3.56867607  1.92463692
  O  0.40182750 -2.38301974  0.30414865
  C  0.56421270 -1.06714982  0.81487538
  C  1.81825682 -0.48586405  0.11287639
  O  2.70952480 -0.11380398  1.00695017
  C  3.92179793  0.46512576  0.53041934
  O  1.95715172 -0.51454073 -1.07798045
  H -1.13724401  3.15687179 -2.07166056
  H -0.49318524  3.63058223 -0.48923793
  H -2.24882959  3.70821963 -0.79478632
  H -2.37403135  1.37788701 -0.58383143
  H -0.95166056 -3.31667829 -0.89964191
  H  0.75776760 -1.10051144  1.89420981
  H  3.93031758  1.51463337  0.82280693
  H  4.74998975 -0.06491344  0.99847313
  H  3.97394692  0.37695145 -0.55550894
