35
opt_min/./Product_1946_opt.xyz
  C  1.17204975 -2.10039411  1.14025702
  C  0.52885164 -1.72939918 -0.19717961
  F -0.07842248 -2.90188201 -0.66480551
  C -0.59555168 -0.75038176 -0.01403027
  C -0.74314430  0.58377769  0.01594342
  C  0.19545716  1.71747246  0.12468961
 Br -0.29747963  2.69446826  1.82668357
 Br -0.10466666  2.97348564 -1.35803895
  C  1.68639357  1.44644458  0.27950587
  C  2.44064995  0.98584155 -0.97272181
  C  2.72147868 -0.51277903 -1.00777183
  C  1.50599924 -1.37221116 -1.33321492
  C -2.28252724  0.78939405 -0.08107753
  C -3.01855212  2.06279963  0.24236830
  O -2.56420020  0.39679581 -1.48134228
  C -2.42278904 -0.91915040 -1.53081000
  O -2.52274817 -1.63327718 -2.46960470
  C -2.03712032 -1.29189072 -0.03908202
  C -2.30822044 -2.61480195  0.44626647
  N -2.53044958 -3.64727013  0.87708990
  O -2.77255677 -0.28987835  0.63517972
  H  1.36205631 -1.22518517  1.75402025
  H  2.09928929 -2.64090529  0.97193497
  H  0.48456501 -2.75336093  1.67514811
  H  2.13461762  2.38183970  0.62182903
  H  1.81180652  0.71300849  1.08247368
  H  3.40016757  1.50431277 -0.99047922
  H  1.90541474  1.27304457 -1.87828190
  H  3.17462566 -0.82367494 -0.06620201
  H  3.45573790 -0.69111999 -1.79570169
  H  0.93522806 -0.91237571 -2.14429992
  H  1.85943229 -2.33792692 -1.70189852
  H -4.01042306  1.98484766 -0.19721151
  H -3.11994237  2.15001890  1.32060723
  H -2.53184400  2.94243060 -0.16382127
