58
opt_min/./Product_2075_opt.xyz
  C  3.50634700 -1.34102100  1.24881600
  C  2.05481612 -1.60276800  0.94739203
  O  1.50734314 -2.56603636  1.42298267
  C  1.34116158 -0.60484058  0.03802379
  C -0.08286221 -0.97440585 -0.53986996
  C -0.76070545 -2.27709369 -0.11292301
  C  0.21412379 -0.94677269 -2.06196026
  C  1.17150608 -2.08654474 -2.45748445
  C  2.54004460 -1.62309458 -1.92251521
  C  2.18513129 -0.30263787 -1.24014096
  C  1.14209428  0.25614948 -2.20449115
  C -0.98035670  0.24908206 -0.05866420
  C -1.85923915 -0.11598551  1.14852936
  C -1.24806294 -0.45933547  2.35138159
  C -1.99797080 -0.78581578  3.46460315
  C -3.38078958 -0.76432038  3.40497298
  C -3.99808753 -0.40695636  2.22112261
  C -3.24604696 -0.08083589  1.10450596
  C -1.82312580  0.89122556 -1.14237114
  C -2.66969298  0.13797334 -1.95167561
  C -3.43760396  0.74471205 -2.92925559
  C -3.38527051  2.11581064 -3.10969138
  C -2.56944523  2.87670542 -2.29195178
  C -1.79904731  2.26918465 -1.31622280
  N -0.06742625  1.22510154  0.49037684
  C  1.09069747  0.75081843  0.66300772
  C  2.08425229  1.62872501  1.36281553
  N  1.93376136  2.92070998  1.01430904
  C  2.72807137  3.97899684  1.58275188
  O  2.89803987  1.24021148  2.17781006
  H  3.56194865 -0.93445329  2.25769854
  H  3.98303977 -0.63970422  0.57656058
  H  4.03899694 -2.29060649  1.24649735
  H -0.37487832 -3.13282359 -0.65586136
  H -0.62826721 -2.47584216  0.94325100
  H -1.82834788 -2.20962031 -0.31078967
  H -0.67647184 -0.93386771 -2.68398184
  H  1.18522686 -2.18772467 -3.54312367
  H  0.88741951 -3.05077368 -2.04544094
  H  3.24042663 -1.43908526 -2.73898698
  H  2.99073920 -2.34722013 -1.24685333
  H  3.03324280  0.35122322 -1.03598925
  H  0.70159650  1.19963879 -1.89063417
  H  1.53108552  0.36746344 -3.21568436
  H -0.17049798 -0.48105129  2.42795367
  H -1.49865537 -1.05693784  4.38295932
  H -3.96876273 -1.01904099  4.27406582
  H -5.07636361 -0.37651802  2.15738004
  H -3.76354283  0.20467061  0.20179282
  H -2.74742253 -0.92965908 -1.81101057
  H -4.08364727  0.14064114 -3.55020280
  H -3.98443881  2.58858755 -3.87381503
  H -2.53406686  3.95005172 -2.41059633
  H -1.17554491  2.86714023 -0.66983676
  H  1.18236067  3.16218452  0.38829798
  H  3.38059976  4.42230574  0.82678558
  H  2.08706596  4.75492571  2.00148078
  H  3.33866308  3.54540644  2.37340328
