35
opt_min/./Product_4406_opt.xyz
  O  1.76506900  0.23721900  2.68963600
  C  0.77287676 -0.19662544  3.05181306
  O -0.20684904 -0.64051931  3.44141357
  C  0.00504034 -1.33846785  0.12509159
  C -1.27675908 -1.62517046 -0.01740833
  C -2.64785540  0.30850027  2.34238392
  O -3.34705727 -0.54609657  2.63836126
  O -1.95420317  1.16579886  2.03944833
  C -1.82076741 -1.07281855 -1.31072841
  C -2.17973734 -2.22271079 -2.26032614
  C -3.03267329 -0.16942448 -1.07829424
  N -0.69048244 -0.32659182 -1.87628613
  C  0.49524331 -0.54558940 -1.06551538
  C  1.52505935 -1.31777698 -1.89741783
  O  2.04152421 -2.34538013 -1.21383491
  C  2.99678842 -3.16031015 -1.88609041
  O  1.83667457 -1.02838161 -3.01885392
  C  1.10119077  0.78246037 -0.57201097
  C  2.55698592  0.74007877 -0.22858806
  O  0.40909310  1.76261789 -0.49356629
  H  0.66849770 -1.64461077  0.91144610
  H -1.88201668 -2.20366738  0.65604442
  H -1.28747382 -2.79624358 -2.49741227
  H -2.91278539 -2.88277129 -1.80287736
  H -2.58539533 -1.82363467 -3.18522272
  H -2.73855294  0.71237442 -0.51203831
  H -3.80148440 -0.70053298 -0.52096065
  H -3.44856781  0.14613990 -2.03176409
  H -0.89681202  0.66537229 -1.93635243
  H  3.74446930 -3.45196482 -1.15118139
  H  3.45271352 -2.60103429 -2.70432955
  H  2.49782067 -4.04603717 -2.28177878
  H  2.81389678 -0.19335755  0.26521764
  H  3.11923499  0.80078188 -1.16078796
  H  2.82438799  1.58405447  0.40128157
