39
opt_min/./Product_5005_opt.xyz
  C -1.90247700  0.08598000  0.70639100
  C -2.15557436 -1.30471190  1.18715997
  C -1.18563863 -2.20553414  1.05345604
  N -0.02226412 -1.96972666  0.36586174
  C  1.02808193 -2.95268062  0.34228027
  C  0.05529223 -0.92477990 -0.60859044
  C -1.14304927  0.06109482 -0.63004680
  C -2.04502106 -0.28241871 -1.84263205
  N -3.09718320  0.52868241 -2.01714467
  O -1.81498801 -1.24571853 -2.54033560
  C -0.37500604  1.43091230 -0.73969742
  C -1.11580723  2.71942158 -0.44651959
  C -0.35625798  3.68093436  0.40501937
  O -2.21535709  2.93499032 -0.89160709
  C  0.34903411  1.34964257 -2.11591102
  O  0.05825326  1.85991463 -3.14770233
  O  1.40247240  0.56012317 -1.87494817
  C  1.25149069  0.11413917 -0.51492513
  C  2.60649346 -0.33657596  0.02673753
  O  2.76555294  0.09751806  1.26889468
  C  3.99505972 -0.25482304  1.90458602
  O  3.38600261 -1.00197019 -0.59228367
  O  0.72713478  1.22014724  0.13483727
  H -2.82848452  0.65254353  0.60613269
  H -1.26433699  0.61025716  1.42994229
  H -3.08572196 -1.54087077  1.66872863
  H -1.28052945 -3.20912371  1.44346420
  H  1.88336720 -2.64491431  0.95044626
  H  0.64764270 -3.89457216  0.73616905
  H  1.38075827 -3.11098931 -0.68046221
  H  0.15585959 -1.38655144 -1.60499368
  H -3.67764648  0.33915364 -2.82225861
  H -3.10611141  1.47598779 -1.65799932
  H  0.07651512  3.17116616  1.26189956
  H  0.46831771  4.08180116 -0.18509485
  H -1.01000250  4.49478866  0.70890662
  H  4.81293096  0.34062903  1.49915834
  H  3.85452718 -0.04961727  2.96271373
  H  4.20748103 -1.31374012  1.74068910
