36
opt_min/./Product_927_opt.xyz
  C -3.16764500 -2.72075700  1.64289700
  O -2.01933928 -2.11869296  1.05402178
  C -1.64108782 -0.96119201  1.56901570
  O -2.17557808 -0.40961080  2.49710888
  C -0.45374222 -0.44595626  0.83272455
  C  0.70653267 -1.09253917  0.55856362
  C  1.19889281 -2.38842030  1.10646274
  F  0.50608677 -2.75170232  2.20787818
  F  1.11034162 -3.40536550  0.25319369
  F  2.47926846 -2.29377964  1.50101708
  C  1.45591542 -0.23558907 -0.35065766
  C  2.76919054 -0.60145344 -0.96620320
  N  3.61063405  0.44456496 -1.05784509
  C  4.91144654  0.33272234 -1.67215521
  O  3.01194273 -1.72969972 -1.33066914
  N  0.81281425  0.84050215 -0.64141633
  C -0.41761520  0.83926405  0.07734268
  C -1.67632638  0.99937502 -0.82854869
  C -1.39504765  1.73914588 -2.08260725
  O -2.73100226  0.56884444 -0.46360124
  C -0.40940029  2.18736024  0.89475658
  C -0.42130855  2.02272602  2.36743884
  O -0.35174069  3.22347670  0.30555064
  H -3.30651505 -3.66693109  1.12751087
  H -2.99971482 -2.88003572  2.70957254
  H -4.03594004 -2.07349576  1.50724343
  H  3.26312733  1.36542229 -0.83343969
  H  4.93293182  0.83619054 -2.64054830
  H  5.11580495 -0.72715422 -1.81442913
  H  5.67185868  0.76686801 -1.02279899
  H -2.31343845  1.89489704 -2.64125439
  H -0.66973375  1.18417827 -2.67452003
  H -0.93343120  2.69217755 -1.81999288
  H -0.42589279  2.99973695  2.84477064
  H  0.45690211  1.45788711  2.68152055
  H -1.29476696  1.44284848  2.67334367
