57
opt_min/./Product_5897_opt.xyz
  C -0.28736700 -2.11194500 -1.05299400
  C  0.77082419 -2.28697012 -2.09503566
  C  1.34539372 -1.27075357 -2.72973992
  N  1.06086222  0.04507052 -2.44073905
  C  1.68854294  1.13824300 -3.12638097
  C  0.26046374  0.33483665 -1.31533351
  C -0.87340864 -0.68951194 -1.05718267
  C -1.90638883 -0.61589662 -2.19791357
  N -2.46128356  0.59564795 -2.43644625
  O -2.15251510 -1.56013106 -2.90789826
  C -1.34026210 -0.27990675  0.37192461
  C -2.37209614  0.88099281  0.36859267
  N -1.86713001  2.12645518  0.43561175
  C -2.72855490  3.28606606  0.47199175
  O -3.57181936  0.66553373  0.34903997
  C -2.10683654 -1.41459708  1.12216355
  O -2.30426127 -2.51785185  0.67591790
  N -2.55574680 -1.03678353  2.33781746
  C -3.39111053 -1.90360649  3.13513552
  N -0.08720663  0.12721365  1.00466746
  C  0.18767671 -0.04766496  2.40670623
  C  0.99376114  0.35111945  0.07946889
  C  1.53488204  1.75165683  0.38615465
  O  0.92322449  2.76915168  0.14169587
  O  2.67771189  1.72881465  1.05175995
  C  3.23113411  2.98923120  1.41794861
  C  2.18537197 -0.61026521  0.08352170
  O  3.16308951 -0.40954202 -0.59126275
  O  2.03386012 -1.62752608  0.92465194
  C  3.06374980 -2.60792954  0.95821499
  H -1.09540333 -2.81406083 -1.25921000
  H  0.10142365 -2.35438028 -0.06162028
  H  1.02570556 -3.29904309 -2.36096858
  H  2.07710025 -1.41856950 -3.50838289
  H  2.33018123  0.74870856 -3.91181129
  H  0.93675242  1.79463462 -3.57757318
  H  2.30346919  1.73071525 -2.43970088
  H -0.15751087  1.34028468 -1.44917063
  H -2.36882853  1.38702158 -1.82961227
  H -3.16358617  0.63564249 -3.15644029
  H -0.86751296  2.28601706  0.43897741
  H -2.25257230  4.07165970  1.05369584
  H -3.67707445  3.00192497  0.92808518
  H -2.93069636  3.66280844 -0.53451665
  H -2.50831476 -0.07086100  2.61380935
  H -3.60476106 -2.79274784  2.54453362
  H -2.87479834 -2.19491966  4.05279848
  H -4.32513819 -1.40307190  3.38893487
  H  1.22215820  0.23368524  2.59351046
  H  0.05520731 -1.08284164  2.73618108
  H -0.45174797  0.60517542  3.01149964
  H  3.33142757  3.62568044  0.53760277
  H  2.58471658  3.48607014  2.14442828
  H  4.20430024  2.77668581  1.85097914
  H  2.71482215 -3.49854895  0.43393795
  H  3.95965703 -2.22012533  0.47123233
  H  3.26146218 -2.84044137  2.00320068
