41
opt_min/./Product_774_opt.xyz
  C -0.39926700  3.66053700  0.31707100
  N -0.57831661  2.22458767  0.36150651
  C  0.43330032  1.40489124  0.03121999
  O  1.53062749  1.83689155 -0.25951733
  C  0.15686413 -0.10570326  0.05693175
  C  0.12938164 -0.64317709  1.50290961
  C -0.51367665  0.21582665  2.55931772
  O  0.66548062 -1.68234505  1.77980770
  C -1.05442757 -0.52318240 -0.87473139
  C -2.27455194  0.41619071 -0.92659267
  C -3.33935137  0.29303800  0.13135753
  O -2.39182405  1.17929137 -1.85381997
  C -1.51890820 -1.92625088 -0.41909204
  C -1.52148047 -2.99422313 -1.45680872
  O -1.84767313 -2.09840086  0.72934514
  N -0.49433094 -0.57447616 -2.20521077
  N  0.88620680 -0.95417023 -2.10463557
  C  1.29263258 -0.83432110 -0.71386662
  C  2.66933461 -0.17274571 -0.61806486
  O  3.11825576 -0.17208334  0.63418107
  C  4.39793409  0.41328914  0.83584762
  O  3.29966026  0.15874551 -1.58782195
  H -1.34238119  4.14572762  0.54798479
  H -0.06534622  3.96143001 -0.67654963
  H  0.36219774  3.96783856  1.03634088
  H -1.47418297  1.86699441  0.63316716
  H  0.01048668  1.16517165  2.63811550
  H -0.44274168 -0.31145876  3.50693465
  H -1.56058960  0.40455103  2.34068468
  H -4.24000806 -0.06495367 -0.36791424
  H -3.08175410 -0.39766977  0.92667797
  H -3.58638595  1.27433942  0.53624729
  H -0.67560106 -3.65127000 -1.25958551
  H -2.42749529 -3.58866479 -1.35876569
  H -1.41938706 -2.57808017 -2.45231098
  H -0.61776625  0.32696509 -2.67022203
  H  1.46604736 -0.33221800 -2.66995537
  H  1.39111083 -1.83817325 -0.27566894
  H  4.51183207  1.28265344  0.18634168
  H  5.17906925 -0.31446773  0.60939661
  H  4.44317746  0.70454889  1.88256226
