62
opt_min/./Product_2588_opt.xyz
  C -4.25290066 -0.78801549  1.12296648
  C -2.84667954 -0.86796627  1.64572654
  O -2.64308567 -0.87318367  2.83579077
  C -1.62918362 -0.98427427  0.69418358
  C -1.87171156 -1.40710970 -0.77109687
  C -2.90658542 -2.45614587 -1.07786257
  O -1.13640869 -1.00607659 -1.63768337
  C -0.94514726  0.38134418  0.58998732
  C  0.32038277  0.81870009  0.46474606
  C  1.62444678  0.22321929  0.94439624
  F  2.28536085  1.27250759  1.60659954
  C  2.54366252 -0.26797854 -0.15549629
  C  2.06507568 -0.70066235 -1.38406383
  C  2.94100898 -1.20532902 -2.33095894
  C  4.29763125 -1.26567484 -2.06909586
  C  4.78090842 -0.81379597 -0.85319363
  C  3.90905767 -0.32445709  0.10129127
  C  1.47440060 -0.82696291  2.06285656
  C  1.55695174 -2.27861197  1.62032228
  C  0.41638083 -2.67144497  0.69207328
  C -0.93284700 -2.25875641  1.26899052
  C  0.34615765  2.21052573 -0.18710476
  C  0.76340090  2.04561929 -1.69553872
  C  2.19189759  2.19867247 -2.10675627
  O -0.12801282  1.91758180 -2.49411126
  C  1.18828253  3.32784664  0.47630020
  C  0.39110142  4.34978027  1.23448213
  O  2.37708460  3.43396076  0.34117288
  N -1.04367223  2.62232573 -0.16903635
  C -1.90869423  1.52709828  0.24742425
  C -2.73057499  2.05002048  1.45989934
  C -2.82750946  1.17681441 -0.81811228
  N -3.58350375  0.96969072 -1.65095425
  H -4.78338715 -1.68026334  1.45513949
  H -4.75043031  0.05489058  1.60070536
  H -4.32952719 -0.68355799  0.04988858
  H -3.39798085 -2.87163760 -0.20698735
  H -2.41610839 -3.25050357 -1.63879546
  H -3.64424378 -2.01281552 -1.74556877
  H  1.01491985 -0.63284183 -1.62123754
  H  2.55428716 -1.54349486 -3.28036008
  H  4.97738188 -1.65678437 -2.81097160
  H  5.83945276 -0.84711584 -0.64397203
  H  4.28703824  0.03079876  1.04738482
  H  0.54324693 -0.63627453  2.59518055
  H  2.28835632 -0.63663350  2.76561413
  H  2.51023392 -2.47135566  1.12712424
  H  1.51631355 -2.90186757  2.51722163
  H  0.43525636 -3.75651324  0.57058828
  H  0.55914287 -2.23698732 -0.29398875
  H -1.64796828 -3.06604021  1.09346339
  H -0.85556051 -2.15380716  2.35236010
  H  2.90698381  2.09510583 -1.30236719
  H  2.27635767  3.19902964 -2.53022415
  H  2.43463086  1.49069433 -2.89326915
  H  1.07417812  5.05428320  1.70120695
  H -0.29589791  4.87190029  0.57585007
  H -0.19369667  3.85215576  2.00461208
  H -1.33070531  3.01623840 -1.06021089
  H -2.28705259  2.99166195  1.77101803
  H -3.76116874  2.24560329  1.17232673
  H -2.71356841  1.37565899  2.30672810
