35
opt_min/./Product_3710_opt.xyz
  N -0.15965576 -0.95404170  0.49234728
  C -1.30229367 -0.15940133  0.06891856
  N -1.88832087 -0.77807774 -1.10238551
  N -2.33535098 -0.09924111  1.09200510
  C -3.02459828 -1.34662405  1.36158906
  C -0.81238489  1.32840280 -0.24489027
  C -1.73980876  2.37957924  0.36235718
  N  0.56058939  1.47198407  0.20150742
  C  1.11181869  2.80754594  0.34064728
  C  1.42677990  0.53236949 -0.35810870
  C  1.27995325  0.12550950 -1.67272597
  N  1.19099766 -0.15878392 -2.79296217
  C  2.65005697  0.19399712  0.37666626
  O  3.00540261  0.75909635  1.40204782
  N  3.33252746 -0.86591972 -0.14810032
  C  4.60928314 -1.28297929  0.36945555
  H -0.22634602 -1.92925056  0.23339445
  H  0.03579874 -0.86617175  1.48134565
  H -1.22914180 -1.40916662 -1.54138426
  H -2.16557095 -0.09531280 -1.79432143
  H -1.94616386  0.28773311  1.94473085
  H -3.56075227 -1.63408791  0.46051752
  H -2.35783048 -2.17046143  1.65474841
  H -3.73488631 -1.17565771  2.16710091
  H -0.85687079  1.44779808 -1.34027655
  H -1.68419223  3.30774644 -0.20087487
  H -1.48314027  2.57482850  1.39932161
  H -2.75878146  2.00743511  0.32569798
  H  2.06490981  2.71677258  0.85767148
  H  1.26530121  3.27470704 -0.64003279
  H  0.45125118  3.42958685  0.93553331
  H  3.05367492 -1.21199688 -1.05344157
  H  4.62474288 -2.36234834  0.52780709
  H  5.41940996 -1.01308117 -0.31478604
  H  4.76198630 -0.77386925  1.31959167
