46
opt_min/./Product_1470_opt.xyz
  C  3.08160200  0.23454206 -1.69641001
  C  2.12070634  0.56752290 -0.58931018
  O  2.29055380  1.52371234  0.12073055
  C  0.97066057 -0.43590249 -0.28498363
  C  1.64044340 -1.02318217  1.00194154
  C  1.33118609 -0.36559542  2.30718221
  O  2.41551649 -1.93426384  0.88853692
  C -0.29828872  0.30693427  0.05027189
  C -1.47598806 -0.12004309  0.57386420
  C -2.23685247 -1.41481829  0.42904860
  F -3.57598414 -1.15322291  0.70822483
  C -1.78076974 -2.35277296  1.44921199
  N -1.43883933 -3.03883357  2.29451728
  C -2.20621262 -1.95326632 -1.01710871
  C -1.24257199 -3.10408116 -1.27675246
  C  0.18891079 -2.86119899 -0.81025170
  C  0.84675258 -1.56761810 -1.32394346
  N -2.10034198  0.95641850  1.20888813
  C -3.16285997  0.96968966  1.97842521
  N -4.08322519  1.04907192  2.66164763
  N -1.03760230  1.96250687  1.38904473
  C -1.55450314  3.28561309  1.65795551
  N -0.27406285  1.74005159  0.21999531
  C -0.09020157  2.64167596 -0.80305433
  C  0.16998225  2.06222459 -2.17463158
  O -0.11378287  3.83762855 -0.62004803
  H  3.68803281 -0.61608846 -1.38488230
  H  3.74219131  1.08683767 -1.83880612
  H  2.58610789 -0.01242545 -2.63005961
  H  2.26585683 -0.22167231  2.84739421
  H  0.82390631  0.58637547  2.20452144
  H  0.72147584 -1.05060207  2.89691208
  H -3.22068774 -2.29528093 -1.23746396
  H -1.99036807 -1.11508463 -1.68271346
  H -1.24556915 -3.29701294 -2.35195605
  H -1.61125186 -4.00320708 -0.77919870
  H  0.78213512 -3.70654739 -1.16141854
  H  0.22901503 -2.89090769  0.27652726
  H  1.86072458 -1.84212559 -1.60190544
  H  0.33238777 -1.21245690 -2.21980954
  H -1.87908241  3.83025673  0.77208142
  H -2.39486733  3.17863209  2.34377837
  H -0.76175080  3.84503904  2.15190974
  H -0.09220051  1.01173132 -2.24645705
  H  1.21112228  2.21145308 -2.44669323
  H -0.43301475  2.63766064 -2.87655911
