49
opt_min/./Product_1870_opt.xyz
  C -3.64889100 -2.41959000 -1.48846301
  C -2.48662106 -2.31223092 -0.58155614
  C -1.38286640 -3.06771054 -0.46426755
  C -0.98389562 -4.19110256 -1.18963370
  N -0.65125904 -5.11418934 -1.78541121
  C -0.55002046 -2.39448227  0.62597142
  C  0.06775441 -1.13507886 -0.04650964
  C -1.20660575 -0.28852707 -0.27465896
  C -2.27130614 -1.19354842  0.42663318
  O -1.54421683 -1.83433338  1.45172498
  C -0.92703982  1.04166720  0.43673111
  C -2.16918869  1.74325514  0.98459607
  C -3.16057385  2.16076219 -0.07859423
  O -2.33228908  1.95832962  2.15269280
  C -0.23623046  2.01175515 -0.55540108
  O  0.07043067  1.71782240 -1.68236843
  O -0.03292032  3.18158516  0.02190481
  C  0.73385726  4.15065675 -0.68350678
  N -0.01324853  0.65583402  1.48734913
  C  0.91714517 -0.29548859  0.93197981
  C  2.11343152  0.40293353  0.22161749
  N  2.89002769 -0.41302004 -0.49935129
  C  4.06616776  0.08963690 -1.17804260
  O  2.30094596  1.59515218  0.35467173
  C  1.59060460 -1.12692400  2.01466466
  O  2.31638230 -2.06019638  1.75521235
  O  1.36409755 -0.66801997  3.22335296
  C  1.97672644 -1.37097325  4.29680825
  H -3.96098548 -1.43196356 -1.82321415
  H -3.41420674 -3.04282865 -2.34863415
  H -4.48694849 -2.87234107 -0.95584451
  H  0.13375711 -3.03547395  1.17301472
  H  0.60457676 -1.37651602 -0.96135323
  H -1.44310691 -0.12704487 -1.32526477
  H -3.14881177 -0.69437478  0.82326804
  H -3.57757275  3.13046327  0.18434605
  H -2.70817467  2.19956703 -1.06452934
  H -3.98326783  1.44690504 -0.09537488
  H  1.45758428  4.55584659  0.01988300
  H  1.24246289  3.67675283 -1.52347247
  H  0.06546056  4.93532284 -1.04116148
  H  0.43647994  1.43908120  1.94623499
  H  2.80441840 -1.40885835 -0.36734122
  H  3.76038161  0.80002964 -1.94716331
  H  4.59873782 -0.73854619 -1.63454561
  H  4.72374443  0.60817968 -0.47615124
  H  3.04290821 -1.50840377  4.10300820
  H  1.82018281 -0.76274008  5.18365143
  H  1.50803561 -2.34934715  4.41805695
