39
opt_min/./Product_1232_opt.xyz
  F -3.36742129 -1.60607733  2.70577179
  C -2.13932873 -1.54121557  2.20147052
  C -0.94521232 -1.47331748  2.77918873
  F -0.59998119 -1.42609021  4.05791613
  C  0.03878456 -1.30090512  1.63345882
  C -0.19833599  0.17585797  1.17689970
  C -1.50569707  0.00306920  0.38048740
  C -1.86990935 -1.46612218  0.70852963
  O -0.58793239 -2.06904803  0.61985486
  C -1.07198033  0.13773980 -1.09987233
  C -2.04730847  0.89833345 -1.87192309
  N -2.82550239  1.47556681 -2.47526455
  C -0.93128964 -1.15140620 -1.79326639
  N -0.71520919 -2.05542688 -2.45566149
  N  0.28674581  0.66962966 -1.11049364
  C  0.65609882  1.50956059 -2.22822250
  C  0.81440168  0.84396296  0.22178287
  C  2.20479608  0.15144451  0.38288180
  N  2.64631429 -0.46305452 -0.72294329
  C  3.88637837 -1.20629364 -0.72159055
  O  2.79878567  0.16518879  1.43460054
  C  0.97662627  2.29585157  0.73367262
  O  1.33737976  2.54800512  1.84779706
  O  0.67505121  3.21298958 -0.18345425
  C  0.80920793  4.58376855  0.18655394
  H  1.06547384 -1.60507783  1.79947122
  H -0.30041092  0.78826586  2.07728730
  H -2.26578379  0.74464883  0.62164218
  H -2.59971909 -1.95120287  0.06573998
  H  0.01546996  2.39038009 -2.33961724
  H  1.68527085  1.83941321 -2.09758860
  H  0.58968130  0.91413098 -3.14612432
  H  2.08400675 -0.48107331 -1.55930220
  H  4.60525291 -0.68817243 -0.08758699
  H  4.26774136 -1.27621513 -1.73764997
  H  3.73640138 -2.21238590 -0.32045531
  H  1.37994305  4.66334058  1.11315659
  H -0.18639362  5.00928251  0.32219648
  H  1.32324798  5.09213806 -0.62918504
