50
opt_min/./Product_5357_opt.xyz
  C  1.99825299  2.20755800 -0.25262506
  C  1.22163370  0.88969369 -0.32773862
  C  1.88043279  0.07522192 -1.44806642
  C -0.34199099  1.03631390 -0.46749943
  C -0.76990966  2.42123549  0.05725565
  C -0.87067858  0.98503128 -1.91145028
  C -0.93323783 -0.12521863  0.46174102
  C -1.74541823  0.50925258  1.61704567
  N -2.97677757  0.95581045  1.26737168
  C -3.84856389  1.60396721  2.21731140
  O -1.32195352  0.59254146  2.74524717
  C -1.73677233 -1.25826049 -0.17394379
  C -1.29138922 -1.90669275 -1.32270152
  C -1.94892898 -3.00719900 -1.84165903
  C -3.06297241 -3.51596540 -1.19895443
  C -3.48980720 -2.91986076 -0.02728353
  C -2.83396993 -1.81264775  0.48378300
  N  0.20714889 -0.77970822  1.10123655
  C  1.34772540  0.10220282  1.02429694
  C  1.39593209  0.99997928  2.17469815
  N  1.54351553  1.69475162  3.06916369
  C  2.67725132 -0.64378530  1.16490473
  O  3.75643908 -0.12084637  1.06776634
  O  2.49879627 -1.93692878  1.41784288
  C  3.67560045 -2.69962610  1.65270436
  H  1.91902293  2.74942485 -1.19395054
  H  1.67283405  2.84613135  0.56045004
  H  3.04810797  1.97489195 -0.08175599
  H  1.82644592  0.61655879 -2.39007803
  H  1.43085623 -0.90751866 -1.57382744
  H  2.93365750 -0.06811394 -1.22101059
  H -0.55150580  2.54740491  1.11526147
  H -1.83582981  2.56972137 -0.09603909
  H -0.25489506  3.20009533 -0.49848501
  H -1.87963469  0.57797238 -1.93393998
  H -0.26021455  0.39672739 -2.58527624
  H -0.91289052  1.99396715 -2.31763644
  H -3.30710552  0.83382191  0.32453923
  H -3.74423238  2.69193694  2.17178526
  H -3.56298209  1.27233873  3.21523031
  H -4.88408339  1.33327375  2.01741453
  H -0.40837081 -1.56213508 -1.83362206
  H -1.58747841 -3.46410896 -2.75113392
  H -3.56696372 -4.38939934 -1.58583725
  H -4.33827499 -3.32227960  0.50654251
  H -3.17415239 -1.40502903  1.42147621
  H  0.42555385 -1.65832561  0.64720713
  H  3.38101408 -3.74380173  1.58027078
  H  4.06625591 -2.48161737  2.64833601
  H  4.43953927 -2.45807010  0.91087009
