37
opt_min/./Product_327_opt.xyz
  C -2.21493100  0.40254700 -1.38540600
  C -1.47473405  0.18593228 -0.06592162
  C -0.04252836  0.78685022 -0.03430494
  C -0.16251598  1.75377265  1.19887553
  C -1.05606372  2.88240979  0.73276798
  C -2.27954351  2.37102316  0.70784416
  C -2.10976545  0.93634247  1.16851256
  O -1.01613200  1.02085588  2.05241665
  N  0.83087181 -0.31680194  0.18718302
  C  2.19046809 -0.32016603  0.04558534
  C  2.93140918 -1.50241718  0.16928908
  C  4.30118458 -1.48911023  0.00780141
  C  4.97451599 -0.31349319 -0.28229728
  C  4.24969377  0.85973225 -0.40410935
  C  2.87884482  0.86523155 -0.23875468
  N  0.10534325 -1.46674351  0.59971504
  N -1.24394429 -1.21317378  0.21439752
  C -2.05789568 -2.29807871  0.15523465
  C -3.53747968 -2.05984014 -0.03659469
  O -1.58693511 -3.41589481  0.25610128
  H -1.87372059  1.31548367 -1.86681620
  H -2.02412626 -0.43067273 -2.05828109
  H -3.28653388  0.48441889 -1.22772532
  H  0.23586083  1.31840853 -0.94914779
  H  0.76589125  2.02373542  1.69158591
  H -0.71073087  3.85499914  0.44507064
  H -3.20693550  2.82020703  0.41547128
  H -2.94819453  0.43510555  1.64053939
  H  2.43954703 -2.43152013  0.40978110
  H  4.85452904 -2.41121763  0.10994152
  H  6.04665982 -0.31213215 -0.40202551
  H  4.75516986  1.78876804 -0.62477071
  H  2.34461729  1.79843037 -0.33119007
  H  0.41435188 -2.29353774  0.06774382
  H -3.87955684 -1.13799593  0.41882668
  H -3.77335381 -2.04558758 -1.09957639
  H -4.05806180 -2.90444192  0.40911571
