37
opt_min/./Product_1582_opt.xyz
  C -0.67967197  3.35410000  0.51748902
  C -0.22019176  2.00321716  1.00160318
  O  0.15369654  1.83150152  2.12606566
  C -0.20381834  0.87990291 -0.06039953
  C -0.05578060 -0.59795949  0.39848649
 Br  0.14097427 -0.96118967  2.31802877
  C -1.30092133 -1.29371527 -0.15199017
  C -2.51806411 -0.77734680  0.62864547
  C -2.64537305  0.68732572  0.15461471
  C -1.50815046  0.82208392 -0.88118891
  C -1.54362756 -0.58336311 -1.48479845
  C  1.34286965 -0.95055489 -0.19769873
  C  1.97696065 -2.20765597  0.38150188
  O  3.15906969 -1.96030657  0.89974459
  C  3.84160548 -3.06504931  1.48651663
  O  1.43335045 -3.27381560  0.30341671
  O  2.04308480  0.27065139 -0.00859652
  C  1.18828492  1.04829744 -0.79370165
  C  1.67769713  2.39898594 -0.99791909
  N  2.07340904  3.45436183 -1.17123496
  O  1.15589090  0.36175341 -2.05428708
  C  1.26234643 -0.95177098 -1.73495270
  O  1.32875841 -1.84608712 -2.50793330
  H  0.09088507  4.08337653  0.76925449
  H -0.88246178  3.39973584 -0.54500484
  H -1.57147504  3.63548508  1.07892920
  H -1.19271373 -2.37642144 -0.17187279
  H -2.40473375 -0.85523846  1.70823148
  H -3.39650201 -1.36042663  0.34727140
  H -3.61052429  0.86985306 -0.31861382
  H -2.54262776  1.38798582  0.98191141
  H -1.62722717  1.63942361 -1.58881218
  H -0.83581039 -0.77610269 -2.27930108
  H -2.53513022 -0.81532786 -1.87503509
  H  3.47543982 -3.21596720  2.50408018
  H  4.89643066 -2.80200685  1.49650350
  H  3.66442338 -3.96918987  0.90102181
