40
opt_min/./Product_1670_opt.xyz
  F -1.26275800 -1.14012500  2.12914400
  C -1.25660926 -1.18515335  0.77515599
 Br -0.07689844 -2.75930853  0.24418968
  C -0.44459557  0.03310616  0.31045430
  C -0.58723443  1.12465758 -0.48087403
  C -1.81582182  1.68742955 -1.14324649
  C -2.76907810  0.63533625 -0.60295148
  C -4.20446631  0.15330023 -0.60540184
  C -4.01665029 -0.98031277  0.44194769
  C -2.66855063 -1.75297929  0.34652266
  C  0.73554957  1.88898706 -0.33715734
  C  1.08772600  2.86750586 -1.45877477
  C  1.10363428  4.30634260 -1.06350655
  O  1.28844455  2.44929322 -2.56605161
  O  1.66470462  0.87217775 -0.14893360
  C  0.96498182  0.22297167  0.91543790
  C  1.76636845 -0.88401580  1.60473339
  N  2.85533283 -1.23403241  0.90331868
  C  3.75958478 -2.25841677  1.36187559
  O  1.45246396 -1.32638332  2.68275693
  C  0.73660381  1.47441399  1.84167596
  O  0.66696096  1.54586686  3.01961969
  O  0.65054641  2.50401180  0.97844777
  H -1.98850171  2.70655504 -0.79002540
  H -1.71884072  1.70161223 -2.23011452
  H -2.58746785  0.72280258  0.47201951
  H -2.27226129 -0.23679029 -1.02085007
  H -4.93894307  0.87911929 -0.25815903
  H -4.52709825 -0.23818726 -1.56867643
  H -4.80090155 -1.73352843  0.33901868
  H -4.10021406 -0.55035964  1.44099296
  H -2.77317589 -2.60117916  1.03404821
  H -2.58161233 -2.17288472 -0.65841657
  H  1.56414415  4.89681149 -1.85192392
  H  1.62331212  4.43741670 -0.11774322
  H  0.07545757  4.63891637 -0.92246115
  H  3.02261735 -0.80516388  0.00621136
  H  3.40476701 -2.59511873  2.33478066
  H  3.76489418 -3.09784099  0.66474486
  H  4.77185546 -1.86278515  1.45994677
