33
opt_min/./Product_3902_opt.xyz
  C  0.71808939 -2.50174240  0.28946125
  C  0.16831929 -1.24600940 -0.36411028
  C -1.20764049 -0.80775903  0.14884105
  C -2.36896456 -1.65296307 -0.34888134
  C -1.27946115  0.67580556 -0.28148112
  C -1.92543457  0.83597569 -1.57486617
  N -2.42807352  0.97489638 -2.59210887
  C -2.03878821  1.55313904  0.74316230
  C -2.23971966  2.97667187  0.31501469
  O -2.42262836  1.10399250  1.78765057
  N  0.11636568  1.12076188 -0.42941620
  C  1.01668794  0.01432888 -0.10348908
  C  2.22277438  0.11281817 -1.05955584
  O  2.97791847  1.14956411 -0.72279615
  C  4.12582470  1.42909384 -1.52081707
  O  2.41879695 -0.63334416 -1.97559049
  C  1.46558529  0.10635761  1.27182686
  N  1.75183786  0.27160318  2.36674521
  H  0.81273230 -2.37023900  1.36659662
  H  0.05554412 -3.34129061  0.09949864
  H  1.69775687 -2.73478338 -0.12098136
  H  0.12874384 -1.37638898 -1.45120948
  H -1.20178392 -0.81925988  1.24699463
  H -3.31333295 -1.22128827 -0.02566903
  H -2.36828041 -1.71616787 -1.43561662
  H -2.29680599 -2.65849057  0.05703481
  H -2.29959215  3.62459637  1.18666842
  H -1.47047042  3.31628663 -0.37300588
  H -3.19716291  3.02757800 -0.20628966
  H  0.33694072  1.96710138  0.08308367
  H  4.08946947  2.48385490 -1.78926944
  H  4.11678341  0.80663480 -2.41664970
  H  5.01669211  1.22418092 -0.92781728
