61
opt_min/./Product_2692_opt.xyz
  C  3.99347600 -3.12459700 -2.42248400
  N  3.36280839 -2.11916458 -1.60445576
  C  2.04359272 -2.16048863 -1.30980908
  O  1.30675932 -3.05757729 -1.68755753
  C  1.54374099 -1.05775095 -0.47675908
  C  2.01271806  0.14475077 -0.11468512
  C  3.21259654  0.89078669 -0.47369412
  C  3.98993056  1.48512524  0.51788125
  C  5.11934333  2.20531650  0.17708863
  C  5.47506121  2.35593038 -1.15292177
  C  4.69744699  1.78301927 -2.14595240
  C  3.57360691  1.04998903 -1.81152125
  C  0.88292238  0.76036052  0.69883178
  C -0.13835723  1.13597041 -0.42506231
  C -0.76711662 -0.24451285 -0.68881628
  C  0.16258880 -1.14537848  0.16092955
  O  0.30301494 -0.36668421  1.33226328
  C -2.21858701 -0.12551162 -0.14265477
  C -2.44978008 -0.84355849  1.22724691
  N -2.43978842 -2.17956778  1.21278955
  C -2.53585581 -2.96040112  2.42364126
  O -2.70025997 -0.17720221  2.21124349
  C -3.20861431 -0.64118661 -1.17980012
  O -4.06775985  0.02545554 -1.68685521
  O -2.97721461 -1.92651789 -1.48286602
  C -3.79055296 -2.53939599 -2.47959421
  N -2.48797126  1.27695376  0.07229246
  C -1.30028477  2.08602448 -0.07689944
  C -1.52470942  3.05233007 -1.27809672
  C -2.95267329  3.43139265 -1.49722288
  O -0.61217187  3.41095195 -1.97269690
  C -0.96283304  3.02730423  1.08311549
  C -2.03943558  3.26063716  2.10135611
  O  0.12130354  3.55232862  1.15111297
  H  4.02408598 -2.81601006 -3.47156364
  H  3.40341906 -4.03798817 -2.34951791
  H  5.00719469 -3.30651317 -2.07087813
  H  3.92017909 -1.35256684 -1.26349996
  H  3.70770632  1.36807553  1.55295627
  H  5.72029895  2.65806441  0.95215134
  H  6.35338660  2.92507137 -1.41767470
  H  4.96307353  1.91043573 -3.18483744
  H  2.95743402  0.61295578 -2.58341521
  H  1.13924432  1.53822517  1.40635809
  H  0.41254042  1.56042858 -1.26805347
  H -0.77203960 -0.52918444 -1.73915164
  H -0.17449369 -2.15396737  0.36079812
  H -2.25194825 -2.66540513  0.34822683
  H -3.14051663 -3.84682573  2.23987539
  H -3.00047797 -2.34125282  3.18941439
  H -1.54502851 -3.26106396  2.77376488
  H -3.14768818 -2.83104729 -3.30994692
  H -4.55181758 -1.83427117 -2.81890183
  H -4.26044565 -3.41935664 -2.04121398
  H -2.93408804  1.37347393  0.98067467
  H -3.48256590  2.53869949 -1.83283695
  H -3.41972166  3.74437530 -0.56927214
  H -3.02316514  4.21101272 -2.25030565
  H -2.96955035  3.55829097  1.62306927
  H -2.21061212  2.33274629  2.65075811
  H -1.71516470  4.02928123  2.79796661
