54
opt_min/./Product_5224_opt.xyz
  C  0.04744300 -1.70039200  1.68189400
  C  0.20595066 -0.80816893  0.45371464
  C  0.31133060 -1.71744748 -0.77654395
  C -0.94639618  0.21658064  0.33769083
  C -2.30031981 -0.17964899 -0.16399251
  C -2.91087681 -1.36198114 -0.11108047
  C -4.27619998 -1.61106255 -0.55038251
  C -5.05581063 -0.47692127 -1.14552241
  C -4.80742154 -2.82632995 -0.41824451
  C -0.35087523  1.41362770 -0.45261576
  C -0.96966477  2.71015382  0.11033135
  N -0.08145997  3.50986493  0.71999919
  C -0.43176881  4.75196784  1.35903693
  O -2.15604500  2.95863562  0.00161193
  C -0.64779694  1.41157603 -1.95718940
  N  1.08201578  1.36557214 -0.17010238
  C  1.46314373  0.14270181  0.54640803
  C  1.73730757  0.62880705  1.98198110
  C  2.70520392 -0.52391468 -0.01624017
  C  3.10829889 -0.35862182 -1.33859492
  C  4.23491939 -0.99048927 -1.83544575
  C  4.99303596 -1.81502268 -1.02594321
  C  4.59769994 -2.00152996  0.28772860
  C  3.47335003 -1.36766011  0.78186521
  H  0.94643712 -2.29046819  1.83944787
  H -0.16913016 -1.12453223  2.57611241
  H -0.77842232 -2.39038127  1.53460271
  H  1.05230257 -2.49475501 -0.60121027
  H -0.64089540 -2.19638495 -0.98210136
  H  0.60550106 -1.16723006 -1.66278456
  H -1.13121569  0.59204116  1.35599911
  H -2.86256425  0.67470202 -0.51050361
  H -2.41139220 -2.24049923  0.27141471
  H -6.05362592 -0.80662411 -1.42522473
  H -4.55893676 -0.09152178 -2.03333965
  H -5.14840815  0.33751123 -0.42939775
  H -5.81560877 -3.04649913 -0.72722145
  H -4.25451629 -3.64582992  0.00938461
  H  0.87431436  3.17478338  0.72920671
  H -1.49119539  4.92442781  1.18084675
  H -0.25008015  4.69925694  2.43510578
  H  0.14974908  5.57616886  0.94254323
  H -0.33102842  0.48727513 -2.43011314
  H -0.11833364  2.24318280 -2.42521581
  H -1.70657422  1.55629787 -2.14216370
  H  1.62511691  1.51548339 -1.00930337
  H  1.94061545 -0.17002449  2.68357379
  H  2.59587266  1.29872253  1.96114018
  H  0.87997842  1.19365611  2.34002029
  H  2.54930291  0.26043868 -2.02522466
  H  4.51634399 -0.83838165 -2.86742005
  H  5.87246424 -2.30735456 -1.41041901
  H  5.17242067 -2.64646784  0.93630717
  H  3.20015175 -1.54722411  1.80893315
