26
opt_min/./Product_97_opt.xyz
  C  1.36988701 -2.09115818 -3.23116988
  O  0.84775691 -1.38595703 -2.10908160
  C  1.71574855 -0.62639384 -1.43787176
  O  2.89382720 -0.53939984 -1.66937783
  C  1.03400713  0.06945468 -0.33092719
  C -0.30305243  0.17449923 -0.01163717
  C -1.47923353 -0.33860464 -0.77600448
  C -2.04283045 -1.62090525 -0.23943303
  O -1.86938120  0.23114790 -1.75859097
  C -0.32180323  0.98411468  1.16078932
  C -1.53252182  1.38753630  1.91382689
  C -1.28525168  2.38671368  3.00135946
  O -2.60804230  0.90311928  1.65497420
  N  0.90056643  1.32997968  1.51321532
  N  1.72379579  0.78487561  0.62378498
  C  3.05046735  0.93825621  0.70304238
  N  4.17713938  1.09367294  0.80989524
  H  2.13214661 -2.80427345 -2.91178038
  H  0.52298753 -2.60178326 -3.68191507
  H  1.81825438 -1.39072179 -3.93848509
  H -1.38488165 -2.43410501 -0.54623824
  H -2.09000013 -1.60091812  0.84532644
  H -3.03273469 -1.78500681 -0.65705099
  H -0.85396004  3.28886390  2.57373905
  H -0.55936078  1.98280363  3.70401688
  H -2.21599951  2.61793696  3.51248984
