33
opt_min/./Product_3803_opt.xyz
  C -2.62754488  0.69589436  0.93940861
  C -1.52914071  0.28485109 -0.03528911
  C -2.08594395  0.31788186 -1.46006155
  C -0.25993796  1.16703551  0.13748723
  C  0.13334265  1.93075685 -1.10142501
  O -0.08326418  3.08819501 -1.29944725
  C  0.83688106  0.09739021  0.45961055
  C  2.26460649  0.59089927  0.29154602
  N  3.07568084 -0.30560893 -0.30613579
  C  4.48815646 -0.06965502 -0.47828166
  O  2.60387365  1.69133661  0.65848078
  N  0.41634424 -1.10558841 -0.23793019
  C -0.92985354 -1.12873001  0.30554320
  C -1.74953723 -2.35137818 -0.02359232
  O -0.64016542 -1.11539662  1.71609862
  C  0.43838730 -0.33127180  1.88452978
  O  0.94971621 -0.07895162  2.92704447
  H -2.27338919  0.68123459  1.96768783
  H -3.47914830  0.02108464  0.85532062
  H -2.96563632  1.70281271  0.69636114
  H -1.41007344 -0.14201836 -2.17944366
  H -3.03684639 -0.21008871 -1.49869139
  H -2.26279546  1.34754304 -1.76753206
  H -0.36916628  1.88598298  0.95220212
  H  0.67612294  1.30824861 -1.84621594
  H  2.70136314 -1.19594240 -0.60006178
  H  4.73071595  0.86048638  0.03345881
  H  4.74101175  0.03747191 -1.53798634
  H  5.06619288 -0.89101472 -0.05275419
  H  0.42726681 -1.02434127 -1.25109344
  H -2.64795980 -2.34807140  0.58805666
  H -2.02793904 -2.35967934 -1.07308361
  H -1.16449589 -3.23841428  0.20859557
