46
opt_min/./Product_2243_opt.xyz
  C -2.36023700 -0.48054500 -2.67053600
  C -2.42700945 -0.82304618 -1.21383288
  O -3.41464219 -1.32915394 -0.74726773
  C -1.24956414 -0.50914545 -0.26285279
  C  0.23893423 -0.82601806 -0.59259341
 Br  0.66741837 -1.62900406 -2.30342145
  C  0.69899186 -1.71433132  0.57706617
  C  0.02945470 -3.08893585  0.45048797
  C -1.44674450 -2.78043490  0.78591281
  C -1.43669665 -1.27079136  1.07646430
  C -0.07743565 -1.14701845  1.76813166
  C  0.86718109  0.61460941 -0.56732809
  C  2.35766594  0.69304028 -0.46247686
  C  3.13624905  0.62235609 -1.61147680
  C  4.51465104  0.65810167 -1.50578741
  C  5.11917536  0.76858097 -0.26411244
  C  4.34035799  0.85330326  0.87727860
  C  2.96018870  0.81612161  0.78183861
  O  0.17031865  1.24826129  0.46310925
  C -1.13343403  1.05094906 -0.06254236
  C -2.27036916  1.68962281  0.69894105
  O -1.83221627  2.33751685  1.76524326
  C -2.79891935  3.01967195  2.56149291
  O -3.40972764  1.59587596  0.33693235
  C -0.87825785  1.64975136 -1.47371343
  O -1.57911659  2.31873549 -2.15755562
  O  0.38010310  1.28644691 -1.75033185
  H -1.39582943 -0.16843035 -3.04958685
  H -3.07744251  0.32233556 -2.84823023
  H -2.70595163 -1.34785322 -3.23274925
  H  1.78556769 -1.75176798  0.66249230
  H  0.14485309 -3.51679106 -0.54205275
  H  0.46547395 -3.77562526  1.17357787
  H -1.76877311 -3.31350981  1.67930606
  H -2.11641016 -3.06359674 -0.02071641
  H -2.29833868 -0.91979797  1.64023777
  H -0.01464067 -1.81129349  2.62936817
  H  0.19008731 -0.14419847  2.08057353
  H  2.66891942  0.55170920 -2.58031017
  H  5.12280215  0.60177406 -2.39510857
  H  6.19534437  0.79605282 -0.18732877
  H  4.79946298  0.95026905  1.84929622
  H  2.35064230  0.89464079  1.66799090
  H -3.79917745  2.85472182  2.15927530
  H -2.72783020  2.63519050  3.57850610
  H -2.55936811  4.08263745  2.55031774
