45
opt_min/./Product_5451_opt.xyz
  C  0.81717600  2.40096400  0.43890200
  C -0.29735816  2.34547182  1.43811400
  C -1.48462098  1.88243484  1.05917226
  N -1.68005316  1.34407960 -0.19201321
  C -2.96107647  1.38854188 -0.84344643
  C -0.60470474  0.68916273 -0.86451613
  C  0.81744752  1.17334662 -0.48532387
  C  1.62688713  1.50283523 -1.74832960
  N  2.92418821  1.80037237 -1.51394528
  O  1.13626562  1.56042852 -2.85121067
  C  1.39262437 -0.13049168  0.17308897
  C  2.59598072 -0.02551223  1.11816634
  N  3.62281943 -0.81374838  0.75953660
  C  4.83095063 -0.90802866  1.54400713
  O  2.60816454  0.71489955  2.07734348
  O  1.70158662 -1.00624880 -0.95212388
  C  0.49547108 -1.43440778 -1.39263426
  O  0.33518028 -2.10819735 -2.36112091
  C -0.51009185 -0.83335346 -0.41115465
  C -1.79807768 -1.54529936 -0.18669697
  C -2.35060393 -1.54960654  1.08893450
  C -3.56391934 -2.17531566  1.31351981
  C -4.22905876 -2.79695399  0.27081464
  C -3.67596062 -2.79573213 -0.99919500
  C -2.46442897 -2.16976935 -1.23485104
  O  0.30425185 -0.73962804  0.76361769
  H  1.77671803  2.49132644  0.94633347
  H  0.68449523  3.28522709 -0.19782557
  H -0.11525563  2.70521920  2.43329386
  H -2.35403771  1.89931000  1.70259546
  H -2.93317273  2.07461920 -1.69847229
  H -3.26295149  0.40171726 -1.19987499
  H -3.70730535  1.74500215 -0.13653891
  H -0.75334441  0.75610107 -1.94755912
  H  3.35385940  1.68157850 -0.61377525
  H  3.51766399  1.97052820 -2.31045786
  H  3.52789534 -1.42444032 -0.03839893
  H  4.96937567 -1.92512832  1.91263395
  H  5.69575372 -0.62353398  0.94214953
  H  4.73417371 -0.22777547  2.38908904
  H -1.81827207 -1.06647928  1.89223501
  H -3.99084148 -2.17634192  2.30565719
  H -5.17672537 -3.28466569  0.44742425
  H -4.19031183 -3.28298592 -1.81366044
  H -2.03329164 -2.17198962 -2.22237099
