47
opt_min/./Product_1729_opt.xyz
  C  0.60025100  1.24259900  2.63557100
  O  0.84721128  1.02405288  1.25127850
  C  1.00822187 -0.26954080  0.76994598
 Cl  2.21465395 -1.12698009  1.74543797
  C -0.34969043 -1.04379777  0.66882083
  O -0.27183909 -2.28621117  0.02645882
  C  0.29903619 -3.39192919  0.71424261
  O -0.87659500 -1.11949455  1.93920758
  C -2.17028486 -1.70605737  2.11549498
  C -1.02805500 -0.12633504 -0.41809818
  C -1.66744254  1.11088842  0.21378849
  O -1.18093973  2.23640237 -0.33523016
  C -1.73291040  3.47124936  0.10927572
  O -2.52167946  1.09578388  1.05620622
  C -2.14995155 -0.92361585 -1.14924737
  C -1.82136053 -1.38974416 -2.52816846
  O -3.20034214 -1.13860121 -0.61015691
  N  0.05888200  0.20525391 -1.31917294
  C  1.35804314 -0.06660784 -0.72608379
  C  1.95349101 -1.28903126 -1.48917505
  C  3.28066874 -1.82339389 -1.04958503
  O  1.36842233 -1.69935245 -2.45402041
  C  2.39432928  1.06441720 -0.85900840
  C  2.08059039  2.14506497 -1.85073944
  O  3.40809382  1.04492637 -0.21416666
  H  0.60271609  2.32471938  2.74116046
  H  1.39891913  0.80957216  3.24100143
  H -0.36106305  0.82868795  2.93988134
  H  0.01163197 -4.25455106  0.11783727
  H  1.38622469 -3.32200068  0.76445667
  H -0.09767142 -3.48562645  1.72703872
  H -2.28188651 -1.77678678  3.19454448
  H -2.94404907 -1.07101805  1.69197301
  H -2.21990381 -2.69598130  1.66027730
  H -0.90892141  4.10724497  0.43200679
  H -2.26258780  3.93355712 -0.72386904
  H -2.42049449  3.29264591  0.93733045
  H -1.67143574 -2.46703820 -2.47068638
  H -2.67115844 -1.20534095 -3.18168366
  H -0.91160440 -0.94332337 -2.90831276
  H -0.04496306  1.16165861 -1.63025679
  H  3.81919424 -1.13419495 -0.40928423
  H  3.12240253 -2.76052659 -0.51747223
  H  3.86648885 -2.04923223 -1.93938055
  H  1.35030058  2.82328285 -1.40978618
  H  2.99075819  2.70435032 -2.05603192
  H  1.67875386  1.73126904 -2.77143661
