64
opt_min/./Product_2779_opt.xyz
  C -3.54799519  0.10917407 -2.12849576
  C -2.07295159  0.25940444 -1.81714436
  O -1.27864840  0.13352830 -2.71497955
  C -1.56293059  0.70237055 -0.42556107
  C -1.81110669  2.23123481 -0.38213951
  C -3.19325396  2.73378825 -0.70848120
  O -0.96995421  3.02969351 -0.05531284
  C -0.07711315  0.34304729 -0.36591611
  C  0.48178865 -0.87338886 -0.49238073
  C -0.10217410 -2.24812668 -0.63938492
  C  0.51914556 -3.21970005  0.37270364
 Cl  0.36051944 -2.76685967 -2.33323568
  C -1.62142607 -2.46098502 -0.60830782
  C -2.33081103 -2.32290862  0.74387653
  C -3.10418226 -1.02261846  0.92645078
  C -2.24783217  0.23819870  0.90055649
  C  2.02061084 -0.67960991 -0.56650326
  C  3.03713869 -1.83636206 -0.36999094
  N  4.03984482 -1.66719931  0.50840442
  C  5.10080636 -2.65027909  0.57595084
  O  2.99085695 -2.81734416 -1.08141193
  C  2.30851460 -0.39111607 -1.98463302
  N  2.59773451 -0.07368035 -3.04348313
  N  2.17676583  0.56297439  0.14983688
  C  3.31077822  1.10280111  0.84259073
  C  0.98223281  1.38021287 -0.00744001
  C  1.32946108  2.46187323 -1.04291644
  C  0.73938073  2.39685557 -2.41676299
  O  2.14261639  3.31325367 -0.74987008
  C  0.68081104  1.90007765  1.43563485
  O  0.29738958  1.10544687  2.27602711
  N  0.98168671  3.17259952  1.71095918
  C  0.76860090  3.74935861  3.01319632
  H -3.79654035  0.82318569 -2.91221405
  H -3.70821362 -0.87589406 -2.56442041
  H -4.21585566  0.24380185 -1.28978955
  H -3.98916186  2.10321856 -0.33054553
  H -3.28832630  2.81415260 -1.78967821
  H -3.29090237  3.73375088 -0.29079220
  H -0.12696773 -4.08411013  0.49590851
  H  1.48211818 -3.58315865  0.03663961
  H  0.64235529 -2.72557566  1.33451540
  H -2.10934579 -1.84668769 -1.35643673
  H -1.74052757 -3.49411930 -0.94179434
  H -1.62740156 -2.44809468  1.56438471
  H -3.06203528 -3.13088463  0.81823018
  H -3.56934287 -1.05081226  1.91525231
  H -3.91201857 -0.98750357  0.19928885
  H -1.43638387  0.10204257  1.61714098
  H -2.85365513  1.06066447  1.28792091
  H  4.12809998 -0.84078462  1.06963662
  H  4.66887166 -3.65058254  0.56683177
  H  5.66785398 -2.50074697  1.49024478
  H  5.76401767 -2.56218856 -0.28711033
  H  4.23540520  1.00866903  0.26164138
  H  3.42774348  0.67866708  1.85116736
  H  3.14905709  2.17253658  0.96454296
  H  1.41284060  2.89316866 -3.11164572
  H  0.54440332  1.37939359 -2.74255649
  H -0.20237703  2.94189070 -2.41592666
  H  1.23112923  3.78432883  0.94690378
  H  0.42967047  2.95691567  3.67902214
  H  0.01140884  4.53361236  2.96833412
  H  1.69912331  4.17357502  3.39368384
