51
opt_min/./Product_2150_opt.xyz
  C -1.11275100 -4.00224400  0.33575400
  C -0.86659710 -2.64592004 -0.23909772
  O -0.79500726 -2.43215717 -1.42371943
  C -0.84562653 -1.44958918  0.72175345
  C -0.64598341 -1.76440037  2.20052983
  F -0.61521749 -0.65060304  2.94005381
  F  0.45477932 -2.46759713  2.48979157
  F -1.68337719 -2.48226413  2.68801257
  C  0.08137093 -0.34936445  0.20198898
  C -0.25796774  0.87524709 -0.31918601
  C -1.50498079  1.75611992 -0.50133297
  C -2.97217417  1.33382033 -0.88889092
  C -3.96455078  0.64242492  0.09143273
  C -3.63559102 -0.82665863  0.47551337
  C -2.14090625 -0.65373805  0.52343708
  C  1.01554694  1.43170767 -0.78287125
  C  1.29345759  2.77109925 -1.37619915
  O  0.63467456  3.74251971 -0.73198231
  C  0.88408659  5.08558455 -1.12879878
  O  2.06577594  2.95873024 -2.27715781
  N  2.02156648  0.63967242 -0.63916082
  C  1.56217880 -0.52909633  0.03343534
  C  1.92699650 -1.86960903 -0.65134819
  C  2.49323768 -1.71689333 -2.01574687
  O  1.75338931 -2.90661402 -0.07340847
  C  2.39780319 -0.49754801  1.34514209
  O  1.98871765 -0.14134273  2.40777102
  O  3.63036937 -0.88071349  1.07074616
  C  4.56861514 -0.87101827  2.14511207
  H -0.99424472 -4.74558837 -0.44835457
  H -2.13295037 -4.03902256  0.72049612
  H -0.43152954 -4.22041903  1.15246456
  H -1.23266428  2.43219161 -1.31517932
  H -1.56734051  2.37166289  0.40256555
  H -2.94264698  0.77217052 -1.82723768
  H -3.44298900  2.29534145 -1.11577280
  H -3.99841264  1.23501854  1.00835965
  H -4.95409933  0.70131081 -0.36792643
  H -3.92351349 -1.51526589 -0.32158662
  H -4.12176204 -1.11999631  1.40357284
  H -1.99697752  0.20447463  1.18245043
  H -1.97772880 -0.39875930 -0.51428348
  H -0.00394724  5.47698142 -1.62724072
  H  1.08743370  5.66183567 -0.22723261
  H  1.73747995  5.12078304 -1.80906986
  H  3.48042880 -1.26647301 -1.91585991
  H  2.56631040 -2.68666940 -2.50176508
  H  1.87908625 -1.03506991 -2.59881435
  H  5.30473777 -1.63770796  1.91538880
  H  5.04187976  0.11083925  2.20168011
  H  4.06082256 -1.08970355  3.08570328
