28
opt_min/./Product_3271_opt.xyz
  C -0.74075700 -0.82931600  1.67612500
  C -0.56504954 -0.38856064  0.21583766
  C -1.31382919 -1.39682696 -0.65266972
  C -1.12614225  1.05728306  0.08907067
  C -1.49609943  1.45308435 -1.30919410
  O -2.55146274  1.23109399 -1.83728390
  C  0.05025813  1.89640405  0.60102885
  N  1.25701082  1.17956744  0.22483457
  C  0.93718522 -0.20198536 -0.15925280
  C  1.87911224 -1.14227135  0.60602586
  C  1.19641660 -0.42342812 -1.65606440
  H -0.19740419 -0.18697750  2.36220469
  H -1.79591942 -0.80608201  1.94083703
  H -0.38759600 -1.84810376  1.80842497
  H -1.36099310 -1.09950489 -1.69576387
  H -2.33491594 -1.49680309 -0.29134314
  H -0.83389729 -2.37100278 -0.59077203
  H -2.03021588  1.14751139  0.69767474
  H -0.70875650  2.02014989 -1.84599347
  H  0.00700968  1.96698301  1.69529346
  H  0.05105439  2.91426407  0.20766175
  H  1.75190622  1.64537479 -0.52309838
  H  1.89333177 -0.90508616  1.66437112
  H  1.58096804 -2.17886865  0.47424014
  H  2.88962812 -1.02324033  0.22370517
  H  1.10222162 -1.47577901 -1.90866850
  H  2.21210433 -0.11070294 -1.89587114
  H  0.50625604  0.14477114 -2.27668360
