45
opt_min/./Product_4876_opt.xyz
  C  2.19947620  0.32956298 -0.27233313
  C  1.09951241  0.87914259  0.63511440
  C -0.11463318 -0.06452925  0.67275151
  N  0.20570049 -1.44553602  0.82587696
  C -0.70193778 -2.32700860  1.51838137
  C  1.41144811 -1.92172691  0.40929736
  C  2.38444380 -1.15356871 -0.11095183
  C  3.68483085 -1.67606289 -0.53836423
  N  3.78002039 -3.04323653 -0.67677406
  O  4.65854354 -0.96679108 -0.71784716
  C -0.88310545  0.32732862 -0.63587957
  C -0.31329259 -0.30956110 -1.81122082
  N  0.09126944 -0.72638370 -2.79832400
  C -2.34839292 -0.05476996 -0.53807947
  C -2.77743171 -1.32139068 -0.91157116
  C -4.10812432 -1.67390290 -0.77222624
  C -5.01882407 -0.76627815 -0.25922302
  C -4.59363098  0.49816675  0.11281241
  C -3.26453202  0.85370214 -0.02479179
  N -0.69410711  1.76298383 -0.65711780
  C  0.46225984  2.19628430  0.13075796
  C  1.40120370  3.07740809 -0.69352815
  C -0.05866724  3.02821563  1.31697052
  H  3.15110678  0.81301979 -0.04551171
  H  1.97975765  0.53431107 -1.32241709
  H  1.50321763  1.00210333  1.64241278
  H -0.77399974  0.23156705  1.49745682
  H -0.92770582 -3.20515070  0.90848311
  H -0.27041457 -2.66577217  2.46628862
  H -1.63614710 -1.80975120  1.72497634
  H  1.54794403 -2.98033682  0.57254696
  H  4.66822896 -3.33989938 -1.05918788
  H  2.99884984 -3.56955999 -1.02864575
  H -2.07092234 -2.02903168 -1.32187125
  H -4.43195166 -2.66081521 -1.06811556
  H -6.05721043 -1.04241210 -0.15250878
  H -5.29988384  1.21161350  0.51141340
  H -2.91865680  1.83540476  0.25997280
  H -0.78194410  2.19401312 -1.56543800
  H  0.90876916  4.02508095 -0.90465859
  H  2.31500993  3.27813300 -0.14141290
  H  1.66567824  2.61363119 -1.64006361
  H -0.51747378  2.39599700  2.07229409
  H -0.80606872  3.73344903  0.96225296
  H  0.75508289  3.58370308  1.77477067
