24
opt_min/./Product_3225_opt.xyz
  C -1.88191400  1.11109200 -0.16996600
  C -0.73370995  0.21969118 -0.60879010
  C  0.66482823  0.69939218 -0.19051547
  C  1.32474317  1.69024192 -1.12986672
  C  1.44280504 -0.62722092 -0.02121133
  C  2.49213248 -0.60836856  1.08646940
  N  0.43507219 -1.64021850  0.22629355
  C -0.71317514 -1.19695451 -0.05407525
  C -1.93780276 -2.03387680  0.06446496
  H -2.83658842  0.64987265 -0.41212087
  H -1.84897414  1.28104049  0.90453345
  H -1.83577822  2.06982389 -0.67749592
  H -0.75809728  0.12782555 -1.70348445
  H  0.58249190  1.14812789  0.80891388
  H  2.31364641  1.94899406 -0.75878189
  H  0.73575679  2.59792968 -1.21415325
  H  1.44523097  1.25319957 -2.12010213
  H  1.92579786 -0.89326784 -0.97508330
  H  2.93255596  0.38228171  1.16853608
  H  2.01146111 -0.84687503  2.03151507
  H  3.27783473 -1.33076216  0.90328009
  H -1.71388161 -2.90049334  0.67902727
  H -2.25259909 -2.37689838 -0.91893076
  H -2.75596930 -1.47243942  0.50634967
