48
opt_min/./Product_1613_opt.xyz
  C  3.00364800  1.17967500 -1.51059600
  O  1.59878726  1.04478464 -1.44918977
  C  1.07224449 -0.03701056 -0.73050081
  C -0.43489945 -0.27023723 -1.08279511
  C -1.01184550  0.76226287 -2.03580055
  C -0.34419424 -1.69927774 -1.69684128
  C  0.44473270 -1.60455241 -2.98296208
  C  1.71044294 -1.47396402 -2.61565570
  C  1.67255759 -1.45328672 -1.10092859
  O  0.58941599 -2.31374666 -0.81474524
  C -1.13448782 -0.28096171  0.33417229
  C -1.66454821 -1.67864332  0.70492239
  O -2.51085486 -2.26791422  0.08073844
  O -1.09023122 -2.13501308  1.79809801
  C -1.46922449 -3.43108905  2.24082340
  C -2.27859052  0.70786778  0.46492531
  C -2.05833181  1.92232708  1.10365063
  C -3.07786497  2.85036462  1.21632642
  C -4.32821547  2.57960391  0.68869976
  C -4.55298265  1.37173743  0.05104410
  C -3.53565811  0.44064894 -0.06322399
  N -0.11409734  0.02276791  1.30178407
  C  1.02774396  0.13685585  0.77920109
  C  2.19169989  0.35637200  1.69089515
  O  2.70331265  1.58626769  1.57293382
  C  3.75856412  1.91013698  2.47251587
  O  2.59773754 -0.46601730  2.46490505
  H  3.47711869  0.31178382 -1.97692046
  H  3.17183942  2.05785441 -2.13137608
  H  3.44235931  1.34586965 -0.52663583
  H -0.49847291  0.70721865 -2.99168586
  H -0.87688093  1.76091103 -1.62916926
  H -2.07254635  0.58019573 -2.18599084
  H -1.27824223 -2.24828390 -1.74722933
  H  0.01255048 -1.64553823 -3.96253433
  H  2.59176146 -1.36644731 -3.21623452
  H  2.56393775 -1.74291472 -0.55075716
  H -1.70471945 -4.06602593  1.38505249
  H -2.34350381 -3.35671070  2.89100982
  H -0.62062370 -3.82368223  2.79542413
  H -1.08414790  2.12909792  1.51929662
  H -2.89252606  3.78915971  1.71600645
  H -5.12361391  3.30489797  0.77678014
  H -5.52639920  1.15100528 -0.36174673
  H -3.72669847 -0.50141918 -0.55298969
  H  3.46322857  1.67162900  3.49536257
  H  4.65718641  1.34179413  2.22302737
  H  3.93757763  2.97579237  2.35763003
