42
opt_min/./Product_1034_opt.xyz
  C -3.87506678  2.04284427 -0.89283923
  C -3.94633587  0.82108873 -0.01101313
  O -4.70196772  0.74823521  0.93521087
  C -3.05272691 -0.28502879 -0.36209689
  C -3.16940673 -1.57333981  0.01503065
  C -4.11559791 -2.21939057  0.94735853
  C -2.03566906 -2.28855789 -0.69895110
  C -0.73165948 -1.89911049  0.05591430
  C -0.65419152 -0.38514384 -0.23710644
  C -1.82558595 -0.26315444 -1.26657214
  O -1.88738864 -1.53342068 -1.88207583
  C  0.79461438 -0.19993301 -0.76691116
  C  0.86698869  0.86413366 -1.88721323
  N  1.35421625  2.05903280 -1.51304565
  C  1.38063647  3.18447608 -2.41797609
  O  0.43996122  0.63283265 -2.99491698
  C  1.67698227  0.18805493  0.43843149
  O  1.35444297  1.09631387  1.18673647
  N  2.78433635 -0.54238258  0.58421680
  C  3.74701114 -0.27555777  1.62807905
  N  1.21840975 -1.49580326 -1.22101484
  C  0.46743105 -2.39220253 -0.72091274
  C  0.73142531 -3.77212687 -0.85897950
  N  0.96366785 -4.89389522 -0.89470482
  H -3.55647891  1.79350723 -1.89983706
  H -3.16813335  2.74578278 -0.45594645
  H -4.85089012  2.52145165 -0.91987495
  H -5.12419297 -2.17607630  0.53579280
  H -4.13924072 -1.67755635  1.89142652
  H -3.84813564 -3.25946377  1.11999569
  H -2.16398896 -3.34755596 -0.90937778
  H -0.71010403 -2.19017231  1.10479049
  H -0.83273915  0.26089624  0.62247963
  H -1.72137616  0.51824915 -2.00962219
  H  1.77428592  2.18924285 -0.60593809
  H  0.92571046  4.05408934 -1.94257701
  H  2.40529238  3.42751614 -2.70648252
  H  0.81544140  2.91207041 -3.30787489
  H  3.00093463 -1.22464475 -0.12948848
  H  3.21352755 -0.04953793  2.55120650
  H  4.37475028 -1.15136393  1.76930498
  H  4.37456356  0.58224883  1.37428877
