37
opt_min/./Product_4103_opt.xyz
  C -2.00973800 -0.09676240  1.26589099
  C -2.33309557  1.36570488  1.28228913
  C -1.66485276  2.24716254  0.54407831
  N -0.50794883  1.92492645 -0.13016868
  C -0.28361255  2.50461617 -1.42999419
  C  0.25996498  0.84951612  0.45307830
  C -0.59573524 -0.41387235  0.72154500
  C  0.06758400 -1.20260954  1.86108309
  N -0.33477540 -2.48418542  1.98903857
  O  0.78977064 -0.67038670  2.67580259
  C -0.57822814 -1.09691143 -0.66000719
  N  0.50758130 -0.48341472 -1.42194005
  C  1.17275719 -1.33994228 -2.37457994
  C  1.34473791  0.25663417 -0.48557763
  C  2.15758533  1.26904277 -1.12064205
  N  2.87247491  2.04188691 -1.57190460
  C  2.29255392 -0.68225298  0.31828264
  C  3.48829850 -0.06964191  0.97164191
  O  2.03599884 -1.85925640  0.37899641
  H -2.12440501 -0.50363695  2.27513010
  H -2.74890060 -0.60428938  0.63705129
  H -3.18089939  1.66561380  1.87430275
  H -1.97906620  3.27722460  0.45359868
  H  0.45208685  3.31685720 -1.39760779
  H  0.05160123  1.75082442 -2.14303123
  H -1.22605866  2.90811272 -1.79884814
  H  0.69643468  1.20065740  1.39943658
  H -0.81570384 -2.96254443  1.24770620
  H  0.12019152 -3.04322404  2.69213907
  H -0.44135310 -2.18315742 -0.59388375
  H -1.51649782 -0.90058407 -1.19375112
  H  1.60407378 -2.24480831 -1.92578657
  H  1.96634425 -0.77376154 -2.86200548
  H  0.44517744 -1.63721912 -3.13020496
  H  3.96612108  0.67736558  0.34787962
  H  3.14075581  0.41046416  1.88634886
  H  4.19473210 -0.84977471  1.24523138
