38
opt_min/./Product_4036_opt.xyz
  C -0.52915100 -1.89536200  0.44769900
  C  0.97938517 -1.68220327  0.58058304
  C  1.11253158 -0.15368171  0.49982934
  C  2.53745794  0.29861565  0.17077642
  N  2.62728248  1.61290017 -0.11687389
  C  3.87645148  2.26122676 -0.42981024
  O  3.49419766 -0.44317633  0.23211531
  C  0.77902865  0.49930366  1.84920272
  N  0.12736612  0.23532321 -0.52130992
  C  0.59558975  0.08942112 -1.89076291
  C -1.04477031 -0.58303136 -0.21060463
  C -2.06604761 -0.80787149 -1.33315373
  C -3.04089880 -1.92801343 -1.06629020
  O -2.15300769 -0.11385715 -2.31179623
  C -1.95065720  0.19371935  0.76540700
  O -2.61733657 -0.32650222  1.62224860
  O -1.94890862  1.48579821  0.49165777
  C -2.78699705  2.30521753  1.29430959
  H -0.99879164 -2.02124469  1.42410021
  H -0.75836744 -2.77251178 -0.15263745
  H  1.51231688 -2.12661808 -0.26068105
  H  1.39707068 -2.09103124  1.49694776
  H  1.77984325  2.15132428 -0.20423884
  H  4.66107769  1.50990364 -0.35401454
  H  4.07926721  3.06749097  0.27752512
  H  3.86055772  2.67032659 -1.44194953
  H -0.08758734  0.03482194  2.30947267
  H  0.58510984  1.55982332  1.71141156
  H  1.62436166  0.38139755  2.52449456
  H  0.63830661 -0.95519843 -2.22309598
  H  1.59195532  0.51063405 -1.98706716
  H -0.08098110  0.63662273 -2.54288819
  H -4.00626949 -1.65074033 -1.48639065
  H -3.14185933 -2.14284400 -0.00802221
  H -2.70378139 -2.82202255 -1.58941060
  H -2.30852189  2.50165120  2.25715374
  H -2.93211132  3.23318897  0.74804983
  H -3.74380615  1.81036083  1.47494005
