51
opt_min/./Product_5525_opt.xyz
  C -3.56488800 -2.38661200  0.41075000
  C -2.39769173 -1.44886147  0.30264284
  C -2.48984951 -0.50640516 -0.85754671
  C -1.42217869 -1.47369508  1.20356289
  C -0.18730882 -0.62203408  1.20766390
  C  0.84573673 -1.04923903  0.14805850
  C  1.78002092 -2.17837259  0.47654301
  C  2.41186933 -2.84390315 -0.71704163
  C  2.03345717 -2.61272393  1.70237378
  C  1.54736453  0.31649894 -0.17780603
  C  2.79700014  0.56493816  0.65730157
  O  3.77851709 -0.27666075  0.31516102
  C  4.99940786 -0.15706096  1.03309149
  O  2.89166607  1.38150491  1.53131837
  C  1.83382498  0.43110937 -1.67274858
  O  1.06751808  0.03860549 -2.51412951
  O  2.98249517  1.04074891 -1.92567993
  C  3.31298743  1.26117526 -3.29360177
  N  0.56969006  1.33225790  0.14700801
  C -0.35853306  0.84751847  0.87087028
  C -1.45310823  1.67018509  1.35881411
  C -2.27434687  1.25876664  2.40729630
  C -3.31150115  2.06652353  2.83397323
  C -3.54512050  3.28659037  2.22139615
  C -2.72899627  3.70788861  1.18293369
  C -1.68890297  2.90794829  0.75531234
  H -4.49911685 -1.82720215  0.41018210
  H -3.51374146 -2.98486207  1.31655167
  H -3.58498430 -3.05971736 -0.44634318
  H -2.77630211 -1.05111276 -1.75576457
  H -3.26731114  0.23292431 -0.65563502
  H -1.56609329  0.02500922 -1.05840426
  H -1.47438681 -2.19866879  2.00486049
  H  0.26148072 -0.64154906  2.20779446
  H  0.29483768 -1.33408690 -0.75621504
  H  1.99656157 -2.46412145 -1.64698341
  H  3.48482796 -2.66435834 -0.73211195
  H  2.25021778 -3.91937168 -0.67722889
  H  2.70437183 -3.44209536  1.85323635
  H  1.61674217 -2.17455696  2.59062086
  H  5.62480079  0.61177087  0.57548088
  H  5.48865382 -1.12669034  0.97637668
  H  4.79974477  0.11574956  2.07072190
  H  4.39751337  1.30831905 -3.35033466
  H  2.92469183  0.44803982 -3.90885758
  H  2.87609134  2.20502317 -3.62465787
  H -2.09214103  0.31082432  2.88829021
  H -3.94176224  1.74094842  3.64862520
  H -4.36071042  3.91137132  2.55529882
  H -2.90244529  4.66006501  0.70356732
  H -1.03163639  3.20482389 -0.04655170
