46
opt_min/./Product_2655_opt.xyz
  C -1.39352920  2.69916397 -1.69833992
  C -0.47804584  1.51168662 -1.56242849
  O  0.40883111  1.30769563 -2.35504821
  C -0.68186743  0.54898330 -0.38190476
  C -1.96347399 -0.28285424 -0.56198507
  C -2.18953460 -1.31253192  0.35080498
  C -3.33283812 -2.08460273  0.28330159
  C -4.27737350 -1.83900632 -0.69777222
  C -4.06067271 -0.82529023 -1.61182840
  C -2.91461707 -0.05122057 -1.54559525
  C  0.46672153 -0.43181873 -0.39822648
  C  1.68952353 -0.57136227  0.23803174
  C  2.16804306 -1.86099636 -0.17226143
  C  3.35936279 -2.62719548  0.29190610
  C  4.09487207 -3.33073097 -0.80815671
  O  3.64242746 -2.71333274  1.46040143
  N  1.35451266 -2.41296551 -1.03447635
  N  0.33647922 -1.55946257 -1.18156877
  C -0.58146806 -1.85476556 -2.10534980
  N -1.26621560 -2.19837187 -2.95538134
  C  2.54887075  0.35775970  1.02093193
 Br  4.41738309  0.17464460  0.26164891
 Br  2.65642258 -0.25655710  2.90473990
  C  2.27284514  1.85736571  0.94609138
  C  1.20837267  2.44094704  1.87590515
  C -0.17537142  2.58092195  1.26120473
  C -0.89236307  1.26110183  0.97949217
  H -2.19145328  2.70837322 -0.96403582
  H -1.80618778  2.70789578 -2.70671459
  H -0.80238326  3.61119360 -1.61670947
  H -1.45990728 -1.52326236  1.12028016
  H -3.47980679 -2.87938639  0.99842814
  H -5.17122134 -2.44115223 -0.75406220
  H -4.78172538 -0.63595303 -2.39155204
  H -2.75999900  0.70130429 -2.29826056
  H  4.15184888 -2.71057520 -1.69746529
  H  5.08744649 -3.61895076 -0.47162647
  H  3.53279759 -4.22977142 -1.05797879
  H  2.03665469  2.08867198 -0.09694088
  H  3.21160008  2.36050757  1.18368557
  H  1.53975370  3.44024006  2.16469454
  H  1.13976924  1.85491839  2.79452535
  H -0.78971378  3.12731789  1.98130762
  H -0.10567997  3.19707287  0.36634155
  H -0.63390442  0.55613640  1.77323510
  H -1.96565396  1.44512265  1.06354386
