52
opt_min/./Product_1841_opt.xyz
  C -2.44797800  2.32685000 -0.26234800
  C -1.83703885  1.91768380  1.05136258
  O -2.32175565  2.30824576  2.08747609
  C -0.63635225  0.98139519  1.10882243
  C  0.57237619  1.11514277  0.12550555
  C  0.53413408  2.18961662 -0.95411530
  C  1.72335950  1.41991839  1.16249001
  C  1.44954889  2.81682086  1.67932200
  C  0.43665770  2.67666644  2.52246232
  C  0.10848627  1.19637562  2.48653573
  O  1.36654960  0.61017496  2.25666509
  N  0.71985339 -0.22051184 -0.47435322
  C  2.01736191 -0.61612513 -0.87947555
  C  2.53920288 -0.11445657 -2.06978827
  C  3.77465038 -0.53786072 -2.52343362
  C  4.49860968 -1.48178448 -1.81414698
  C  3.97509011 -1.99337120 -0.63758130
  C  2.74596219 -1.56802551 -0.17109777
  N  0.12881822 -1.13381229  0.48982542
  C -1.08465975 -0.50527150  0.95028114
  C -2.27755702 -0.61190610 -0.02611487
  N -1.93853595 -0.83906678 -1.30794638
  C -2.92751333 -1.02596641 -2.34327746
  O -3.43090471 -0.45934167  0.33648074
  C -1.48785630 -1.21299498  2.26763308
  O -0.90241086 -2.20511012  2.64186747
  N -2.50542303 -0.63612038  2.92510041
  C -3.04778788 -1.20850151  4.13419754
  H -2.26778620  3.38994523 -0.41034164
  H -3.52523552  2.19484959 -0.18051169
  H -2.07686027  1.77041977 -1.11201421
  H  0.12667160  3.11119492 -0.55484583
  H  1.54836948  2.39176944 -1.29168677
  H -0.05102193  1.87349817 -1.81245838
  H  2.72041911  1.19082039  0.79760411
  H  1.98454752  3.69408927  1.37609569
  H -0.10676682  3.40558891  3.08807684
  H -0.38602759  0.77146672  3.35148578
  H  1.97979099  0.60365802 -2.65029668
  H  4.16670092 -0.13184697 -3.44461191
  H  5.45730581 -1.81727965 -2.17866496
  H  4.52948356 -2.72795334 -0.07221389
  H  2.35120709 -1.94660872  0.75851856
  H -0.02168114 -2.04421408  0.06392389
  H -0.96050425 -0.88275964 -1.56268555
  H -2.58965948 -0.55896223 -3.26643141
  H -3.11030221 -2.08783694 -2.52383501
  H -3.85863182 -0.56752060 -2.01272812
  H -3.04032570  0.09207916  2.47856542
  H -2.38875851 -2.01609549  4.44664194
  H -4.04923810 -1.60584023  3.95853443
  H -3.09531209 -0.44841700  4.91443849
