42
opt_min/./Product_1721_opt.xyz
  F  0.66039498  1.18684526  2.82030189
  C  1.67190033  0.88641957  1.96918123
  F  2.48357604  0.05747906  2.63149249
  F  2.34856622  2.03530713  1.79753728
  C  1.15922647  0.34975038  0.68723053
  C  1.10248750 -0.88951986  0.18182135
  C  1.51058205 -2.18322906  0.70185223
  C  2.17165800 -3.08851356 -0.12737769
  C  2.55831248 -4.32070541  0.36160186
  C  2.27419478 -4.67154713  1.67111301
  C  1.60305133 -3.78408403  2.49568044
  C  1.22396001 -2.54338767  2.01886150
  C  0.36185159 -0.70315838 -1.14114226
  C -1.12867764 -0.51948321 -0.71146558
  C -1.07172527  0.90149458 -0.10692235
  C  0.43970448  1.23496790 -0.32508452
  O  0.73642187  0.59343178 -1.53786597
  C -2.01481776  1.73834397 -1.00014532
  C -1.55679594  3.19640526 -1.16420651
  O -1.73997617  3.84192977 -0.01465336
  C -1.35112833  5.21234611  0.04873485
  O -1.11202408  3.66356007 -2.17038553
  C -3.34191489  1.75002202 -0.39221004
  N -4.39282601  1.69265967  0.05432018
  N -2.00213566  1.01708546 -2.25358083
  C -2.09000253 -0.38852462 -1.91332093
  C -1.73418796 -1.23884815 -3.03002799
  N -1.47622594 -1.92674237 -3.90415962
  H  2.40499896 -2.81158322 -1.14510846
  H  3.08208936 -5.01188589 -0.28280903
  H  2.57548847 -5.63821996  2.04647850
  H  1.37591730 -4.05927007  3.51483907
  H  0.69033275 -1.85670693  2.65731548
  H  0.53587322 -1.43481045 -1.92325512
  H -1.44706298 -1.30269359 -0.02621143
  H -1.34687171  0.97595701  0.94417741
  H  0.71094886  2.28551349 -0.34417258
  H -1.12520282  5.58301048 -0.95215712
  H -0.47326244  5.29522569  0.69102099
  H -2.18042926  5.76716958  0.48487200
  H -2.65584133  1.34418131 -2.95224496
  H -3.10870683 -0.69170507 -1.58796470
