23
opt_min/./Product_3238_opt.xyz
  C -0.87169200 -1.69303300  0.90891700
  C -0.54360325 -0.63412499 -0.12009764
  C -1.27293648  0.71188137  0.12528326
  C -2.61422584  0.77525677 -0.58909757
  N -0.30868237  1.73178374 -0.30300334
  N  0.78260794  0.98523955 -0.95595052
  N  0.85293666 -0.21766213 -0.21776170
  C  1.94591022 -0.70572944  0.41533974
  C  3.25880384  0.00416445  0.14057858
  O  1.90360720 -1.68323669  1.13779376
  H -0.73985647 -1.29621512  1.91210631
  H -0.22687673 -2.55733271  0.79778519
  H -1.90709193 -2.00106691  0.78098065
  H -0.81298969 -0.98187401 -1.12903933
  H -1.41919831  0.85671883  1.20593905
  H -3.14407346  1.68962892 -0.33146536
  H -2.46734068  0.74518805 -1.66856149
  H -3.23165374 -0.07101653 -0.29770626
  H -0.70439210  2.34274227 -1.01710835
  H  1.63012441  1.54160849 -0.82962976
  H  4.04815871 -0.73697802  0.24187700
  H  3.41292805  0.76217975  0.90666471
  H  3.32387280  0.45312354 -0.84537106
