45
opt_min/./Product_4543_opt.xyz
  C -1.00404000  2.75380700 -1.09404100
  C -1.43823934  2.55202531  0.32672253
  C -2.17589763  3.70376753  0.94004412
  C -1.17974215  1.45740853  1.03512876
  C -0.47626751  0.22114571  0.55261529
  C -1.38202211 -0.70657211 -0.31836657
  C -2.09924872 -1.72335543  0.51764250
  C -3.22745177 -1.16992819  1.34623128
  C -1.78814219 -3.00912981  0.57298536
  C -0.41195047 -1.20430625 -1.39902707
  C -1.13690166 -1.56096852 -2.68327245
  C -0.85096992 -2.93826365 -3.21779576
  O -1.88794895 -0.78690897 -3.21788641
  N  0.38539776  0.00889400 -1.58735297
  N  0.68496469  0.48088629 -0.28602122
  C  1.95319304  0.49266467  0.24364220
  C  2.13593710  0.93031331  1.56403633
  C  3.39965241  1.01479863  2.10876256
  C  4.51881607  0.67960487  1.36550769
  C  4.35364169  0.26564218  0.05591241
  C  3.09531557  0.17534141 -0.50391101
  H  0.08279194  2.74603248 -1.15152946
  H -1.37891851  3.69839856 -1.47860969
  H -1.35269079  1.94159842 -1.72907241
  H -2.49110361  3.48242119  1.95735913
  H -1.53474134  4.58644184  0.96183196
  H -3.05646194  3.94780690  0.34593969
  H -1.50806131  1.41239514  2.06653159
  H -0.14576796 -0.34568269  1.43596957
  H -2.12345354 -0.07692118 -0.82229990
  H -4.14575939 -1.72153959  1.15522739
  H -3.39674831 -0.12077110  1.12015985
  H -3.00104210 -1.26597686  2.40802962
  H -0.98708658 -3.45310900  0.00962778
  H -2.34057845 -3.68221175  1.20734871
  H  0.20685116 -2.04015725 -1.02766978
  H  0.19354934 -2.99484951 -3.52184093
  H -1.49023306 -3.14778286 -4.07264569
  H -1.02089683 -3.68211709 -2.44340651
  H  1.22691447 -0.12686976 -2.13402323
  H  1.28088310  1.22660124  2.14911980
  H  3.51175840  1.35219542  3.12912118
  H  5.50552993  0.74948928  1.79632408
  H  5.21549277  0.00782302 -0.54362217
  H  3.01093664 -0.15376295 -1.52960134
