32
opt_min/./Product_3781_opt.xyz
  C -0.47692200 -0.45531900 -1.04341900
  C -1.90712703 -0.63120017 -1.45163620
  C -2.85556694  0.03229065 -0.79139965
  N -2.61693117  0.77868754  0.33247343
  C -3.55576512  1.73755872  0.84547230
  C -1.35715967  0.70236420  0.98782635
  C -0.38207477 -0.38132646  0.48522213
  C -0.59263590 -1.68722070  1.24827195
  N -0.28195323 -2.81744625  0.58850585
  O -0.99820246 -1.68231169  2.39326878
  C  0.94186148  0.27647455  0.94617393
  C  2.18013150 -0.05081161  0.11754480
  N  3.06331756  0.95892154  0.09040750
  C  4.29113103  0.89592625 -0.66503145
  O  2.34263901 -1.13381308 -0.40839569
  N  0.63739309  1.70133952  0.98480968
  N -0.55722163  1.93078063  0.97244290
  H -0.09534294  0.49995344 -1.43672198
  H  0.16631474 -1.23272877 -1.45138871
  H -2.14725441 -1.26270390 -2.28669380
  H -3.89685567 -0.01714191 -1.07931486
  H -3.22688556  2.76357724  0.65061128
  H -3.66415638  1.60616889  1.92765551
  H -4.52684457  1.57241496  0.38006430
  H -1.54600246  0.53800542  2.06983593
  H -0.31844341 -3.68124840  1.10712402
  H  0.26013275 -2.79337989 -0.25873079
  H  1.15919963 -0.01024943  1.98729933
  H  2.77957274  1.84662820  0.48377565
  H  4.51516182 -0.15450798 -0.85663221
  H  4.18848800  1.40308293 -1.62900386
  H  5.10154443  1.35660457 -0.10014546
