45
opt_min/./Product_5489_opt.xyz
  C -1.18741000 -1.25028800  1.20139000
  C -0.32640876 -2.42661643  1.54266889
  C  0.80427626 -2.68231344  0.88210539
  N  1.27215308 -1.94900875 -0.17379633
  C  2.40143547 -2.40029020 -0.94941108
  C  0.57038978 -0.80806223 -0.63349955
  C -0.92824932 -0.76742880 -0.23215509
  C -1.71540815 -1.52571074 -1.32220955
  N -1.96965312 -2.81509789 -1.03389841
  O -1.98078158 -1.00995433 -2.38078305
  N -1.22707145  0.63984338 -0.34311876
  C -2.45103441  1.17333856 -0.14946598
  O -3.42238343  0.48781740  0.06864307
  O -2.43279569  2.51054612 -0.23981067
  C -3.68659849  3.15907980 -0.09031667
  O -0.06471106  1.43907328 -0.45980022
  C  1.03952880  0.61664997 -0.15338766
  C  2.27857493  1.13433084 -0.92272786
  N  2.03286140  2.24764378 -1.61786400
  C  3.04314481  2.91841383 -2.39845442
  O  3.35088723  0.57104819 -0.86810222
  C  1.36442476  0.64677972  1.34385872
  O  0.80703433  1.36625005  2.12983086
  O  2.34865741 -0.19144276  1.62576077
  C  2.77764209 -0.26440847  2.97957036
  H -0.98035335 -0.41931674  1.88615792
  H -2.24969356 -1.47675768  1.31670309
  H -0.61937964 -3.03556724  2.38132575
  H  1.42328922 -3.52594537  1.14711292
  H  2.92336788 -3.18071353 -0.40179284
  H  2.07665491 -2.80151107 -1.91616292
  H  3.09364895 -1.57559870 -1.11410827
  H  0.62160698 -0.76832606 -1.73267953
  H -2.54908123 -3.34164544 -1.66667259
  H -1.77513973 -3.19368084 -0.12169637
  H -4.12601028  3.33834650 -1.07395864
  H -4.36361027  2.53793507  0.49869434
  H -3.49561458  4.10489498  0.41311866
  H  1.10280833  2.63993838 -1.58523675
  H  3.14614258  3.95411785 -2.07350942
  H  2.78286247  2.89950031 -3.45807942
  H  3.98530166  2.39362825 -2.24870213
  H  2.56785089  0.67452239  3.49453605
  H  3.84638826 -0.46471895  2.95931750
  H  2.24990773 -1.08000283  3.47839833
