37
opt_min/./Product_4908_opt.xyz
  C -1.39836368  2.21158328  1.20374387
  O -1.46746639  2.38117280  2.39484697
  C -1.85846034  3.19911105  0.21417075
  C -1.46668906  3.16296666 -1.06177965
  C -0.62625755  2.09031145 -1.63446869
  O -0.57274272  1.88896883 -2.82018631
  C  0.14633494  1.27560066 -0.60317494
  C -0.73553284  0.97732596  0.61586030
  C -1.66581135 -0.10936999  0.01738126
  C -2.40516364 -0.87939353  1.15155038
  C -2.28833272 -2.37114583  1.13414704
  O -3.05251769 -0.25680945  1.94554995
  C -2.72723382  0.44653795 -0.80171486
  N -3.57607069  0.81256658 -1.47595531
  N -0.75305006 -0.92403439 -0.77705799
  C  0.46607762 -0.16350476 -1.09271269
  C  0.78572387 -0.28322849 -2.50420559
  N  1.05599473 -0.49932331 -3.59383667
  C  1.67135279 -0.69259879 -0.31621732
  C  2.94995512 -0.32884516 -0.71743414
  C  4.05425269 -0.75881762 -0.00386868
  C  3.89185963 -1.55333956  1.11895259
  C  2.61853115 -1.91778157  1.52075314
  C  1.51197794 -1.49103330  0.80713955
  H -2.49310964  3.98618222  0.59555083
  H -1.81710893  3.89287446 -1.77745541
  H  1.04446687  1.83614072 -0.31919024
  H -0.14302603  0.50109615  1.40210495
  H -2.10615159 -2.72203005  2.14759769
  H -1.51528504 -2.71951037  0.45794918
  H -3.24866190 -2.77921518  0.82118066
  H -1.18329760 -1.32537506 -1.60227567
  H  3.08514686  0.29074761 -1.59241587
  H  5.04272920 -0.47396144 -0.32770612
  H  4.75369496 -1.88873784  1.67433646
  H  2.48317008 -2.53740014  2.39476285
  H  0.52903074 -1.80109946  1.12769942
