37
opt_min/./Product_3747_opt.xyz
  C -1.65522900 -1.88098600 -0.45337000
  C -0.83736969 -0.88944181  0.39504614
  C -0.59503227 -1.58224716  1.74220497
  C -1.62407149  0.41790591  0.67014540
  C -2.50597283  0.85899621 -0.45420202
  O -3.65068659  1.20918824 -0.34024610
  C -0.46793568  1.43360928  0.84866206
  C -0.91144959  2.88181567  0.97682867
  N  0.45269932  1.11265531 -0.22542611
  C  0.50867028  1.93323602 -1.41553376
  C  0.48737711 -0.35985282 -0.30102007
  C  0.69430587 -0.92266750 -1.70549650
  C  1.79238396 -0.51660863  0.50125165
  O  1.91480218 -0.47404895  1.69867854
  O  2.84907754 -0.51516770 -0.32725160
  C  4.14099711 -0.42638318  0.25638202
  H -2.32350324 -1.37526952 -1.14708224
  H -1.02923238 -2.56331612 -1.01791031
  H -2.27451627 -2.48950893  0.20238952
  H -1.55159696 -1.88156470  2.16689011
  H  0.01617819 -2.47135858  1.60697809
  H -0.09353794 -0.93309444  2.45115090
  H -2.23329128  0.34195343  1.57338297
  H -2.00989922  0.87953656 -1.44561683
  H  0.05514331  1.16858035  1.78029806
  H -1.55338784  3.20436977  0.16054818
  H -0.04362231  3.53632305  1.03118874
  H -1.48080552  2.98385765  1.89815650
  H  0.31959141  1.37372152 -2.32870647
  H  1.50630161  2.38056596 -1.49451657
  H -0.21541293  2.74192400 -1.36920923
  H -0.19337540 -0.80666069 -2.32128034
  H  0.93560853 -1.98070272 -1.62966161
  H  1.53423763 -0.43281662 -2.18821098
  H  4.69050262  0.35061608 -0.27478584
  H  4.05619404 -0.17586625  1.31550251
  H  4.65061271 -1.38449618  0.14448533
