65
opt_min/./Product_2898_opt.xyz
  C  3.34241800 -1.23197200  2.25925800
  O  2.34539820 -0.85553613  1.31965014
  C  2.69249054  0.05211524  0.42494566
  O  3.78857567  0.53407881  0.32596168
  C  1.52774911  0.41823458 -0.51817211
  C  1.36996280  1.95928953 -0.48623961
  O  0.93101148  2.59371720 -1.41243887
  O  1.87953166  2.50379101  0.59824349
  C  1.91388504  3.92400604  0.64390263
  C  0.26629017 -0.29577097 -0.09405341
  C -0.05503867 -1.58909433 -0.24222177
  C  0.65531668 -2.70635823 -0.96707066
  F -0.02482759 -3.88130698 -0.75190396
  F  1.86689692 -2.98032765 -0.39752497
  C  0.75062919 -2.50787897 -2.48616602
  C  2.14546197 -2.17144136 -3.00763429
  C  2.85782989 -1.06228098 -2.23736364
  C  1.98714126  0.17374881 -1.98370329
  C -1.40039575 -1.90264236  0.39363541
  C -2.44590002 -2.39804167 -0.62337733
  C -3.79696828 -2.72515242 -0.04414279
  O -2.23097758 -2.40018705 -1.80629869
  C -1.21977964 -2.75698564  1.66884458
  C -1.48899932 -4.23300301  1.61455669
  O -0.91807396 -2.20061874  2.69707662
  N -1.90762794 -0.57998526  0.71177275
  C -0.82917029  0.40832100  0.70746046
  C -0.36941088  0.78881886  2.13514576
  C -1.46999366  0.87807452  3.16404532
  O  0.77510245  1.02447365  2.41371726
  C -1.37754008  1.64119050 -0.00146591
  C -1.38339406  2.90097647  0.58006062
  C -1.87224107  3.98991862 -0.12097443
  C -2.36830508  3.82447752 -1.40301754
  C -2.39172454  2.56338868 -1.97378503
  C -1.90029743  1.47560901 -1.27479142
  H  4.08533366 -1.87336743  1.77999525
  H  2.82218717 -1.77136933  3.04649096
  H  3.83258445 -0.34283213  2.65854334
  H  2.27184822  4.32081355 -0.30739679
  H  2.59164263  4.18282491  1.45318264
  H  0.91666026  4.32032736  0.83651981
  H  0.42144198 -3.44283541 -2.94311960
  H  0.02927460 -1.74146144 -2.76740907
  H  2.03450403 -1.87609978 -4.05221144
  H  2.77143063 -3.06632721 -2.98365249
  H  3.73176961 -0.76360179 -2.81616882
  H  3.23462517 -1.45412495 -1.29679402
  H  2.56992605  1.05123596 -2.26496963
  H  1.10305484  0.17395786 -2.61784944
  H -3.84783702 -2.54413261  1.02319636
  H -4.01986556 -3.77072580 -0.24767960
  H -4.54901603 -2.13083393 -0.55695613
  H -0.65024841 -4.75733350  2.06573092
  H -1.65823785 -4.60059154  0.61079162
  H -2.36296797 -4.44095703  2.23202246
  H -2.47068041 -0.55266678  1.55078144
  H -2.40165952  1.24582558  2.74355364
  H -1.14290139  1.52215752  3.97603187
  H -1.61588342 -0.12197255  3.57404621
  H -1.02902057  3.03606072  1.58994581
  H -1.85814582  4.96983284  0.33267177
  H -2.73531248  4.67906337 -1.95128255
  H -2.77867113  2.42533030 -2.97078886
  H -1.91520711  0.49149707 -1.71716708
