46
opt_min/./Product_4283_opt.xyz
  C -4.32438600 -0.19469400 -0.89829300
  C -3.18857564 -0.04437362  0.07240150
  C -3.62575709  0.15053063  1.49298367
  C -1.92669025 -0.07849150 -0.34426689
  C -0.69452015  0.05863106  0.48659268
  C  0.46929038 -0.80136143 -0.02764082
  C  0.36826384 -2.27057555  0.27772227
  C  0.91156406 -3.16681979 -0.79396213
  C -0.16304691 -2.77188827  1.38277642
  C  1.71425568 -0.07099186  0.54569245
  C  2.85680685 -0.06134928 -0.48235972
  N  3.37968671  1.15500002 -0.69025871
  C  4.47940266  1.39983809 -1.58637502
  O  3.25262767 -1.06857243 -1.03913420
  C  2.27544342 -0.69114976  1.82984556
  O  1.29955795  1.26702075  0.82436227
  C -0.07648559  1.47792154  0.49717582
  C -0.68061836  2.38135538  1.56821166
  C -0.17695112  2.16869830 -0.86923424
  H -3.96803770 -0.26311221 -1.92168786
  H -5.00069215  0.65537687 -0.81627725
  H -4.89311911 -1.09485264 -0.66913607
  H -2.81284572  0.01162238  2.19717478
  H -4.42176815 -0.55106876  1.73469618
  H -4.02045756  1.15737939  1.62419604
  H -1.73896255 -0.22008794 -1.40082743
  H -0.89548927 -0.21212767  1.52459364
  H  0.51893565 -0.69753830 -1.11784928
  H  0.28267853 -3.11059296 -1.68253829
  H  1.91364150 -2.83913655 -1.06530172
  H  0.94841063 -4.19946739 -0.46291612
  H -0.20837336 -3.83589620  1.54060230
  H -0.58032512 -2.17560020  2.17591139
  H  2.96499580  1.89968269 -0.15005350
  H  5.41975878  1.05187568 -1.15100812
  H  4.31641445  0.86434625 -2.52174293
  H  4.55169213  2.46589182 -1.78701498
  H  2.74105062 -1.64567997  1.60237041
  H  3.02128735 -0.01703873  2.24519336
  H  1.49260663 -0.84112758  2.56579303
  H -0.08153077  3.28360932  1.65644572
  H -1.69570478  2.65318082  1.29789526
  H -0.69186621  1.88341364  2.53402262
  H -1.21865616  2.31009436 -1.13953264
  H  0.30604509  1.57306067 -1.63946790
  H  0.31264539  3.13829958 -0.82304179
