67
opt_min/./Product_2917_opt.xyz
  C  4.72873434  2.01625703  1.25643016
  O  3.98948572  1.37467643  0.22335178
  C  2.97246274  0.59549386  0.56963277
  O  2.62388094  0.38296168  1.70353950
  C  2.30392258  0.00617673 -0.67101367
  C  0.84917963 -0.21704373 -0.38451066
  C  0.06422003 -1.20347165  0.05956982
  C  0.42643513 -2.59642526  0.54107644
  C -0.45483721 -3.09010708  1.59892112
  N -1.00005133 -3.60997760  2.45794124
  C  0.20981920 -3.56384557 -0.52714257
  N  0.02798412 -4.32648065 -1.35752377
  C  1.85243068 -2.72381990  1.15133071
  C  2.92857933 -3.20197243  0.17021940
  C  3.84221302 -2.09068616 -0.32846557
  C  3.16704612 -1.11416419 -1.29114604
  C -1.39774977 -0.76486489  0.04307122
  C -2.09642613 -1.07079630  1.39317040
  N -1.40863602 -0.54694653  2.42911423
  C -1.82331356 -0.72531185  3.79771468
  O -3.13780169 -1.66964924  1.51771352
  C -2.13374356 -1.31013138 -1.17855981
  C -1.42829166 -1.68750874 -2.31658527
  C -2.08914557 -2.09933045 -3.45905036
  C -3.47046204 -2.13235798 -3.49131182
  C -4.18256625 -1.74134536 -2.37272752
  C -3.52381030 -1.32533433 -1.22933688
  N -1.25765684  0.69602891 -0.00283646
  C -2.41534373  1.49638234 -0.32064712
  C -0.01755392  1.02250761 -0.67305732
  C -0.15812003  1.11981241 -2.12360577
  N -0.28955181  1.16412523 -3.25962742
  C  0.59574872  2.29628882 -0.11184759
  C  0.44836690  2.58011326  1.23943796
  C  1.03260537  3.70787617  1.78320226
  C  1.77363441  4.56330826  0.98615009
  C  1.91261243  4.29204549 -0.36398952
  C  1.32661118  3.16604591 -0.91350458
  H  5.77634447  1.73426390  1.15058656
  H  4.61705451  3.09303380  1.13240747
  H  4.34860398  1.71047213  2.23213636
  H  2.32587867  0.81214250 -1.41559210
  H  1.78681705 -3.46384939  1.95352366
  H  2.10997811 -1.76638801  1.59704125
  H  3.54120087 -3.95980743  0.66286146
  H  2.47009167 -3.68528805 -0.69505764
  H  4.26099806 -1.54475838  0.51885993
  H  4.67705081 -2.55719702 -0.85638127
  H  2.56545752 -1.66430534 -2.01705055
  H  3.95794620 -0.60213335 -1.84268921
  H -0.52264857 -0.09631221  2.25479476
  H -1.05258057 -1.24831923  4.36548271
  H -2.73071639 -1.32709302  3.78680311
  H -2.02909526  0.23935696  4.26552689
  H -0.34893229 -1.65885341 -2.33304199
  H -1.51442555 -2.38966028 -4.32507304
  H -3.98795372 -2.45528161 -4.38264522
  H -5.26256023 -1.75413227 -2.38589894
  H -4.10339571 -1.03678406 -0.36940705
  H -3.25271238  1.15063383  0.28231456
  H -2.20014004  2.53386465 -0.05914071
  H -2.70349617  1.45196351 -1.37973518
  H -0.13613710  1.91822219  1.86119046
  H  0.91219429  3.91648599  2.83591204
  H  2.23040040  5.44477513  1.41513020
  H  2.47938911  4.95734075 -0.99904585
  H  1.43447776  2.97057426 -1.97240318
