43
opt_min/./Product_4429_opt.xyz
  C -0.94653200  0.52443700  2.15107700
  C -0.58077302 -0.41998837  1.00935163
  C -0.26842333 -1.80003778  1.57535273
  C  0.57371035  0.20126368  0.16522055
  C  1.84066645 -0.57354352  0.09815455
  C  3.00045762 -0.11083457  0.55889823
  C  4.28190710 -0.79610044  0.50922213
  C  4.32123198 -2.20768021  0.00501654
  C  5.39293117 -0.16045372  0.88085150
  C -0.11281988  0.36407610 -1.21406643
  C  0.63527199  1.24732182 -2.19623865
  O -0.28051662 -0.97112739 -1.76864882
  C -1.27790460 -1.53566209 -1.07723884
  O -1.71840041 -2.62616949 -1.27181607
  C -1.72823537 -0.45438537 -0.06269406
  C -3.07171868 -0.68407221  0.59402330
  C -4.01103321  0.49207564  0.64391413
  O -3.32870521 -1.74793904  1.09305939
  N -1.44834866  0.76300704 -0.82754819
  C -2.36674011  1.03864818 -1.93214805
  H -0.08496709  0.66197923  2.79964336
  H -1.25380051  1.49300233  1.76148468
  H -1.76408792  0.11802583  2.74263248
  H -0.05795925 -2.52754243  0.79602329
  H  0.60310955 -1.73463295  2.22615046
  H -1.11611790 -2.16279378  2.15111284
  H  0.77060753  1.21530654  0.52652588
  H  1.76945910 -1.53468689 -0.38883634
  H  3.03113521  0.87037789  1.02000525
  H  5.26552377 -2.67885369  0.26654849
  H  3.51215559 -2.79807812  0.42963102
  H  4.21437756 -2.22152708 -1.07924438
  H  5.37496102  0.85884218  1.22795194
  H  6.35728960 -0.63790453  0.85112453
  H  0.54610594  0.84053752 -3.19899235
  H  1.68629700  1.28668334 -1.92385236
  H  0.22109283  2.25187664 -2.16307915
  H -4.65515570  0.46156203 -0.23347559
  H -4.64748861  0.39085002  1.52084836
  H -3.47311866  1.43219206  0.65944589
  H -2.90027001  1.96705690 -1.72210284
  H -3.09430222  0.23799082 -2.07266244
  H -1.81592739  1.15554222 -2.86353601
