40
opt_min/./Product_241_opt.xyz
  C  0.94083600  2.72617800  0.82480900
  C -0.22657403  1.92683238  0.29842756
  O -1.32092279  2.43288400  0.25813334
  C  0.03955308  0.49009507 -0.20125332
  C -0.71077677 -0.61740194  0.66258093
  C -1.38589113 -0.07987041  1.92878632
  C -1.65234859 -1.25102024 -0.38111480
  C -2.71507820 -0.23341567 -0.83130631
  C -1.94412767  0.69384316 -1.79023633
  C -0.49945415  0.20779987 -1.63375118
  C -0.77009478 -1.29899016 -1.63288888
  C  0.46213285 -1.58131162  1.03529955
  C  0.30733891 -2.55709204  2.19410869
  N  1.51737689 -0.58735670  1.21874434
  N  1.44315933  0.15401475  0.00882546
  C  2.57890614  0.34321594 -0.69967576
  C  2.51884450  1.21176958 -1.93541949
  O  3.62552600 -0.15549078 -0.31124539
  H  0.60173850  3.27656594  1.70081758
  H  1.81152845  2.13502172  1.07831248
  H  1.21020915  3.46541581  0.07131441
  H -1.07320910  0.93231464  2.16119553
  H -1.14180735 -0.67684225  2.79916297
  H -2.46757813 -0.07303697  1.82695449
  H -2.06920917 -2.20066339 -0.04880822
  H -3.12898829  0.32744086  0.00185028
  H -3.53592090 -0.73831768 -1.33949040
  H -2.24960595  0.53207825 -2.82503447
  H -2.08778364  1.74551672 -1.56701933
  H  0.14556935  0.55545583 -2.43342186
  H  0.11462086 -1.92678993 -1.57564968
  H -1.33452440 -1.59664668 -2.51544869
  H  0.72389021 -2.16782968  0.14431808
  H  0.36569660 -3.57877156  1.82588091
  H  1.11095087 -2.41475718  2.91247807
  H -0.63738713 -2.45439178  2.71595129
  H  2.45632647 -0.98492130  1.28355837
  H  2.29286792  0.59553395 -2.80302712
  H  3.50887142  1.63845445 -2.08007941
  H  1.78688091  2.00665818 -1.84805412
