28
opt_min/./Product_3561_opt.xyz
  C  0.02105816  0.72649488 -1.54970205
  C -0.08298524  0.70476831 -0.02356954
  C -0.02755387  2.12818889  0.55009947
  C -1.33020257 -0.03323672  0.51863099
  C -2.66487320  0.15245301 -0.16334018
  O -2.91406552  0.89221882 -1.06475626
  C -0.87118787 -1.50803636  0.58148591
  C -1.64626593 -2.31019854  1.51903706
  N -2.24769298 -2.97376477  2.22646433
  C -0.93853717 -2.18803595 -0.71177963
  N -0.86002025 -2.75452614 -1.70124919
  N  0.49623441 -1.34454578  1.06213960
  N  0.99775498 -0.13226317  0.52253969
  C  2.31620163  0.15226564  0.38577538
  C  3.27075389 -0.86807409  0.95880547
  O  2.67952698  1.19324730 -0.12382940
  H -0.86335119  1.18430454 -1.98222613
  H  0.12717199 -0.27822845 -1.95470138
  H  0.89759300  1.30474321 -1.82863863
  H  0.33764681  2.82321143 -0.19924485
  H -1.01392589  2.45560038  0.86878859
  H  0.64753897  2.16534270  1.40211489
  H -1.48338936  0.27101577  1.56562456
  H -3.44480250 -0.48339286  0.30391799
  H  1.09337440 -2.14850246  0.88923237
  H  3.13664209 -0.94810563  2.03548420
  H  3.11922211 -1.85010848  0.50934501
  H  4.28520828 -0.53754987  0.75108311
