46
opt_min/./Product_1757_opt.xyz
  C -4.40795037 -2.84602349  0.74393378
  O -3.48989772 -1.77211286  0.58090924
  C -3.35387939 -1.28571402 -0.65023327
  O -3.95864543 -1.67173925 -1.61254123
  C -2.39214761 -0.09586558 -0.67837766
  C -1.02692159 -0.49642708 -0.24420801
  C  0.09502669  0.18021658  0.02329714
  C  0.35608994  1.64805480  0.18202343
  F  1.69735422  1.87417137  0.00256720
  F  0.14168008  1.98460583  1.49197235
  C -0.35434296  2.65615073 -0.72944737
  C -1.68942349  3.21672326 -0.24410391
  C -2.97519880  2.41409030 -0.42140683
  C -3.06603599  1.00972847  0.16539859
  C  1.14964818 -0.87047717  0.46803471
  C  2.61875407 -0.60969125  0.36194131
  C  3.14449423 -0.28770303 -0.88650791
  C  4.50507392 -0.11311388 -1.04580433
  C  5.35611124 -0.26612219  0.03551634
  C  4.83810414 -0.59747999  1.27488954
  C  3.47600109 -0.77611708  1.44099560
  N  0.75023048 -2.06852479 -0.27337910
  C -0.64623288 -1.97379623  0.07046340
  C -1.43146421 -3.06813093 -0.45370251
  N -1.94710892 -3.97426982 -0.92010812
  O -0.57027034 -2.00840072  1.51244285
  C  0.52283395 -1.28962003  1.82835331
  O  0.86448456 -1.03524036  2.93653704
  H -4.28053928 -3.57237098 -0.06128553
  H -4.18173971 -3.29675150  1.70637983
  H -5.43045935 -2.46399829  0.72849840
  H -2.35878098  0.23340479 -1.72536964
  H  0.32901883  3.51248534 -0.71205046
  H -0.39092701  2.27786494 -1.75062278
  H -1.84680450  4.13850846 -0.81079522
  H -1.57569517  3.49380746  0.80555110
  H -3.23893208  2.36215921 -1.48103959
  H -3.74759418  3.01033081  0.07203864
  H -2.72095510  0.97522740  1.19854276
  H -4.13401087  0.77130733  0.16690196
  H  2.48228198 -0.16207687 -1.73255516
  H  4.89787786  0.14495915 -2.01808914
  H  6.41857424 -0.12484351 -0.09509212
  H  5.50056631 -0.71831815  2.11889676
  H  3.07186488 -1.02337519  2.40862387
  H  0.94381317 -2.02975463 -1.26818036
