38
opt_min/./Product_595_opt.xyz
  C -1.99480652  3.24581835 -1.55451187
  O -1.35743520  2.20683619 -0.81637924
  C -1.32127920  1.00903172 -1.38072291
  O -1.84598723  0.71762371 -2.42140406
  C -0.50925544  0.03049121 -0.52678325
  C -0.66330117 -1.42435862 -1.00610066
  C -1.47104024 -2.09741046  0.12479729
  C -0.56159390 -2.35477480  1.32668095
  C -0.23381456 -0.92769892  1.81324917
  C -1.08426077 -0.02589749  0.90357641
  C -2.29965056 -0.91713513  0.63841098
  N  0.69529178 -1.89138129 -1.19304305
  C  1.02310693 -3.11461566 -1.51857155
  N  1.29889782 -4.20349893 -1.76199514
  N  1.68931235 -0.94881144 -0.81216753
  C  1.01408337  0.33033185 -0.71016935
  C  1.57277438  1.27730108  0.36334755
  O  2.56088449  0.69644242  1.04385973
  C  3.20385526  1.48869843  2.04141942
  O  1.17390875  2.39034196  0.54388339
  C  1.21127548  1.00775436 -1.99127098
  N  1.39374084  1.49691304 -3.00627836
  H -1.31775393  3.60208502 -2.33341092
  H -2.90945799  2.86978345 -2.01733822
  H -2.20847143  4.03799907 -0.84102894
  H -1.19191921 -1.47293325 -1.96654067
  H -2.02388674 -2.96997761 -0.21518793
  H  0.32184503 -2.93957868  1.07387637
  H -1.11410526 -2.90863189  2.08697753
  H -0.52110163 -0.78201240  2.85708063
  H  0.82715320 -0.70295056  1.74529481
  H -1.26460411  0.96433968  1.31843911
  H -2.85477025 -1.15898048  1.54428487
  H -2.98572013 -0.51500572 -0.10531018
  H  2.16066223 -1.22661485  0.04961445
  H  3.68504728  0.79310850  2.72481290
  H  3.94466224  2.13566390  1.56821585
  H  2.46980353  2.10883139  2.55864507
