41
opt_min/./Product_1317_opt.xyz
  C -1.14085900  0.40298000 -2.73671000
  O -1.53949877  0.68989906 -1.40682816
  C -0.81879873  0.28076172 -0.28752812
  C -0.11172465 -1.12480629 -0.16800100
 Br -0.16648257 -2.37396377 -1.67224190
  C -0.74589509 -1.76317559  1.09040242
  C -2.16747242 -2.22577354  0.78066742
  C -2.88269356 -0.89257688  0.49167155
  C -1.84232117  0.16861344  0.87506408
  C -1.03642633 -0.53950842  1.95887139
  C  1.30727482 -0.76207757  0.15142519
  C  2.39747567 -1.77006699  0.28082500
  O  3.47663827 -1.22878003  0.84120396
  C  4.60296236 -2.08020420  0.99953963
  O  2.31068132 -2.91903214 -0.06446737
  N  1.52835059  0.46772731  0.35826639
  C  0.38222321  1.27020076  0.06809195
  C  0.78807144  2.18720449 -1.11460111
  C  0.10068943  2.31787882  1.15073315
  C  1.27465643  2.66204171  2.02858952
  O -0.96239821  2.86950398  1.24759798
  H -0.07382660  0.21248053 -2.84005314
  H -1.40823312  1.28373754 -3.32533404
  H -1.69475663 -0.45878696 -3.11897260
  H -0.09518097 -2.52595174  1.52067045
  H -2.22450766 -2.92367647 -0.05190395
  H -2.58218512 -2.71658983  1.66201403
  H -3.15287687 -0.79370874 -0.55869146
  H -3.78892664 -0.78042724  1.08702756
  H -2.27318548  1.13499245  1.11384541
  H -1.65207879 -0.79787592  2.82046254
  H -0.15410166 -0.00353282  2.30217355
  H  5.47529408 -1.43243023  1.06282024
  H  4.68548279 -2.76416703  0.15136514
  H  4.49806788 -2.66328870  1.91762376
  H -0.10036744  2.67142691 -1.50459108
  H  1.28887432  1.60512338 -1.88583636
  H  1.49478194  2.93623736 -0.76624824
  H  2.07899839  1.94211525  1.91379781
  H  0.93404170  2.70424328  3.06224122
  H  1.63331478  3.65819938  1.76824437
