41
opt_min/./Product_4985_opt.xyz
  C  0.91613393 -1.63573042 -0.69889657
  O  1.02439657 -2.76527002 -1.11604107
  C  2.06961667 -0.69844565 -0.76986263
  O  3.10864607 -1.30844505 -1.36645210
  C  4.32044214 -0.63390594 -1.63360163
  C  2.00635322  0.55607473 -0.23207241
  O  3.10067517  1.37171044 -0.25705228
  C  2.94337966  2.74648844  0.04127448
  C  0.80721120  0.95338541  0.51777587
  O  0.86266617  1.69296306  1.47508191
  C -0.51033700  0.39369763 -0.01824741
  C -0.78632526  1.10941465 -1.33803993
  C -0.39045390 -1.14039852 -0.10624482
  C -1.53290973 -1.81254250 -0.87110873
  C -0.46316931 -1.49843808  1.40096117
  N -1.34449907 -0.52053006  2.01713200
  C -1.57388848  0.58672010  1.10100186
  C -1.49352769  1.87087328  1.79277458
  N -1.66145564  2.86535161  2.33300726
  C -3.05115157  0.58438293  0.63290228
  O -3.84173717 -0.23859426  1.01412707
  O -3.34543789  1.60712783 -0.15206551
  C -4.71367317  1.73970426 -0.52832818
  H  4.96635774 -1.38437535 -2.08965058
  H  4.16358024  0.18885170 -2.33580514
  H  4.78624888 -0.24881784 -0.72733949
  H  3.89715036  3.19871635 -0.23092019
  H  2.74153356  2.91227968  1.10058402
  H  2.14081045  3.19860203 -0.54771840
  H  0.00226215  0.87272728 -2.05190404
  H -1.73899969  0.81114566 -1.76514512
  H -0.80984230  2.18655396 -1.17840966
  H -1.35152651 -2.88563107 -0.88775703
  H -1.56261240 -1.46486707 -1.90116618
  H -2.49320820 -1.63242840 -0.40010030
  H  0.53027976 -1.39918675  1.85550773
  H -0.81593188 -2.51750773  1.55776818
  H -2.23969229 -0.91110290  2.29722736
  H -5.34430386  1.79038914  0.36073702
  H -5.02525136  0.88683532 -1.13495071
  H -4.77937046  2.66218139 -1.09907634
