32
opt_min/./Product_4142_opt.xyz
  O  3.11611700 -2.15937400 -1.72218200
  C  3.09601829 -1.85330026 -0.62126278
  O  3.05903334 -1.57714833  0.48835779
  C  1.02026250  0.41986757 -1.49633897
  C  0.02550683 -0.20077182 -0.88676684
  C  0.96523432 -2.58786803 -3.55298301
  O  1.50312234 -2.24721350 -4.50238791
  O  0.39030822 -3.00898393 -2.65417556
  C -0.22329281  0.43416105  0.45659912
  C -1.56552014  1.20987283  0.37067142
  N -2.66108859  0.42111380  0.36594586
  C -3.99697227  0.95870326  0.26491084
  O -1.60646066  2.41282297  0.26955991
  C -0.18714309 -0.55063302  1.62854307
  O  0.83087785  1.37677966  0.60889388
  C  1.57298429  1.47993131 -0.59168914
  C  3.08037099  1.32892479 -0.34258403
  C  3.51457720  1.72394202  1.03167677
  O  3.82246974  0.92998248 -1.20507671
  H  1.44209103  0.23759734 -2.46618653
  H -0.57309241 -1.01237284 -1.25426735
  H -2.56765044 -0.57773085  0.44142245
  H -4.49874130  0.58055006 -0.62769113
  H -4.58603465  0.69800540  1.14601137
  H -3.90718827  2.04140200  0.19758028
  H  0.82218116 -0.94544689  1.72153813
  H -0.86988408 -1.38190698  1.47461700
  H -0.44545024 -0.03446556  2.54940826
  H  1.43491000  2.48415757 -1.03138673
  H  3.11710848  2.70604886  1.27371255
  H  3.08139599  1.01986624  1.73973352
  H  4.59819780  1.71122376  1.10775967
