41
opt_min/./Product_4834_opt.xyz
  C  0.60674876  0.38067083 -2.36541602
  C -0.02604533 -0.42987771 -1.23890867
  C -0.02709791 -1.90857107 -1.64168883
  C -1.48490236  0.07796037 -0.98630173
  C -2.48263975 -0.74882557 -1.75985290
  O -2.75426279 -0.53672359 -2.90604928
  C -1.69754297  0.10821981  0.53672168
  C -2.63571720 -0.88457046  1.03280177
  N -3.38302532 -1.61949270  1.49002689
  C -2.13265785  1.50949305  1.04052419
  C -2.75508665  1.53697937  2.40181514
  O -1.88102116  2.50143186  0.40179274
  N -0.38340924 -0.14610332  1.09815453
  C  0.68669098 -0.22245897  0.13942591
  C  1.65165137  1.00407278  0.10230421
  N  1.13597757  2.14767338  0.59487204
  C  1.92090870  3.36176894  0.60105718
  O  2.78893122  0.91407131 -0.29511425
  C  1.60610883 -1.39483456  0.52712389
  O  2.49971503 -1.81765596 -0.14922468
  O  1.30733204 -1.84951941  1.74311499
  C  2.10944594 -2.91262091  2.23971749
  H  1.62303079  0.03763859 -2.54159819
  H  0.02482473  0.24346436 -3.27445230
  H  0.63772572  1.44224047 -2.12989676
  H  0.99064501 -2.23606558 -1.83243944
  H -0.45265871 -2.53010406 -0.85389753
  H -0.60224974 -2.05068464 -2.55310756
  H -1.56667641  1.10621058 -1.36321372
  H -2.94870644 -1.58150228 -1.20627253
  H -2.37449775  0.74426372  3.04072589
  H -3.82645726  1.37102073  2.27715419
  H -2.61678699  2.51143595  2.86551938
  H -0.17070966  0.18502221  2.02414460
  H  0.14546146  2.25153844  0.73368848
  H  2.95255292  3.10594667  0.83628802
  H  1.90239104  3.84858496 -0.37797088
  H  1.52546924  4.04285871  1.35014190
  H  2.05827598 -2.86589130  3.32431989
  H  3.13864894 -2.80288571  1.89268030
  H  1.71318119 -3.86695848  1.88538192
