55
opt_min/./Product_1902_opt.xyz
  C  5.09053500  2.21187900 -0.18552700
  N  3.97899980  1.30303842 -0.06465131
  C  4.11194355 -0.03516155 -0.24689485
  O  5.17466956 -0.54628187 -0.56707913
  C  2.88538767 -0.79546333  0.00888068
  C  2.39031347 -1.95810089 -0.46873638
  O  2.69545732 -2.80345007 -1.44310427
  C  3.82827307 -2.53402427 -2.25492993
  C  1.06917205 -2.16205377  0.26500678
  C  0.08312550 -1.15013477 -0.36897978
  C  0.64455405  0.18140455  0.17235711
  C  1.82912754 -0.34827580  1.02248906
  O  1.33923809 -1.58230847  1.52115509
  C -0.52598607  0.88180343  0.91851075
  C -0.41383146  0.77117476  2.44790055
  C -0.54943818  2.33272661  0.46001731
  C -1.46045256  2.75658028 -0.50030883
  C -1.45189344  4.06380571 -0.95399396
  C -0.52087996  4.96645363 -0.47091232
  C  0.41482450  4.54481283  0.45724449
  C  0.40310676  3.23877764  0.91347606
  N -1.69230890  0.17006700  0.40243433
  C -2.96189514  0.36313344  1.05837230
  C -1.34464125 -1.21421217  0.18803907
  C -2.27210315 -1.87175552 -0.83170206
  N -2.39712740 -3.20732258 -0.65709519
  C -3.13407075 -4.04514915 -1.57210441
  O -2.82341701 -1.26617594 -1.72316191
  H  5.90688774  1.66672946 -0.65629138
  H  4.81361976  3.06837959 -0.80040887
  H  5.42110583  2.56627717  0.79460113
  H  3.08188338  1.68799835  0.18097951
  H  4.01276717 -3.44119679 -2.82617819
  H  3.60714616 -1.70652229 -2.93461389
  H  4.70210978 -2.27441368 -1.65493766
  H  0.72809794 -3.18953510  0.35423822
  H  0.07891059 -1.20389180 -1.45638929
  H  0.99734187  0.82700350 -0.63285991
  H  2.17786106  0.28686722  1.83068270
  H -1.37747044  0.98993615  2.90069493
  H  0.30072874  1.48134264  2.84979771
  H -0.10968430 -0.23154211  2.73496005
  H -2.16497489  2.04707781 -0.90228672
  H -2.17345369  4.37575260 -1.69477496
  H -0.51462602  5.98735354 -0.82315166
  H  1.16099457  5.23347814  0.82698540
  H  1.15558694  2.93151956  1.62671001
  H -3.07000217 -0.22412848  1.98353985
  H -3.74821936  0.05738407  0.36769376
  H -3.09478872  1.41810468  1.28880504
  H -1.35863403 -1.79532303  1.13243501
  H -1.87812854 -3.66436736  0.07510404
  H -2.46340214 -4.69200942 -2.14183943
  H -3.66212258 -3.38379162 -2.25707010
  H -3.85236193 -4.66157473 -1.03009834
