48
opt_min/./Product_2089_opt.xyz
  C -1.58766200 -0.32644400  2.31752500
  C -0.21600294 -0.33580996  1.68503303
  O  0.76777045 -0.32683515  2.37872942
  C -0.13689025 -0.39217626  0.16433896
  C  1.23329064 -0.81736858 -0.44351923
 Br  2.51757590 -1.68850655  0.77197100
  C  0.75091179 -1.98890778 -1.39663133
  C  0.49520474 -3.14985712 -0.45763069
  C -0.62078691 -2.82621376  0.17929185
  C -1.05970211 -1.50800107 -0.42712324
  O -0.55887438 -1.60509770 -1.74903862
  C  1.87703418  0.45420592 -1.08468891
  C  2.17376598  0.25673722 -2.57609456
  C  3.12117045  0.91283163 -0.32788697
  C  4.40392272  0.72224812 -0.82767681
  C  5.51136314  1.15235656 -0.11859897
  C  5.36122995  1.77399757  1.10740263
  C  4.09041707  1.95497468  1.62319438
  C  2.98343777  1.53046614  0.91386105
  N  0.85597365  1.49395186 -0.98053434
  C -0.41331710  1.01948167 -0.49023266
  C -0.94897772  2.05470277  0.50548148
  O -2.26410545  1.94884447  0.69321080
  C -2.89183330  2.93731470  1.50388580
  O -0.26731592  2.91550130  1.00078609
  C -1.40634813  1.03521010 -1.66917735
  H -2.39140468 -0.55742883  1.62996022
  H -1.75871718  0.65458670  2.75615416
  H -1.57826544 -1.03588181  3.14333702
  H  1.36850468 -2.15448835 -2.26961108
  H  1.11463301 -4.01902962 -0.36848026
  H -1.10715001 -3.29976720  1.00783570
  H -2.12586355 -1.31221209 -0.42472140
  H  1.24246821  0.10993118 -3.11646177
  H  2.64372163  1.15951508 -2.95680888
  H  2.82795157 -0.59169728 -2.75245075
  H  4.55753197  0.21633857 -1.76644955
  H  6.49677902  0.99330478 -0.53081430
  H  6.22793845  2.10514467  1.65990648
  H  3.95594104  2.42343710  2.58600535
  H  2.00782281  1.67850410  1.35190288
  H  1.19680650  2.29787893 -0.46585650
  H -3.29359577  3.72371624  0.86312595
  H -2.17088017  3.37167537  2.19876722
  H -3.70085044  2.44494159  2.03944940
  H -2.35450722  0.57534530 -1.41812138
  H -1.57548959  2.07348363 -1.94427792
  H -0.97978221  0.51826569 -2.52066941
