48
opt_min/./Product_1996_opt.xyz
  C -1.17355228 -3.52085207 -0.92919644
  O -1.00394755 -2.11070524 -0.81528258
  C -0.84253306 -1.62742926  0.47418457
  F  0.04874607 -2.47521978  1.12804451
  C -0.20844870 -0.25914582  0.41718655
  C -0.64138875  0.88058465 -0.11912670
  C -1.82458579  1.25580240 -0.95956921
  F -1.33727524  1.70486860 -2.16405048
  F -2.40324823  2.38064804 -0.41506259
  C -2.94265402  0.26353596 -1.24080145
  C -3.75279637 -0.12652538  0.00290861
  C -3.41496561 -1.51638588  0.53638317
  C -2.12282001 -1.58845931  1.34283300
  C  0.34292136  1.99496670  0.24102550
  C -0.36574399  3.20226323  0.95274353
  C -0.41722160  4.50239063  0.21578300
  O -0.80844082  3.02132077  2.04891438
  C  1.13603611  2.37418730 -0.91945895
  N  1.80893871  2.64171126 -1.80211926
  O  1.18702541  1.41657966  1.21944064
  C  1.13412518  0.00229452  1.07953950
  C  1.28528889 -0.60496439  2.39756591
  N  1.46449698 -1.08773188  3.41692849
  C  2.33597939 -0.47933756  0.25682085
  C  2.24410920 -1.43424910 -0.74008721
  C  3.38408036 -1.82046589 -1.42613878
  C  4.61006642 -1.25718962 -1.12212635
  C  4.69643598 -0.28906727 -0.13491559
  C  3.56468559  0.09381578  0.55826313
  H -1.62965355 -3.68901402 -1.90260397
  H -0.20252185 -4.02202225 -0.88211968
  H -1.81351388 -3.91848762 -0.14097921
  H -2.53207443 -0.60344824 -1.75355694
  H -3.58811924  0.80157051 -1.94224353
  H -3.62062238  0.63036331  0.77688981
  H -4.81134836 -0.13091832 -0.26556239
  H -4.23431658 -1.86638293  1.16756238
  H -3.35277838 -2.19423689 -0.31428527
  H -2.04434259 -0.73560656  2.01874477
  H -2.12168641 -2.49120694  1.95807504
  H -0.21515107  5.31025428  0.91718444
  H -1.43199042  4.64073004 -0.15642378
  H  0.27494006  4.53975880 -0.61980729
  H  1.29303097 -1.85480912 -1.02147221
  H  3.30622463 -2.56486846 -2.20419101
  H  5.49482517 -1.56552429 -1.65719541
  H  5.64551238  0.16644984  0.10131026
  H  3.62442745  0.84591788  1.33155090
