36
opt_min/./Product_4719_opt.xyz
  C -2.14408096  0.60297193  0.84927117
  C -2.61057309 -0.78504795  1.14774186
  C -1.81335025 -1.80618467  0.84168916
  N -0.59172665 -1.64958076  0.22430418
  C  0.15788336 -2.84882096 -0.09371575
  C -0.42899373 -0.55380977 -0.70054531
  C -1.40418426  0.63597416 -0.49926705
  C -2.38553110  0.73934620 -1.67707576
  N -3.12088989  1.87111125 -1.70534696
  O -2.50447416 -0.13792778 -2.49691925
  C -0.37625392  1.81994539 -0.46768349
  C -0.88725240  3.07042930  0.05248345
  N -1.32462772  4.03945754  0.47008030
  O  0.68247653  1.29677205  0.27639679
  C  0.95247432  0.20061579 -0.60042798
  C  2.23852365 -0.55399313 -0.29509579
  N  2.89716424 -0.06456873  0.76654567
  C  4.17572122 -0.58594994  1.18450121
  O  2.61390914 -1.47533685 -0.98154564
  C  0.99774166  0.94249520 -1.95810890
  O  1.59067699  0.70362462 -2.95339368
  O  0.14628842  1.98405340 -1.78926737
  H -2.97576757  1.30931520  0.84546302
  H -1.43681994  0.92154059  1.62658283
  H -3.55756953 -0.92838919  1.63179104
  H -2.07504022 -2.82296599  1.09208039
  H  0.53145888 -2.81815109 -1.11664776
  H  1.01595103 -2.94644279  0.57457707
  H -0.47093062 -3.73145791  0.02278750
  H -0.53586258 -0.93378682 -1.72931837
  H -2.95602320  2.66413102 -1.11062312
  H -3.73866613  1.99357688 -2.49227853
  H  2.51111452  0.72372427  1.26140480
  H  4.98020002  0.11123673  0.94237742
  H  4.17194613 -0.77189873  2.25814777
  H  4.34376032 -1.51841987  0.64803438
