31
opt_min/./Product_3381_opt.xyz
  C -0.83499200  1.60971400 -1.26422700
  C -1.45262481  0.31103532 -0.74675145
  C -0.50336753 -0.88356988 -0.94471199
  C -1.27128002 -2.19171165 -1.11852608
  C  0.35971921 -0.80374593  0.33703775
  C  0.87223900 -2.14637288  0.87381532
  C  1.62262434  0.01261265  0.02378501
  O  2.28120888 -0.14417561 -0.97637858
  O  1.92128842  0.87592290  0.98778962
  C  3.09556862  1.65958431  0.84019364
  O -0.41718390 -0.15361230  1.32621570
  C -1.64952288  0.29892423  0.78135644
  C -2.03910215  1.62675602  1.42716462
  H -1.56548784  2.41519811 -1.27206703
  H -0.47623153  1.47002909 -2.28119223
  H  0.00361660  1.91249762 -0.64240090
  H -2.40561944  0.13848155 -1.25452890
  H  0.14231034 -0.74664259 -1.81565317
  H -1.92017274 -2.38632147 -0.26863766
  H -1.88854997 -2.13049252 -2.01199758
  H -0.58827974 -3.02819321 -1.23788102
  H  1.44651576 -1.96250855  1.77875173
  H  0.04541206 -2.80492590  1.12172302
  H  1.50956598 -2.62244418  0.13280000
  H  3.50048698  1.52693331 -0.16589076
  H  2.82901267  2.70116526  1.01228471
  H  3.82658636  1.33716765  1.58212154
  H -2.41718000 -0.45787111  1.02481085
  H -2.61714009  1.45196964  2.32859120
  H -1.13373265  2.16254101  1.69815619
  H -2.62958517  2.23505933  0.75174793
