48
opt_min/./Product_2250_opt.xyz
  F -3.07809300  1.07880700  1.66524500
  C -1.74946922  1.20498143  1.83162613
  F -1.46222828  0.68070471  3.02142895
  F -1.53487780  2.51995960  1.97825088
  C -1.00183141  0.56557238  0.65338695
  C  0.49559080  0.94963909  0.45807887
 Cl  1.23792919  1.99058975  1.69291259
  C  0.50158327  1.60577705 -0.93237173
  C -0.26458861  2.93749696 -0.84688949
  C -1.74558493  2.49867047 -0.81532673
  C -1.63652543  0.97331468 -0.70704778
  C -0.50169732  0.75343367 -1.71223078
  C  1.18880009 -0.44496952  0.56225120
  C  2.60226361 -0.47190809  0.07112197
  C  2.87913660 -0.68019252 -1.27477173
  C  4.18870909 -0.66022068 -1.71955344
  C  5.22424908 -0.42944337 -0.82936738
  C  4.94768242 -0.22323873  0.51186345
  C  3.64036227 -0.24313709  0.96404619
  O  1.11131936 -0.83537658  1.96295272
  C -0.14029640 -1.25647135  2.17097334
  O -0.53226003 -1.82043654  3.14053055
  C -0.87595087 -0.98678266  0.82417637
  C -2.15774870 -1.76944106  0.60232281
  O -2.97257422 -1.59241785  1.62601554
  C -4.22228521 -2.27173728  1.59433617
  O -2.36745130 -2.46624816 -0.35225547
  N  0.22619824 -1.31077118 -0.08308347
  C  0.58355713 -2.72341263 -0.16463261
  H  1.50406722  1.69244018 -1.34550955
  H -0.05095239  3.54227645 -1.72662281
  H  0.01469861  3.50932766  0.03452353
  H -2.31930905  2.97176868 -0.02609932
  H -2.24316196  2.73915301 -1.75627254
  H -2.56569439  0.44448830 -0.91139056
  H -0.73623351  1.20098006 -2.67632508
  H -0.22264613 -0.28181994 -1.85408289
  H  2.07147084 -0.86308002 -1.96586788
  H  4.39899321 -0.82540066 -2.76549135
  H  6.24488718 -0.41322046 -1.18048721
  H  5.75460663 -0.04561253  1.20602480
  H  3.42349358 -0.09198077  2.00923689
  H -4.11151324 -3.24614309  1.11572743
  H -4.53429778 -2.37512953  2.63035174
  H -4.94989830 -1.67816723  1.03730730
  H  0.15617281 -3.31132827  0.65008612
  H  0.20048935 -3.11492659 -1.10702935
  H  1.66620474 -2.83288184 -0.13819925
