31
opt_min/./Product_1128_opt.xyz
  F -0.98463017 -1.62887795 -2.13495296
  C -1.48508941 -1.28390082 -0.94760911
  F -2.03354109 -2.38799248 -0.40836765
  F -2.50549686 -0.45861706 -1.18570159
  C -0.42030061 -0.73848569  0.00103749
  C  0.25623884  0.63596471 -0.27145269
  C -0.11669684  1.43358713 -1.51854232
  F -1.42172821  1.69642876 -1.63081490
  F  0.48547749  2.63710258 -1.47885006
  F  0.25601814  0.84862548 -2.65700290
  C -0.10760722  1.40297215  1.04970941
  C -1.60508008  1.63449848  1.02718237
  C -2.14374602  0.44958570  1.28429907
  C -0.96648336 -0.49523367  1.45148476
  O  0.01148080  0.36496858  1.99652141
  C  1.76255560  0.18639719 -0.34754194
  C  2.80188393  1.09708332 -0.94811965
  O  1.65078143 -1.06399636 -1.02187600
  C  0.84723981 -1.69294571 -0.07833040
  C  0.60090387 -3.09845926 -0.36359667
  N  0.43189821 -4.20408383 -0.57915635
  O  1.56232155 -1.56102891  1.14513762
  C  2.13427085 -0.33130116  1.07677492
  O  2.83879534  0.16392361  1.88630068
  H  0.54634916  2.23870381  1.28065213
  H -2.08861569  2.56742490  0.82438106
  H -3.17208991  0.15844052  1.33867062
  H -1.10012739 -1.39175927  2.04976780
  H  2.85659463  2.01736744 -0.37193603
  H  3.76436083  0.59239351 -0.90065346
  H  2.57938647  1.32032091 -1.98749367
