29
opt_min/./Product_3356_opt.xyz
  C  1.78203900 -1.26736300  0.24579900
  C  0.33122726 -1.70687385  0.42691997
  C -0.46412285 -0.50180214 -0.09545213
  C -1.85621372 -0.42180863  0.52519729
  N -2.46459792  0.76631817  0.32062590
  C -3.81568745  1.03369656  0.74883834
  O -2.36374612 -1.32356516  1.16019928
  C -0.57912123 -0.53574966 -1.62757066
  N  0.32936124  0.67712051  0.29890832
  C  1.74174060  0.25953990  0.40314968
  C  2.45234789  1.01187319 -0.72913306
  C  2.54166759  2.49555995 -0.50210829
  O  2.84715213  0.46842762 -1.72822961
  H  2.45550383 -1.73100218  0.96047922
  H  2.12719653 -1.51277617 -0.75832862
  H  0.09464070 -2.62279616 -0.10570035
  H  0.09604293 -1.85742688  1.48134622
  H -1.99571879  1.45891669 -0.23911482
  H -4.14475908  0.17637701  1.33240785
  H -4.47476081  1.16761062 -0.10855657
  H -3.84601249  1.93417769  1.36623403
  H -1.18541053  0.28725856 -1.99655175
  H  0.41143440 -0.45384263 -2.06089391
  H -1.03841599 -1.46808994 -1.94121183
  H  0.00057053  1.04497827  1.18287472
  H  2.16375300  0.58234453  1.35901011
  H  3.00829897  2.98372898 -1.34982433
  H  1.53467171  2.88448950 -0.37120488
  H  3.10322845  2.69962780  0.40648688
