53
opt_min/./Product_2631_opt.xyz
  C  2.27037000 -2.60993300 -2.57991100
  O  2.07499775 -1.70439433 -1.49930740
  C  1.21502285 -0.73226551 -1.68196715
  O  0.66641907 -0.47773727 -2.72705735
  C  1.03834050  0.19889678 -0.46462085
  C  1.35333540 -0.36640139  0.92730714
  O  0.81066844  0.07346688  1.91481147
  O  2.31261681 -1.26400961  0.93822036
  C  2.63751380 -1.85081406  2.19073563
  C -0.47431557  0.51747209 -0.43463525
  C -1.32448158  1.60104514 -0.31267869
  C -0.98570365  3.05535756 -0.07219806
  C -1.73395726  3.63731284  1.10843389
 Br -1.44233239  4.10362352 -1.69642915
  C  0.50822456  2.86026884  0.03839997
  C  1.81584175  3.60805428  0.12643182
  C  2.74477281  2.35980856  0.13242990
  C  2.28959334  1.16585586 -0.76134345
  N -2.63740181  1.19377470 -0.30078385
  N -2.73576456 -0.04782613 -0.39358990
  C -1.44090853 -0.65582088 -0.44043956
  C -1.22595276 -1.49918756  0.87432212
  N -2.04527056 -1.14817901  1.86412781
  C -1.96617700 -1.77547474  3.16381574
  O -0.36637670 -2.33888093  0.94014982
  C -1.36333153 -1.64551226 -1.61438010
  O -0.69482751 -2.63868739 -1.63142990
  O -2.16394541 -1.23433056 -2.57430706
  C -2.15587002 -1.98758085 -3.78205490
  H  1.51385236 -3.39355231 -2.52107117
  H  3.26693264 -3.02737998 -2.45718415
  H  2.18162086 -2.08472581 -3.53364141
  H  3.03114963 -2.84025868  1.97204546
  H  1.74529549 -1.92385594  2.81355580
  H  3.39092472 -1.24433251  2.70060482
  H -1.52955027  4.70259380  1.19466742
  H -1.40909996  3.14126366  2.02215384
  H -2.80437539  3.48708549  0.98454275
  H  0.65364593  2.36491546 -0.91509778
  H  0.56884363  2.15798755  0.87700632
  H  1.99635341  4.24773459 -0.73682558
  H  1.95963749  4.18219859  1.04055941
  H  3.74097118  2.63154095 -0.22434760
  H  2.84543418  2.00731773  1.16067776
  H  2.20396855  1.51557937 -1.79462414
  H  3.12677667  0.45912938 -0.73741365
  H -2.79888251 -0.50001823  1.68544818
  H -2.49981506 -2.72863991  3.17330646
  H -2.39598008 -1.10888688  3.90668503
  H -0.91940634 -1.95845788  3.40131767
  H -3.07528012 -1.73219920 -4.30249053
  H -2.11471112 -3.05606398 -3.56143593
  H -1.28603818 -1.70192214 -4.37586758
