29
opt_min/./Product_4222_opt.xyz
  O -0.47571486 -3.33998768 -1.58255800
  C -1.24179061 -2.92318049 -0.84357621
  O -1.99678694 -2.49572333 -0.09589015
  C -0.15849421  0.29865504 -0.34513621
  C -1.27289492  0.92067641 -0.00097092
  C -2.63221790  2.78997912 -2.20110458
  O -1.72519724  2.61022548 -2.87155264
  O -3.54983197  2.95995794 -1.53873719
  C -0.95259573  1.88261376  1.13126878
  C -1.89303083  1.82390059  2.24237951
  N -2.63882191  1.80653912  3.10532036
  C -0.96686727  3.24684173  0.58744934
  N -0.90790787  4.29311492  0.13515442
  O  0.36227201  1.53969886  1.54305749
  C  0.98501136  0.75597336  0.51422521
  C  1.96423599  1.61671146 -0.33074283
  N  2.43052285  2.68317543  0.33171169
  C  3.33224841  3.63507268 -0.27178717
  O  2.26297314  1.30982267 -1.46273286
  C  1.76424910 -0.38905615  1.15953747
  H -0.01994088 -0.40369367 -1.14323353
  H -2.27423945  0.79741662 -0.36505346
  H  2.11222496  2.84815102  1.27548839
  H  3.28431923  3.50295110 -1.35175265
  H  3.03131513  4.64815609 -0.01087462
  H  4.35918842  3.46299925  0.05942135
  H  2.46054358  0.01286179  1.89104306
  H  2.31474222 -0.92879105  0.39365843
  H  1.07934487 -1.06931595  1.66210066
