41
opt_min/./Product_919_opt.xyz
  F  1.47957478 -0.40332896  1.59786917
  C  1.16051296 -0.46740578  0.25309944
  C  2.03204716  0.45291196 -0.61485486
  C  3.03180349 -0.55302610 -1.22807949
  C  3.80827785 -1.20833789 -0.10540174
  C  2.95984276 -2.04526439  0.47242856
  C  1.65511018 -1.86877012 -0.28579205
  O  2.11302951 -1.58101736 -1.59157830
  C  1.05450082  0.90000478 -1.73348585
  C  1.20683189  2.29880044 -2.07673597
  N  1.37547460  3.38697363 -2.38218837
  N -0.30498692  0.57488609 -1.32279972
  C -1.07242878 -0.16591602 -2.30698691
  C -0.27242086  0.07854305  0.04554914
  C -0.38346165  1.31417713  0.99683504
  O -0.28264000  2.44690450  0.31141816
  C -0.39303745  3.64965725  1.06195487
  O -0.55786868  1.25107534  2.17979875
  C -1.45641680 -0.77078576  0.44332211
  C -1.33867150 -1.98723375  1.09662580
  C -2.47158319 -2.68764993  1.47962590
  C -3.73015594 -2.17513407  1.22754554
  C -3.85569976 -0.93950030  0.61472769
  C -2.72719461 -0.23875618  0.23564046
  H  2.44533317  1.29174049 -0.05805993
  H  3.60485819 -0.19330443 -2.07844580
  H  4.82140083 -0.97271411  0.14987723
  H  3.08437971 -2.69598608  1.31311648
  H  0.94104242 -2.68337768 -0.31249895
  H  1.30580018  0.31878826 -2.63743112
  H -2.10944228  0.17401796 -2.29683776
  H -1.05786726 -1.24751368 -2.12624650
  H -0.67187797  0.02779201 -3.29954620
  H -0.29045520  4.45753334  0.34158230
  H -1.36237685  3.69396970  1.56313232
  H  0.39342354  3.69769829  1.81763693
  H -0.36913356 -2.37634567  1.36339949
  H -2.36293092 -3.63459788  1.98668355
  H -4.61062661 -2.72347496  1.52946593
  H -4.83382387 -0.51502823  0.44277833
  H -2.82451657  0.73240579 -0.22691087
