55
opt_min/./Product_3147_opt.xyz
  F  2.27535040  1.94549143  0.37426258
  C  1.01588097  1.66647527  0.77759604
 Br  1.12331627  1.27015714  2.73487281
  C  0.37883834  0.49477092  0.05254363
  C -0.89170199  0.40287455 -0.42047315
  C -1.99726096  1.41312084 -0.80694017
 Br -1.40888102  2.10735839 -2.61756264
 Br -3.69925013  0.43975319 -1.22692584
  C -2.55816218  2.65198945  0.00515047
  C -1.84963720  4.03506025  0.14958072
  C -0.53033195  4.05423159  0.96458900
  C -0.02835808  2.70502169  0.51017639
  C -1.10829561 -1.06294440 -0.83210587
  C -1.36631244 -1.18026811 -2.26048244
  N -1.46346282 -1.34025657 -3.38926354
  C -2.16269572 -1.76696864  0.01777596
  C -2.26726829 -1.45145979  1.36695012
  C -3.12579240 -2.16510256  2.18251971
  C -3.87323771 -3.20801073  1.66295126
  C -3.76094133 -3.53320922  0.32227489
  C -2.90701582 -2.81903698 -0.49976500
  N  0.14498842 -1.72915315 -0.48539083
  C  0.48454206 -2.95819585 -1.15140456
  C  1.18796833 -0.75417727 -0.24504500
  C  2.01438154 -0.45877151 -1.51783162
  C  2.04786278 -1.21709366  0.92062136
  C  1.46562579 -2.00948844  1.90567208
  C  2.20262099 -2.43433117  2.99469750
  C  3.53232214 -2.06942914  3.11863654
  C  4.11739318 -1.28156871  2.14409982
  C  3.38312719 -0.85935431  1.04876087
  H -2.83701825  2.27701774  0.99528014
  H -3.49188247  2.90444091 -0.50371613
  H -2.58853753  4.69779139  0.60155586
  H -1.63987455  4.41411941 -0.85159717
  H  0.09112585  4.89877219  0.67631477
  H -0.71457570  4.09002045  2.03752571
  H -0.85512165  2.10561630  0.86623896
  H  0.00532229  2.78540473 -0.57997622
  H -1.67752476 -0.64766625  1.78551710
  H -3.20557895 -1.90475376  3.22734307
  H -4.54161155 -3.76562445  2.30136533
  H -4.33854540 -4.34692221 -0.08933946
  H -2.83933723 -3.06461678 -1.55006710
  H  1.35635838 -3.37928985 -0.65201664
  H -0.34569207 -3.65614240 -1.03992932
  H  0.70391965 -2.84379397 -2.22112056
  H  2.68051147 -1.29159327 -1.72605398
  H  1.33794417 -0.32626439 -2.36218634
  H  2.60322702  0.44697599 -1.41461705
  H  0.42661455 -2.28793732  1.81467300
  H  1.73357122 -3.04596199  3.75072194
  H  4.10810664 -2.39385039  3.97240657
  H  5.15244603 -0.98685645  2.23435105
  H  3.86144935 -0.23738311  0.30879913
