33
opt_min/./Product_549_opt.xyz
  C -0.76659000 -0.74266400 -1.65878600
  C -1.07562375 -0.44035122 -0.19979541
  C -2.17894783 -1.28632419  0.48018678
 Br -3.16347220 -2.53444609 -0.73936286
  C -3.15963810 -0.16237008  0.95662377
  C -3.78861908  0.39303717 -0.30350691
  C -2.84413338  1.13028917 -0.86989384
  C -1.63672427  0.99287395  0.03710872
  O -2.24288422  0.85010747  1.31547025
  N -1.55833984 -1.97119301  1.55574664
  N -0.14093879 -2.05400152  1.21635923
  C  0.12963218 -0.70206341  0.74193064
  C  1.49547337 -0.54099003  0.14809962
  C  2.12127466 -1.59072278 -0.51017137
  C  3.37695163 -1.42002533 -1.06433250
  C  4.02103903 -0.19771023 -0.96683973
  C  3.40855518  0.84603816 -0.29587169
  C  2.15649850  0.67592295  0.26649259
  H -0.32518971 -1.73370432 -1.73620198
  H -1.66129834 -0.69331983 -2.27257178
  H -0.04252269 -0.01418436 -2.02070393
  H -3.79782911 -0.42626576  1.79385303
  H -4.77754580  0.16064145 -0.64339344
  H -2.85358152  1.67026430 -1.79494943
  H -0.89778430  1.78752675  0.02305142
  H -1.91645913 -2.90868131  1.71620981
  H  0.37860228 -2.26485041  2.06665266
  H  0.01990697  0.02216378  1.57518305
  H  1.63303917 -2.55223973 -0.55981818
  H  3.85390530 -2.24470325 -1.57354130
  H  4.99948298 -0.06346838 -1.40222699
  H  3.91247837  1.79757063 -0.20142180
  H  1.68134148  1.49071723  0.79385382
