35
opt_min/./Product_1272_opt.xyz
  C  4.07925400  1.32513700 -0.36937000
  O  2.72100593  1.00393859 -0.63986661
  C  2.17884096  0.08365190  0.18234054
  C  1.94226838 -1.22029919  0.00900241
 Br  2.30975521 -2.32270810 -1.44721107
  C  1.16842440 -1.66805429  1.23038140
  C -0.27859799 -1.09205501  1.07477811
  C -0.00498688  0.41982856  1.29676989
  C  1.54281469  0.39877578  1.53816635
  O  1.69494634 -0.82533711  2.23575105
  N -0.46646949  1.02526482  0.08876281
  C -0.92863567  2.31872577 -0.06956256
  N -1.37358226  2.58547641 -1.31065157
  C -1.92430069  3.87398146 -1.65401453
  O -0.88067107  3.08798362  0.86542295
  O -0.51481149  0.04413603 -0.93017397
  N -0.84030613 -1.14115551 -0.24495722
  C -1.80297275 -1.97128671 -0.74386711
  O -2.39135727 -1.79900713 -1.77189759
  O -1.94455193 -3.02559616  0.08652919
  C -2.85434433 -4.02472847 -0.36476835
  H  4.35256942  2.08017367 -1.10338336
  H  4.71946506  0.44644380 -0.48606653
  H  4.19670594  1.72982704  0.64043011
  H  1.23711989 -2.71799902  1.49859697
  H -0.96164830 -1.54041803  1.79577961
  H -0.52330352  0.85880236  2.15055284
  H  1.93645299  1.24495997  2.09016191
  H -1.37849056  1.84691919 -1.99640166
  H -1.71374276  4.09595678 -2.69795228
  H -1.45989395  4.62455387 -1.01542211
  H -3.00569160  3.89965413 -1.49067130
  H -3.06620698 -4.64840881  0.50024045
  H -3.76718916 -3.56537392 -0.74629707
  H -2.39449354 -4.61754686 -1.15788718
