64
opt_min/./Product_2613_opt.xyz
  C  2.65958821 -0.32452902  3.28150196
  O  2.46940066  0.52126533  2.15119129
  C  2.75267448  0.00974613  0.95689112
  O  3.19259947 -1.10275869  0.80371088
  C  2.52855725  0.95186182 -0.22948919
  C  3.91336642  0.94099707 -0.92318105
  C  1.41208559  0.39813243 -1.11005217
  C  0.07822335  0.31614732 -0.91109764
  C -0.81799540  0.24813602  0.31000279
  C -0.67384738 -1.11299149  1.00439554
  C  0.32010595 -2.03524711  0.72614831
  C  0.41634653 -3.21693227  1.44590004
  C -0.48479028 -3.49754064  2.45389848
  C -1.49667992 -2.59132833  2.72928233
  C -1.59053631 -1.41539072  2.01202242
  C -2.28408106  0.34300902 -0.12269343
  C -3.05533695  1.48407934  0.04144948
  C -4.37773985  1.50329455 -0.36615493
  C -4.95729541  0.38408957 -0.93237126
  C -4.20409728 -0.76568389 -1.08681446
  C -2.88315336 -0.78413461 -0.68395446
  C -0.48980217  1.29300338  1.39349478
  C -0.14240627  2.70001523  0.89908255
  C  1.33719714  3.02008131  1.08099298
  C  2.28486548  2.46240031  0.02438134
  N -0.57814312  0.03941755 -2.13768055
  C -1.57727203  0.80158869 -2.57503236
  N -2.42816464  1.38204594 -3.08159879
  N  0.39606735 -0.17314529 -3.16515305
  C  0.03508848 -1.27703134 -4.02078516
  C  1.71435932 -0.12462007 -2.52171376
  C  2.40557528 -1.50392553 -2.46387994
  C  2.46060006  0.79570165 -3.37134313
  N  2.95647669  1.47437691 -4.14739671
  H  2.50012122 -1.36660341  2.99961179
  H  1.93478083 -0.01794847  4.03270875
  H  3.67350623 -0.20152220  3.66541401
  H  4.22057432 -0.04342952 -1.25560334
  H  4.65708167  1.27786966 -0.20161606
  H  3.92804093  1.62127414 -1.76823841
  H  1.03571737 -1.85376107 -0.05752545
  H  1.20767486 -3.91320946  1.20982028
  H -0.40862382 -4.41725640  3.01467462
  H -2.21670823 -2.80247224  3.50606264
  H -2.39282367 -0.72573007  2.22911668
  H -2.63587767  2.37787901  0.47260978
  H -4.95561061  2.40656241 -0.24067111
  H -5.98782460  0.40659584 -1.25287404
  H -4.64295317 -1.65016936 -1.52394817
  H -2.30259975 -1.68620664 -0.81554123
  H -1.35523274  1.33509350  2.05585572
  H  0.33982298  0.92688881  1.99149767
  H -0.42831625  2.84292990 -0.14382112
  H -0.70066269  3.42382345  1.49753048
  H  1.65142993  2.71909016  2.07926050
  H  1.45715594  4.10533346  1.01815475
  H  3.25968432  2.90174343  0.24933476
  H  1.97177505  2.86773907 -0.94366538
  H -0.11128533 -2.22802908 -3.49233028
  H  0.80441003 -1.39213375 -4.78053056
  H -0.90005383 -1.00887312 -4.51472405
  H  3.15619121 -1.54404288 -1.68130856
  H  1.66458761 -2.26650962 -2.23195967
  H  2.86933250 -1.74119556 -3.41872303
