48
opt_min/./Product_5480_opt.xyz
  C  1.14512400 -1.46835400 -1.29507300
  C  0.13320752 -2.48801242 -1.71434612
  C -1.01654958 -2.68539081 -1.07192750
  N -1.42188506 -1.93565493  0.00160989
  C -2.51321562 -2.32733458  0.84926427
  C -0.66512360 -0.78613337  0.34526927
  C  0.85448409 -0.94759142  0.11592387
  C  1.42320979 -1.83067633  1.23519531
  N  2.71086419 -2.19946582  1.07971381
  O  0.77735387 -2.14570900  2.21076309
  C  1.29391693  0.51202370  0.33666999
  C  2.66560951  0.83310960 -0.23990681
  O  3.51760084  1.08808882  0.76805670
  C  4.86590487  1.40068366  0.43298198
  O  2.97843462  0.84564600 -1.39557803
  N  0.26264608  1.31822684 -0.30045820
  C  0.19441893  2.65865918  0.22459567
  C -0.98280011  0.54955823 -0.40959508
  C -1.29773742  0.33786008 -1.90736327
  C -2.67219662 -0.19512095 -2.21849766
  O -0.50893356  0.63078052 -2.76371477
  C -2.15738511  1.31000510  0.20452781
  O -2.83700375  2.10473732 -0.38865969
  O -2.33036265  1.03821557  1.50142149
  C -3.37017271  1.75499287  2.15451729
  H  2.13742230 -1.92528972 -1.34943766
  H  1.16210470 -0.63011481 -1.99793990
  H  0.36849723 -3.07341870 -2.58729065
  H -1.69793392 -3.46893940 -1.36982239
  H -2.17196908 -2.43103092  1.88347292
  H -2.90223208 -3.28748676  0.51591209
  H -3.32390208 -1.59041177  0.82698920
  H -0.80689329 -0.58912450  1.41445474
  H  3.15634588 -2.73728797  1.80420041
  H  3.27013959 -1.85174614  0.32162678
  H  1.34995883  0.71148854  1.42322045
  H  5.12384451  2.34286367  0.91502228
  H  5.50997979  0.60486088  0.80919933
  H  4.96484869  1.48951746 -0.65041292
  H -0.46662208  3.25472795 -0.40266439
  H  1.19387286  3.09105083  0.17339379
  H -0.14687349  2.70505157  1.27073300
  H -2.59892706 -0.93197348 -3.01480799
  H -3.16509955 -0.62214777 -1.35285420
  H -3.26936158  0.63945004 -2.58626279
  H -3.32344287  1.46653142  3.20137212
  H -4.33672929  1.49085506  1.72144286
  H -3.21821755  2.83032572  2.04187002
