55
opt_min/./Product_5754_opt.xyz
  C -1.32020100 -0.56262500  2.55161200
  C -0.56376888  0.09625732  1.40250621
  C  0.95674269 -0.16494391  1.35611067
  C  1.71404209  0.94394586  2.07892612
  C  1.24924297 -0.23619708 -0.17164943
  C  1.54080944 -1.64508103 -0.70931646
  O  2.13259737 -2.43709992  0.19500474
  C  2.52478999 -3.73584331 -0.23287873
  O  1.33042729 -1.96416435 -1.84834435
  C  2.48258671  0.52526333 -0.63102425
  C  3.74552704  0.13661922 -0.19744418
  C  4.86917726  0.81806807 -0.62957259
  C  4.74396279  1.88195126 -1.50657655
  C  3.48940193  2.26070105 -1.95584538
  C  2.36471834  1.58165518 -1.52226226
  O  0.09828213  0.26750492 -0.80757208
  C -1.03540699 -0.17974543 -0.05581477
  C -2.21623657  0.71655002 -0.37462291
  C -3.50926181  0.30414787 -0.06598081
  C -4.58642939  1.13759837 -0.29803260
  C -4.38855478  2.39459535 -0.84722053
  C -3.10742502  2.80686128 -1.16624391
  C -2.02719730  1.97536659 -0.92581869
  C -1.33885846 -1.61624309 -0.45430128
  C -0.95770329 -2.73040771  0.28421528
  C -1.18697053 -4.01030612 -0.19052415
  C -1.78731892 -4.20334516 -1.42156653
  C -2.15167321 -3.10268117 -2.17678189
  C -1.92716247 -1.82654923 -1.69815586
  H -0.84312916 -1.47944322  2.88844114
  H -2.34184365 -0.79187638  2.26727929
  H -1.36161423  0.10994949  3.40507301
  H -0.68451460  1.18031977  1.51128630
  H  1.21178082 -1.11643285  1.82507487
  H  1.59481224  1.89480943  1.56540966
  H  1.31923537  1.03895196  3.08963792
  H  2.77336547  0.72341764  2.15446679
  H  1.97962248 -4.47558963  0.35004539
  H  3.59518960 -3.84316260 -0.06368012
  H  2.29375814 -3.85613632 -1.29294988
  H  3.84828329 -0.70405167  0.47164513
  H  5.84521141  0.51430882 -0.28383610
  H  5.62249080  2.40949936 -1.84398310
  H  3.38592699  3.07962985 -2.64953853
  H  1.38626947  1.86009744 -1.87559959
  H -3.67678122 -0.68284076  0.33873438
  H -5.58428347  0.80478067 -0.05173214
  H -5.22986101  3.04619878 -1.02834432
  H -2.94694361  3.78111615 -1.60458851
  H -1.02621262  2.29209174 -1.17163021
  H -0.47180476 -2.62110568  1.23756651
  H -0.88726088 -4.86095353  0.40474641
  H -1.95738425 -5.20263017 -1.79364415
  H -2.60807509 -3.23812558 -3.14530417
  H -2.19344126 -0.97423004 -2.30480883
