31
opt_min/./Product_3574_opt.xyz
  C -3.02797600  0.18799651 -0.18652039
  C -1.78233614  1.04046559  0.06000400
  C -0.69974146  0.38358005  0.94559570
  C -1.16470816 -0.54544809  2.05295280
  C  0.28449005 -0.24778054 -0.09861897
  C  1.71772330  0.00828758  0.38214476
  N  2.42397443  0.83782859 -0.40628251
  C  3.78224672  1.21708383 -0.08618254
  O  2.14288271 -0.45126178  1.42115112
  C  0.07570625 -1.74798857 -0.40800224
  C  1.28978740 -2.46655136 -0.90767613
  O -1.00939411 -2.25759747 -0.34074897
  N  0.02952531  0.43284676 -1.34001832
  C -1.01145379  1.16049392 -1.23597618
  C -1.42187555  2.04779726 -2.25575345
  N -1.76355088  2.81479221 -3.03542398
  H -2.75567924 -0.83033170 -0.45510876
  H -3.62693543  0.62307112 -0.98484219
  H -3.63289929  0.15523960  0.71797338
  H -2.08308692  2.02049970  0.44052444
  H -0.12446554  1.19407552  1.41472995
  H -1.68958080  0.02779198  2.81406567
  H -1.81445387 -1.32916356  1.67319604
  H -0.29530117 -1.01873119  2.50564828
  H  2.01324558  1.16420449 -1.27087777
  H  4.44753610  0.35336539 -0.15463531
  H  3.82040573  1.58726775  0.93953825
  H  4.11164512  1.99079776 -0.77497471
  H  2.05294717 -1.78854208 -1.27433619
  H  0.99409733 -3.16122660 -1.69247178
  H  1.70292861 -3.04530625 -0.07948380
