30
opt_min/./Product_518_opt.xyz
  C -3.34853527  0.82284636 -1.03437045
  O -2.07100609  0.23274812 -1.27587871
  C -1.65231374 -0.68994008 -0.38234375
  F -2.61192590 -1.66798181 -0.20807380
  C -0.35917335 -1.39457734 -0.92032314
  F -0.04866816 -1.00344023 -2.16746157
  F -0.56477462 -2.72460352 -0.99109374
  C  0.75566961 -1.05758942  0.09893708
  C  1.45680346  0.25413437 -0.36036168
  O  2.76564526  0.13662070 -0.32206532
  C  3.54960216  1.26519639 -0.70919204
  O  0.82715909  1.23041829 -0.65825987
  C  1.71941433 -2.13711488  0.22659107
  N  2.48377053 -2.97690007  0.32503716
  N  0.01279357 -0.87274605  1.33618820
  C  0.76823400 -0.39556068  2.47781799
  C -1.23315133 -0.17062700  1.04645089
  C -2.24189611 -0.50255025  2.05009141
  N -3.04405068 -0.70598335  2.83429766
  C -1.12306182  1.29040706  1.10465986
  N -1.06308173  2.41590556  1.29061119
  H -3.50556920  1.49032212 -1.87658247
  H -4.12662135  0.05733333 -1.00699250
  H -3.35292762  1.39300273 -0.10201212
  H  2.92319709  2.00398280 -1.21066507
  H  3.99852885  1.70001029  0.18414308
  H  4.32751053  0.90120717 -1.37730933
  H  0.13079070 -0.45995914  3.35892553
  H  1.62352149 -1.05537116  2.61541899
  H  1.11874339  0.63804340  2.36483367
