27
opt_min/./Product_184_opt.xyz
  N -5.29166298  1.25955007 -0.22877110
  C -4.31840204  0.67772229 -0.05485881
  C -3.12547816 -0.00588005  0.18809247
  C -2.60368971 -1.10030625 -0.40622584
  C -3.12687285 -1.90547645 -1.42055759
  N -3.55234817 -2.58462452 -2.24142117
  C -1.23789939 -1.28397551  0.25550786
  C -0.35563043 -0.18090751 -0.39237056
  C -0.95965313  1.08861728  0.26235495
  C -2.05296670  0.43802942  1.17584921
  O -1.46939876 -0.78688046  1.55078270
  O  0.07065162  1.71644057  0.97048592
  N  0.98680383  0.67128847  1.33029635
  C  1.09681383 -0.14842796  0.11967689
  C  2.03872890  0.46138569 -0.96810779
  C  3.39464421  0.85355920 -0.46612643
  O  1.66292011  0.60235671 -2.09921264
  C  1.62366729 -1.45823986  0.43243239
  N  2.05517113 -2.49663353  0.62750957
  H -0.82265178 -2.28747758  0.26899031
  H -0.38029946 -0.19669162 -1.48163889
  H -1.37183386  1.83041075 -0.42323587
  H -2.35649771  1.03112410  2.03195586
  H  1.84681724  1.14412568  1.59715327
  H  3.35789528  1.88633432 -0.11552125
  H  3.72694458  0.21091990  0.34646382
  H  4.10451435  0.81848706 -1.28947374
