31
opt_min/./Product_92_opt.xyz
  C -2.90590300  1.77117500  0.53177600
  O -1.60824172  1.88846374 -0.02278091
  C -0.72838521  0.88908500  0.05147047
  C  0.61987089  1.02013061 -0.16876730
  C  1.35617442  2.25896894 -0.48449094
  C  0.51236869  3.51026390 -0.57647259
  O  2.54840075  2.29729198 -0.66882122
  C  1.16195118 -0.33177165  0.00820398
  C  2.58837018 -0.79442660 -0.05019489
  O  2.62734787 -2.12332317  0.12598601
  C  3.91830782 -2.71398197  0.06377691
  O  3.56352485 -0.13209522 -0.26368132
  N  0.26493398 -1.20715913  0.27949676
  C -1.03298173 -0.58412819  0.29716798
  C -1.68935346 -0.91638831  1.64460779
  C -1.83111263 -1.18621932 -0.87029734
  H -3.36993117  2.74493958  0.37345493
  H -3.50918991  1.00844050  0.04002946
  H -2.85915172  1.56489366  1.60267282
  H -0.01311753  3.69110974  0.35797159
  H  1.16639945  4.35067767 -0.79725208
  H -0.23125019  3.40508507 -1.36233574
  H  4.62659310 -2.16064205  0.68380936
  H  4.28449074 -2.71432596 -0.96537588
  H  3.80683738 -3.73314110  0.42707218
  H -2.77354175 -0.86810090  1.58408177
  H -1.39879840 -1.92947357  1.91039412
  H -1.33322284 -0.24611206  2.42257015
  H -1.32585310 -0.97283920 -1.80915690
  H -2.84304764 -0.79695054 -0.90980400
  H -1.86675538 -2.26376277 -0.73479573
