52
opt_min/./Product_1967_opt.xyz
  C  0.00071198 -4.06026595  1.54098678
  O -0.10438748 -2.82239301  0.84574368
  C  0.99872744 -2.08328344  0.75212505
  O  2.05322221 -2.41069821  1.23078501
  C  0.80646119 -0.83761069 -0.09767983
  C -0.65564914 -0.34178012 -0.30942955
  C -1.73248317 -0.91765065  0.61859961
  C -1.54757110 -0.70988800  2.10346852
  O -2.71121203 -1.45672927  0.17396635
  C -0.87812620 -0.62658959 -1.81215758
  C -0.85923426 -2.14072039 -2.07714085
  C  0.63675276 -2.50201706 -1.99401433
  C  1.27171752 -1.18105737 -1.54599711
  C  0.47047445 -0.19809710 -2.39922449
  C -0.56585069  1.19421742 -0.09256743
  C -1.59114695  1.81971581  0.85885586
  O -2.82594655  1.56277845  0.41875033
  C -3.89359370  2.14450075  1.15992264
  O -1.33230328  2.51465607  1.79842146
  O  0.74082925  1.52687567  0.29037848
  C  1.55296350  0.38711851  0.52423619
  C  1.69662478  0.21916520  1.97104141
  N  1.80735544  0.19274402  3.10795020
  C  2.96203571  0.66723568  0.00514392
  C  3.27048226  1.92055214 -0.50489062
  C  4.54886011  2.19038733 -0.95993278
  C  5.53103664  1.21728636 -0.89907176
  C  5.23027012 -0.02623034 -0.37065421
  C  3.95343034 -0.30291717  0.08529467
  H -0.77073803 -4.70943836  1.13283141
  H  0.99339249 -4.48991768  1.39606341
  H -0.16505413 -3.90413724  2.60843846
  H -2.51351146 -0.46386061  2.54182415
  H -1.22565711 -1.64125292  2.56327415
  H -0.81776164  0.05323273  2.35393963
  H -1.76873622 -0.13265276 -2.19562622
  H -1.46009668 -2.68201432 -1.35244578
  H -1.26119751 -2.34582977 -3.06940656
  H  0.84043921 -3.33526729 -1.32529983
  H  1.03244013 -2.77035123 -2.97367662
  H  2.35351395 -1.15267562 -1.65498877
  H  0.74535326  0.83976241 -2.22783646
  H  0.55197076 -0.41573158 -3.46250072
  H -0.77349281  1.71105724 -1.04493620
  H -3.99777552  1.64784522  2.12607016
  H -3.70195143  3.20593723  1.32657034
  H -4.78917681  1.99900335  0.56208902
  H  2.50721477  2.68118196 -0.53979430
  H  4.77692700  3.16798955 -1.35723450
  H  6.52888068  1.42992887 -1.25296982
  H  5.99302884 -0.78740245 -0.30516432
  H  3.73375196 -1.26750040  0.51527068
