46
opt_min/./Product_1004_opt.xyz
  C -2.61575300  0.04696100 -1.98148400
  C -2.69709803  0.59404523 -0.57948704
  O -3.75301776  0.88274622 -0.07055786
  C -1.38645483  0.80800510  0.14798773
  C -0.54355294 -0.47171421  0.45250405
  C -1.23856888 -1.79789183  0.15883098
  C -0.35861672 -0.27591230  1.99943230
  C -1.70878071 -0.58088565  2.62189042
  C -2.46091946  0.47737260  2.35936850
  C -1.55777952  1.40719588  1.58106735
  O -0.28271226  1.13264120  2.13690162
  C  0.76427398 -0.26805974 -0.40969186
  C  1.23273926 -1.49995004 -1.19888657
  C  1.73604152 -1.22805767 -2.58916802
  O  1.28590765 -2.59625582 -0.69949812
  C  2.02128028  0.05520317  0.40063251
  C  2.55731306 -0.88263173  1.27832488
  C  3.69797081 -0.59107411  2.00240663
  C  4.32991746  0.63083326  1.84557026
  C  3.83102978  1.54515411  0.93571898
  C  2.69022725  1.25580922  0.20760656
  O  0.44978561  0.77938210 -1.31532688
  C -0.39620172  1.69333494 -0.64504533
  C -0.98690521  2.68837962 -1.64384447
  H -3.20576899  0.68134052 -2.64104231
  H -3.07799463 -0.93861196 -1.99853300
  H -1.59479356 -0.01899891 -2.34022518
  H -2.25644416 -1.78074086  0.54197408
  H -1.26396077 -2.00737205 -0.90662009
  H -0.69865156 -2.60926878  0.64128342
  H  0.50392411 -0.76106604  2.44020122
  H -1.94694645 -1.49234509  3.13229563
  H -3.48884994  0.67408525  2.58338368
  H -1.79296368  2.46747632  1.60250802
  H  2.82464430 -1.24574266 -2.55812615
  H  1.40270749 -0.26501668 -2.95683607
  H  1.41219204 -2.02934125 -3.24991801
  H  2.09782317 -1.85665321  1.36388127
  H  4.10001547 -1.32447403  2.68562857
  H  5.21771321  0.86187238  2.41518569
  H  4.33436358  2.48888866  0.78536502
  H  2.33105600  1.96364165 -0.52284978
  H  0.19598794  2.23390034  0.10918930
  H -2.06339175  2.77431092 -1.53189772
  H -0.76086706  2.35866581 -2.65428977
  H -0.55174657  3.67354127 -1.50154752
