63
opt_min/./Product_2954_opt.xyz
  C  4.44030600 -1.93545300 -1.87978000
  O  3.69094895 -1.45275865 -0.76759993
  C  2.84127867 -0.45775130 -0.98102754
  O  2.66792356  0.06942371 -2.04856060
  C  2.08673125  0.01553834  0.27489371
  C  2.25747155 -0.76359278  1.59104017
  O  1.48057379 -0.62134524  2.50416006
  O  3.36395643 -1.49027392  1.67557371
  C  3.60100096 -2.13233520  2.92392222
  C  0.62880937 -0.24058188 -0.09538758
  C -0.48777948  0.41410902 -0.43745624
  C -0.63667158  1.89450630 -0.62236074
 Br -2.04128896  2.33937774 -1.97409407
  C -1.11599267  2.65237205  0.63348172
  C -1.30459048  1.86655381  1.90071473
  O -1.35228031  3.82962229  0.56964153
  C  0.63588062  2.54993971 -1.22109291
  C  1.50014333  3.33970725 -0.24957440
  C  1.94818284  2.59266658  0.99331346
  C  2.78020679  1.35804185  0.68032938
  C -1.62474600 -0.59344537 -0.70755129
  C -2.00923751 -0.54793115 -2.21242003
  C -3.45181232 -0.76988489 -2.58560567
  O -1.13105845 -0.50019881 -3.03664743
  C -2.81424366 -0.53864730  0.25592688
  C -3.04787459 -1.62810381  1.09425515
  C -4.12722359 -1.65809289  1.95713184
  C -5.01747136 -0.60024163  2.00498339
  C -4.80032726  0.48979236  1.18421056
  C -3.71393166  0.52086940  0.32434305
  N -0.98327358 -1.90377075 -0.52617402
  C -1.21148640 -2.96623809 -1.47408201
  C  0.38770555 -1.73009471 -0.13562198
  H  4.31249979 -3.01643143 -1.92277444
  H  4.08325686 -1.47079340 -2.80053070
  H  5.49107541 -1.69263611 -1.71958347
  H  3.48129774 -1.42204049  3.74461114
  H  4.61956614 -2.50867360  2.88080541
  H  2.89671078 -2.95446819  3.06504483
  H -0.68398909  0.97665399  1.95619389
  H -2.34912288  1.55850249  1.95101087
  H -1.11504319  2.51947585  2.75146794
  H  1.21465111  1.77671470 -1.72810075
  H  0.33383214  3.27275076 -1.97984041
  H  0.96975016  4.24585156  0.05321873
  H  2.39108033  3.65451568 -0.79995611
  H  1.11490144  2.32687179  1.63952072
  H  2.59217964  3.27330999  1.55859928
  H  3.51294769  1.61899339 -0.08848162
  H  3.35444855  1.13167982  1.58421019
  H -3.88985281  0.18439069 -2.87148115
  H -3.48962527 -1.41930034 -3.45829902
  H -4.03210970 -1.18982379 -1.77038300
  H -2.36210324 -2.45817884  1.07978103
  H -4.27775111 -2.51721981  2.59444632
  H -5.86724819 -0.62770583  2.67080698
  H -5.47769315  1.33087092  1.19980798
  H -3.60878284  1.38925306 -0.29940321
  H -0.65633989 -2.84345189 -2.41471233
  H -2.27367575 -3.03844927 -1.69758245
  H -0.89706031 -3.90052191 -1.00377449
  H  1.08372963 -2.21853899 -0.83344994
  H  0.53540732 -2.18959007  0.85293080
