29
opt_min/./Product_3441_opt.xyz
  C  1.04138800 -1.33736600 -1.73753400
  C -0.41810076 -0.91369903 -1.92293461
  C -0.49100407  0.47664908 -1.23416830
  C -1.69803947  0.61715832 -0.34323175
  C -1.73912635 -0.06343376  0.86732444
  C -2.85011970  0.02667345  1.68527989
  C -3.93742025  0.79231866  1.29643039
  C -3.90613790  1.46821276  0.08949196
  C -2.78979006  1.38272092 -0.72526046
  N  0.73015043  0.61229921 -0.46626435
  C  1.52404676 -0.34240892 -0.72218764
  C  2.85736376 -0.45076217 -0.06450197
  N  3.10425644  0.56196591  0.78818117
  C  4.31587899  0.66911950  1.55505394
  O  3.63591353 -1.35762887 -0.29727055
  H  1.63105162 -1.22313067 -2.65157509
  H  1.16686775 -2.36367373 -1.39162086
  H -1.08973539 -1.60531050 -1.40924656
  H -0.71334542 -0.86314072 -2.96946984
  H -0.48822228  1.28936448 -1.97164447
  H -0.88921366 -0.65996017  1.16518915
  H -2.86898545 -0.50213289  2.62647925
  H -4.80409435  0.85970220  1.93494927
  H -4.75024714  2.06464326 -0.21925140
  H -2.76667339  1.91469871 -1.66499251
  H  2.37305846  1.25013368  0.90042361
  H  4.76631291  1.65379650  1.42089666
  H  5.00115329 -0.09979604  1.19839719
  H  4.12336652  0.50749491  2.61946769
