57
opt_min/./Product_2099_opt.xyz
  C  4.48564000  3.07417300  0.89310600
  O  3.63937463  1.93129584  0.80269598
  C  3.05707314  1.68485916 -0.37523719
  O  3.19712432  2.36494525 -1.35233343
  C  2.20980506  0.40068203 -0.36152085
  F  2.32621679 -0.03867706 -1.67289130
  C  0.74414806  0.64639730 -0.09219221
  C -0.27371281 -0.24806476 -0.17703324
  C -0.36567436 -1.66875718 -0.70422751
  C -1.67373733 -2.32203909 -0.21647092
  C -0.43199295 -1.61354705 -2.24138270
  C  0.72311246 -2.68718891 -0.26475931
  C  2.13307843 -2.65550169 -0.86576572
  C  3.19773036 -1.95374030 -0.02172765
  C  2.75448824 -0.64914499  0.62832539
  C -1.55256836  0.53831085  0.17633886
  C -2.40398961  0.69876880 -1.09414168
  O -3.39172645  0.07477590 -1.39472181
  O -1.86496588  1.64138282 -1.85851554
  C -2.48983163  1.91365926 -3.10424095
  C -2.27351231  0.02552947  1.41666852
  C -1.48787687 -0.19741920  2.54491408
  C -2.05796930 -0.60066474  3.73634861
  C -3.42842770 -0.78148377  3.82078986
  C -4.21683133 -0.54505748  2.71000208
  C -3.64705591 -0.13612937  1.51490752
  O -1.08629157  1.84754805  0.50827591
  N  0.32086885  1.87892527  0.31869033
  C  0.91382433  3.07808669  0.81276095
  H  4.16878649  3.65814872  1.75603904
  H  5.51174698  2.73379777  1.03137656
  H  4.41159120  3.66827461 -0.01876003
  H -1.74607037 -3.33074026 -0.61657085
  H -2.55048504 -1.78049488 -0.55008128
  H -1.69587278 -2.38837977  0.86764900
  H -1.34199355 -1.11010786 -2.55680137
  H -0.44651750 -2.62187871 -2.65009398
  H  0.41520471 -1.07676468 -2.65609198
  H  0.30728255 -3.64851830 -0.57547539
  H  0.77640336 -2.71323063  0.82463448
  H  2.46807996 -3.69032487 -0.96692182
  H  2.09601496 -2.24324311 -1.86877745
  H  3.49160805 -2.62010030  0.79247839
  H  4.08103292 -1.77723142 -0.63778199
  H  1.97927636 -0.86364557  1.36205482
  H  3.60433426 -0.22531580  1.16142526
  H -2.31468329  2.96445939 -3.32115098
  H -2.03995399  1.29214065 -3.88114199
  H -3.55878580  1.70209928 -3.04549032
  H -0.41801311 -0.05704849  2.48411683
  H -1.43119752 -0.77361952  4.59904944
  H -3.87800767 -1.10109979  4.74930441
  H -5.28698009 -0.67665466  2.76958817
  H -4.27763109  0.03969019  0.65979620
  H  1.45305284  3.61693794  0.03015271
  H  0.08458787  3.70041233  1.14633408
  H  1.57258740  2.89213886  1.66731609
