38
opt_min/./Product_3931_opt.xyz
  C -0.25523600  1.05483500  1.01335600
  C -0.79500553  0.39150052 -0.27293501
  C -1.12527129  1.40951132 -1.38415582
  C  0.19971489 -0.69488065 -0.79602058
  C  1.64228716 -0.50739442 -0.42565143
  C  2.45597145  0.30409283 -1.09524360
  C  3.86028740  0.55564884 -0.80935485
  C  4.57781294 -0.29238369  0.19804041
  C  4.48929057  1.55038828 -1.43644509
  N -0.34562841 -1.88808188 -0.16656137
  C  0.26087888 -3.04862320 -0.22682931
  N  0.83505254 -4.04153049 -0.27255787
  N -1.74847223 -1.81171890 -0.16263867
  C -2.36143950 -2.28543873 -1.40240668
  N -1.97252772 -0.42771264  0.05018343
  C -3.17069716 -0.08928612  0.59944462
  C -3.45898267  1.37951880  0.83475238
  O -3.99991118 -0.93936211  0.84496194
  H -0.96312395  0.93448960  1.82885311
  H -0.06459780  2.11565885  0.86412073
  H  0.68393992  0.59815956  1.31833827
  H -0.70990559  2.38920507 -1.15639888
  H -0.72371292  1.09338651 -2.34510009
  H -2.20173229  1.51688093 -1.49625548
  H  0.13431778 -0.75369260 -1.89730581
  H  1.97411485 -1.09525726  0.41701452
  H  2.05899968  0.87731066 -1.92624032
  H  4.54390676  0.17844685  1.18274814
  H  4.13069486 -1.27998138  0.27912145
  H  5.62256991 -0.40981841 -0.08369891
  H  5.52564664  1.77101293 -1.24962447
  H  3.99228368  2.18201722 -2.15395257
  H -2.24483368 -3.36959007 -1.42854921
  H -3.42064353 -2.04816953 -1.35478127
  H -1.91623090 -1.84777358 -2.30592498
  H -3.91858206  1.46402420  1.81879082
  H -2.59020144  2.02000355  0.77570054
  H -4.20088177  1.69603610  0.10124144
