34
opt_min/./Product_4203_opt.xyz
  C -2.69269703 -1.46017089  0.49415115
  C -1.84773863 -0.21316112  0.25164090
  C -2.59708549  1.02594982  0.73655752
  C -0.41757540 -0.35628752  0.85289948
  C -0.01861591  0.77558626  1.77047897
  O  0.25829864  0.63421459  2.92497950
  C  0.48472712 -0.27912749 -0.41787932
  C  1.93486261 -0.00822654 -0.15863896
  C  2.46611136  1.25260493 -0.39821488
  C  3.80124120  1.50269135 -0.13519954
  C  4.60911233  0.49889528  0.36997017
  C  4.07868555 -0.75708264  0.61249820
  C  2.74416275 -1.01382786  0.35445887
  N -0.26117525  0.71460406 -1.18924753
  C -1.47098345 -0.06309091 -1.26509341
  C -2.50639328  0.49264483 -2.10648074
  N -3.32344203  0.95650606 -2.75440860
  O -1.06202570 -1.37146980 -1.73332897
  C  0.14229414 -1.58506054 -1.17389756
  O  0.75850949 -2.60122393 -1.25517081
  H -2.14287062 -2.37312721  0.27829374
  H -3.57847478 -1.44251099 -0.13774666
  H -3.00659262 -1.48712061  1.53495573
  H -3.64972654  0.95057813  0.47528331
  H -2.51761904  1.11227754  1.81754591
  H -2.19930948  1.93166136  0.28520899
  H -0.29370930 -1.29456013  1.39718991
  H  0.02108244  1.75922621  1.27097287
  H  1.83324819  2.03627781 -0.78825364
  H  4.20839985  2.48512264 -0.32211404
  H  5.65014801  0.69789818  0.57553110
  H  4.70382870 -1.54320736  1.00742742
  H  2.33755534 -1.99509212  0.53848686
  H  0.15111833  0.89149979 -2.10312878
