33
opt_min/./Product_86_opt.xyz
  C -2.29800000  2.37089600  0.44897200
  O -1.41050092  1.36344186  0.88976570
  C -0.72468396  0.69343312 -0.11385157
  C  0.30377745 -0.33334440  0.45478381
  C  0.37070244 -0.43533451  1.97467017
  C -0.06885165 -1.63205163 -0.28992510
  C -1.39914524 -2.17121599  0.24556386
  C -2.41574762 -1.09649263 -0.20536684
  C -1.57241060 -0.16084943 -1.08197597
  C -0.51038293 -1.09933159 -1.65896143
  C  1.57915586  0.27882768 -0.08477538
  C  2.92916680 -0.27711863  0.10963905
  C  4.05678967  0.52585258 -0.48033269
  O  3.10005601 -1.32105012  0.70036980
  N  1.38513706  1.34533976 -0.76316823
  O  0.07738462  1.64818623 -0.85660197
  H -1.78143646  3.11340801 -0.16368306
  H -3.13135144  1.95370396 -0.12163851
  H -2.67967636  2.84369066  1.34897750
  H  1.04453293 -1.24343930  2.24593975
  H -0.61260152 -0.61642487  2.38840771
  H  0.75015012  0.49214139  2.39075183
  H  0.73706230 -2.36449102 -0.29110037
  H -1.60437411 -3.12571946 -0.23559853
  H -1.39675906 -2.32197953  1.31871306
  H -3.24058873 -1.52845058 -0.76595616
  H -2.83097323 -0.55894940  0.64589637
  H -2.12084106  0.43041200 -1.81444377
  H  0.26976681 -0.57697811 -2.20697952
  H -0.94724225 -1.87211125 -2.28403864
  H  4.80755720  0.69329288  0.28637734
  H  4.52195507 -0.05573234 -1.27164742
  H  3.70774256  1.46818567 -0.88260163
