47
opt_min/./Product_5450_opt.xyz
  C  0.57504844 -1.13921220 -1.64114482
  C  0.38642150 -2.62481483 -1.63081832
  C -0.10543936 -3.21369916 -0.53976138
  N -0.39033622 -2.54831830  0.61882846
  C -1.09915921 -3.18648995  1.69291094
  C  0.08495542 -1.21805558  0.85642512
  C  1.03466036 -0.68570178 -0.24230252
  C  2.42196643 -1.31167017  0.01554180
  N  3.38668231 -1.02153790 -0.87798048
  O  2.62554569 -2.06160334  0.94246705
  C  0.89129093  0.85762879 -0.04742011
  C  2.10647577  1.76085550  0.25681603
  O  3.11847370  1.54484808 -0.58149733
  C  4.24244723  2.41349693 -0.45492174
  O  2.08181812  2.62034493  1.08477846
  C  0.33906413  1.52346955 -1.23029985
  N -0.10977117  2.13888151 -2.08389037
  O -0.00710272  1.05933368  1.02368775
  C -0.91099514 -0.05089768  1.10496519
  C -1.47722754 -0.01453662  2.53117498
  C -2.05257998  0.14851981  0.12166274
  C -2.58093423  1.43432092  0.03272769
  C -3.62079111  1.71528775 -0.83101051
  C -4.15730172  0.71063562 -1.61879341
  C -3.64887636 -0.57133688 -1.52654424
  C -2.60323747 -0.85495564 -0.66231544
  H  1.29359498 -0.83770677 -2.40570515
  H -0.37522813 -0.64656064 -1.88173334
  H  0.63908494 -3.19206483 -2.50782586
  H -0.28868219 -4.27759236 -0.50796373
  H -2.06745546 -2.70728525  1.86643963
  H -1.26945623 -4.23192348  1.44411365
  H -0.51646746 -3.14200179  2.61835560
  H  0.68960064 -1.25601161  1.78136624
  H  4.25392232 -1.52751094 -0.80146805
  H  3.21945212 -0.47802460 -1.70482325
  H  4.07057519  3.31976508 -1.03792461
  H  5.09924571  1.86848454 -0.84312345
  H  4.39404395  2.68108852  0.59150260
  H -1.47506111  1.01958585  2.86515945
  H -0.86585475 -0.59592125  3.21579094
  H -2.49801378 -0.38639098  2.55334365
  H -2.15098317  2.21938942  0.63617100
  H -4.00964549  2.72058452 -0.89151579
  H -4.96701232  0.92660274 -2.29989776
  H -4.06072615 -1.36332958 -2.13467378
  H -2.23445594 -1.86487949 -0.61036538
