34
opt_min/./Product_5060_opt.xyz
  O  1.20490400 -3.23231500  1.04733700
  C  2.18345472 -2.64224905  0.99862348
  O  3.16679811 -2.06452109  0.92686756
  C  0.84803119 -0.56446374 -1.03599775
  C -0.46010721 -0.57457481 -1.26251068
  C -1.08703916 -3.64425427 -0.67793142
  O -0.28875793 -3.96792349 -1.43394167
  O -1.90685627 -3.32419373  0.04873073
  C -1.05549545  0.39955285 -0.26529202
  C -2.39397394  1.02737145 -0.43858477
  C -2.74355461  2.06682309  0.41682046
  C -3.98182082  2.67052445  0.30626526
  C -4.88269600  2.23545044 -0.65120412
  C -4.53907904  1.19838005 -1.50007586
  C -3.29777767  0.59405414 -1.39766620
  C -0.83330049 -0.37886225  1.09500781
  O -1.65019454 -0.86419468  1.80452520
  O  0.48798133 -0.33834398  1.28798283
  C  1.00948706  0.40181466  0.13212512
  C  2.37705845  1.00801279  0.44522778
  O  2.96500605  1.36329535 -0.68815508
  C  4.24838850  1.97468269 -0.55879201
  O  2.82789573  1.14455063  1.54248987
  O  0.01962676  1.34085964 -0.09679114
  H  1.65360668 -1.13635284 -1.44643068
  H -1.01998625 -1.18813573 -1.93703200
  H -2.03453953  2.39969596  1.15887442
  H -4.24618962  3.47804573  0.97209659
  H -5.85235499  2.70323845 -0.73474500
  H -5.23910203  0.85548298 -2.24704823
  H -3.04502407 -0.21350953 -2.06691437
  H  4.20163718  2.80538496  0.14666307
  H  4.97343614  1.24305010 -0.19819346
  H  4.51520967  2.32395367 -1.55249449
