49
opt_min/./Product_3025_opt.xyz
  C -0.36149100 -3.50575100 -0.91720500
  O  0.02601883 -2.17856565 -0.62575483
  C -0.08334043 -1.71096636  0.64190488
 Br  1.33933883 -2.81949226  1.75190615
  C  0.28510014 -0.25730991  0.65983359
  C -0.29375418  0.75971717 -0.02834079
  C -1.44072335  0.83197325 -0.97161171
 Br -1.52753958 -0.61570333 -2.33394846
 Br -1.25483030  2.40037644 -2.17863142
  C -2.76700192  0.94369801 -0.22574285
  C -2.86372453  0.08046432  1.03554684
  C -2.67067903 -1.43046139  0.82761112
  C -1.37549975 -2.00390171  1.41728155
  C  0.35881940  1.98651627  0.45922912
  C -0.13534868  3.38277349  0.27788429
  O  0.80177487  4.19470687 -0.16605831
  C  0.47340588  5.57239020 -0.30692207
  O -1.25715208  3.69409141  0.60210286
  N  1.29293527  1.76114132  1.29396275
  C  1.39242176  0.34170364  1.51222463
  C  1.21812747  0.13338814  3.03101333
  C  2.78018855 -0.05929991  1.02210318
  C  3.88800147  0.22643424  1.80824575
  C  5.15803504 -0.09635572  1.36535917
  C  5.33663549 -0.69641980  0.13121840
  C  4.23674947 -0.95955738 -0.66501310
  C  2.96430647 -0.63414980 -0.22913474
  H -0.21489537 -3.61706437 -1.98916380
  H -1.40786289 -3.69686062 -0.67522501
  H  0.27857058 -4.21179718 -0.37829304
  H -2.87844332  1.98732223  0.08572130
  H -3.58727030  0.70469823 -0.90676286
  H -2.15275581  0.45048579  1.77744556
  H -3.86090312  0.25666100  1.44618662
  H -2.73980103 -1.68256428 -0.22947555
  H -3.48865045 -1.95348694  1.32848529
  H -1.47877657 -3.08749964  1.49456491
  H -1.24771569 -1.62384184  2.43285659
  H -0.58961697  5.72521204 -0.11321810
  H  0.71977386  5.86803313 -1.32605034
  H  1.07144417  6.14246865  0.40401814
  H  1.87664968 -0.64372482  3.40363781
  H  0.18978432 -0.12392337  3.27128247
  H  1.45609266  1.07038805  3.52835736
  H  3.76311480  0.70692682  2.76480746
  H  6.01106071  0.12486801  1.98949689
  H  6.32831936 -0.95315428 -0.21050877
  H  4.36335778 -1.42045511 -1.63320004
  H  2.11993732 -0.84968417 -0.86726602
