47
opt_min/./Product_5778_opt.xyz
  C -0.89297600 -1.23278600 -0.89191200
  O -0.82393420 -2.43487071 -1.03929950
  C -0.04002773 -0.58197595  0.22103432
  O -0.05989137 -1.30575176  1.39992743
  C -1.33454634 -1.48239144  1.99160614
  C -0.24979450  0.96502508  0.40229688
  O -0.17579434  1.21801803  1.77114220
  C  0.12916357  2.52059410  2.21925272
  C -1.55071205  1.49204582 -0.18811039
  O -2.23550705  2.28819004  0.40451419
  C -1.94217071  0.91728058 -1.49159421
  C -2.70276033  1.83004203 -2.38584590
  C -1.66381203 -0.36934442 -1.79534635
  C -2.12001204 -1.00344315 -3.07087109
  C  1.02387956  1.46052543 -0.39532227
  C  1.33320190  2.94135310 -0.40543998
  O  0.49626438  3.76377324 -0.66314291
  O  2.60706440  3.18242110 -0.16507454
  C  3.00617473  4.54936036 -0.20454930
  C  0.90670458  0.91445705 -1.84587073
  O  0.60001421  1.48179639 -2.84459217
  O  1.29311823 -0.36450422 -1.75603692
  C  1.45445268 -0.58849161 -0.32735689
  C  2.27790091 -1.84288756  0.01465501
  N  2.07172241 -2.85274668 -0.84204704
  C  2.65697111 -4.15375596 -0.61832198
  O  3.02995540 -1.85854472  0.95412335
  O  2.01556533  0.59080436  0.10877732
  H -1.14505420 -2.03144331  2.91052548
  H -1.99742562 -2.06701222  1.34534041
  H -1.79988841 -0.52242552  2.22761792
  H  1.19087707  2.74823339  2.07361048
  H -0.08055392  2.49841551  3.28790044
  H -0.49425936  3.27938990  1.74271981
  H -3.48604648  1.30884177 -2.92849399
  H -3.12727827  2.64052801 -1.79711313
  H -2.00761512  2.26360579 -3.10647954
  H -1.84651147 -2.05527360 -3.07505534
  H -1.64921326 -0.50307003 -3.91544293
  H -3.19961735 -0.91748459 -3.17969504
  H  2.64950701  5.06942991  0.68640636
  H  4.09237149  4.54446956 -0.23408887
  H  2.59455345  5.03729357 -1.08976945
  H  1.32698600 -2.78577943 -1.51862967
  H  1.92705646 -4.83691283 -0.17958043
  H  3.01290403 -4.56010815 -1.56367439
  H  3.48912625 -4.03152785  0.07173783
