41
opt_min/./Product_2593_opt.xyz
  C -1.59091377 -3.59819496 -2.18752059
  N -1.25607006 -2.85074816 -0.99392699
  C -0.22620248 -1.99942125 -1.01663813
  O  0.38128331 -1.74675579 -2.03770253
  C  0.04342591 -1.21250217  0.28773017
  C -0.56912395 -1.89744341  1.54662611
  O -0.77186251 -3.09655166  1.57392988
  N -0.85282333 -1.08923856  2.57289995
  C -1.36163187 -1.63819373  3.80937884
  C  1.51842677 -0.84967758  0.58757902
 Br  2.83032454 -1.28198848 -0.80489020
 Br  2.23313492 -1.99321072  2.18902863
  N  1.51067070  0.48839087  0.92333432
  C  2.51065769  1.33062903  1.51521258
  N  3.62231074  1.40395721  0.77779785
  C  4.76823865  2.16418692  1.21710019
  O  2.28827384  1.87972454  2.56109178
  O  0.18691670  0.98484443  1.05683874
  C -0.52965580  0.23748043  0.09010860
  C -1.95068673  0.28213331  0.31963781
  N -3.09006604  0.26154565  0.41836091
  C -0.16723107  0.78246263 -1.34160909
  O  0.89590421  1.32727725 -1.50974803
  N -1.11694143  0.62178819 -2.26798462
  C -0.86221625  0.91927798 -3.66029356
  H -2.00202720 -2.93351780 -2.94913209
  H -2.31715045 -4.36291542 -1.93240174
  H -0.69425784 -4.06615525 -2.59773995
  H -1.70990434 -3.10090657 -0.12805617
  H -0.65237669 -0.10034120  2.54184834
  H -2.43443132 -1.82633570  3.72970558
  H -0.86141475 -2.58567011  4.01118344
  H -1.17672932 -0.93595373  4.61602748
  H  3.61688811  1.07758908 -0.17733189
  H  4.92395321  3.03451438  0.57897282
  H  4.58792043  2.49037752  2.23911630
  H  5.65856850  1.53523946  1.18888824
  H -1.98408686  0.15704546 -2.04568016
  H -1.75433829  1.35074800 -4.10992527
  H -0.57256798  0.01267558 -4.19387662
  H -0.04461013  1.63491964 -3.70841211
