32
opt_min/./Product_3511_opt.xyz
  C -1.64724000 -1.07077400  1.77737100
  C -0.80017084 -0.76002618  0.54934711
  C -1.26112624 -1.59825708 -0.63877547
  C  0.71139556 -0.96670849  0.84513438
  C  1.19749635 -2.37899118  0.72540705
  O  1.57964381 -3.05826402  1.63490461
  C  1.41923879 -0.03451722 -0.15501516
  C  2.50034700  0.81845279  0.51137850
  C  3.54204203  1.34224353 -0.44063183
  O  2.46858956  1.10128659  1.68113020
  N  0.36661651  0.83203128 -0.67637884
  C -0.77140257  0.74865150  0.22308797
  C -2.00973643  1.37936304 -0.41645696
  C -1.94794979  2.88795224 -0.47761117
  O -2.96870263  0.76813504 -0.80159922
  H -1.42278973 -0.38792394  2.59460498
  H -1.45300545 -2.08658952  2.11613983
  H -2.70334919 -0.98288952  1.53240803
  H -1.17377886 -2.65657784 -0.40699678
  H -2.30157314 -1.38028759 -0.85911497
  H -0.67163221 -1.36976434 -1.52285817
  H  0.91821307 -0.62340844  1.86574675
  H  1.20278127 -2.76975216 -0.31499131
  H  1.86064373 -0.60287661 -0.98623135
  H  4.13041851  0.50329188 -0.81209124
  H  3.07182625  1.81986436 -1.29764726
  H  4.19688484  2.04763441  0.06592522
  H  0.65880726  1.77748638 -0.88695975
  H -0.60784919  1.30735378  1.16790048
  H -2.23200843  3.21615913 -1.47669560
  H -0.97078234  3.28238986 -0.21619573
  H -2.68992006  3.28617343  0.21370824
