26
opt_min/./Product_172_opt.xyz
  C  3.45028308 -0.26874298  0.45832642
  C  2.35254405 -1.23657999  0.79145971
  O  2.50551665 -2.26005314  1.40763687
  C  1.01499984 -0.83311508  0.30530784
  C  0.51053892  0.33640336 -0.10029318
  F  1.08413127  1.51989105 -0.23853288
  C -0.99947496  0.12705586 -0.29900620
  C -1.74120244  1.17331015 -1.13606977
  N -2.33014296  2.12052213 -0.39691266
  C -3.11862646  3.16815372 -1.00970086
  O -1.69098340  1.13460580 -2.34356393
  N -1.07773248 -1.24022552 -0.72780515
  C -0.20729519 -1.76770311  0.31787888
  C  0.02000158 -3.18121613  0.32963204
  N  0.16700169 -4.31241633  0.28728696
  C -1.03300340 -1.17494543  1.52187961
  O -1.18944705 -1.62437393  2.60406138
  O -1.50468627 -0.00328569  1.06470699
  H  4.41437181 -0.69916926  0.71456915
  H  3.42365400 -0.01442982 -0.60077950
  H  3.30378168  0.65091240  1.02555761
  H -2.41822068  1.96724442  0.59738653
  H -2.54388074  3.60844847 -1.82414494
  H -3.34224977  3.92665439 -0.26598134
  H -4.04914236  2.76805015 -1.42044605
  H -0.83622419 -1.42085862 -1.69479762
