31
opt_min/./Product_3593_opt.xyz
  C -1.09488193  1.73299805 -0.69060196
  C -1.49631025  0.37162856 -0.08598703
  C -3.01056599  0.15408707 -0.23365159
  C -0.61358480 -0.79326445 -0.64479425
  C -1.39015633 -2.09662535 -0.57244453
  O -1.88898323 -2.56278176  0.40803635
  C  0.63860319 -0.81657882  0.29733882
  C  1.86933378 -0.26418093 -0.43960348
  O  1.80630267  1.06088435 -0.61174973
  C  2.95315755  1.68223809 -1.18350767
  O  2.79064525 -0.93237993 -0.81756760
  C  1.00388318 -2.20517039  0.84972959
  N  0.30082654  0.06675032  1.42439255
  N -1.08503900  0.30298219  1.31546067
  C -1.79218385  0.70270402  2.33856245
  N -2.43357883  1.06933026  3.21950229
  H -0.72803856  1.62481605 -1.70796946
  H -1.94635799  2.40762116 -0.70748110
  H -0.31278327  2.20863204 -0.10451559
  H -3.47713614  0.13678229  0.74882612
  H -3.46353619  0.95881486 -0.80605418
  H -3.25299015 -0.77854994 -0.73322549
  H -0.32038304 -0.60859980 -1.67981833
  H -1.49137743 -2.59695444 -1.55832211
  H  3.69200788  1.88209254 -0.40628747
  H  3.39218892  1.02792591 -1.93697587
  H  2.60891362  2.61786996 -1.61780019
  H  0.54326264 -3.01382051  0.29403172
  H  2.08070732 -2.34533275  0.80005388
  H  0.68654952 -2.26016736  1.88633256
  H  0.80297295  0.95118003  1.32163042
