60
opt_min/./Product_3144_opt.xyz
  F  1.11112700  2.43022600 -0.86636000
  C  1.63552853  1.24994403 -0.36965400
  C  2.76656234  1.53389300  0.59160534
  C  3.50166419  2.70217379  0.46199451
  C  4.59436130  2.92817034  1.27943331
  C  4.96763856  1.98508121  2.22013860
  C  4.23885107  0.81467096  2.34734409
  C  3.14525697  0.58634003  1.53430894
  C  0.50355627  0.39993211  0.20691642
  C  0.20659792 -0.90479064 -0.01317267
  C  0.79260226 -2.05098715 -0.86323594
 Br -0.36099030 -2.19871213 -2.47342168
 Br  0.52288665 -3.75253767  0.16408767
  C  2.25699987 -2.31734849 -1.41205888
  C  2.92980800 -1.53003485 -2.57676512
  C  3.30086476 -0.05595206 -2.26552820
  C  2.09195200  0.26485194 -1.42454593
  C -1.04323662 -1.24379660  0.81984093
  C -2.21785558 -1.87020895  0.09939034
  C -2.87110280 -1.17190859 -0.91170798
  C -3.97844268 -1.71749695 -1.53404310
  C -4.45542702 -2.95816103 -1.14659068
  C -3.83006445 -3.64364014 -0.12050000
  C -2.72387167 -3.09807616  0.50716753
  N -1.43745222  0.01115205  1.45173890
  C -0.54425769  1.07786188  1.05396748
  C -0.01026361  1.82739273  2.28618299
  O -0.85863563  1.68059461  3.29473820
  C -0.54810139  2.33578474  4.51834119
  O  1.00436192  2.46762678  2.32559993
  C -1.26053397  2.13095329  0.17092854
  O -1.80347277  1.85188217 -0.86331695
  O -1.29797824  3.31072909  0.76318014
  C -1.91495956  4.38698952  0.06087820
  H  3.20713666  3.43763070 -0.27055380
  H  5.15813565  3.84322150  1.17626021
  H  5.82239020  2.16049373  2.85619348
  H  4.52231445  0.07559031  3.08217919
  H  2.56874910 -0.32174097  1.65065463
  H  2.93536726 -2.35463762 -0.55369545
  H  2.19222103 -3.33850265 -1.80305220
  H  2.25884757 -1.55057543 -3.43836037
  H  3.82032745 -2.10015806 -2.84657684
  H  4.22337805  0.00213253 -1.68649494
  H  3.39573099  0.52320900 -3.17921174
  H  2.19493733 -0.53175035 -0.70923180
  H  1.22915942  0.13078897 -2.08282827
  H -0.73678274 -1.91774734  1.63609143
  H -2.50232356 -0.20628634 -1.22395779
  H -4.46276269 -1.17252051 -2.33028963
  H -5.31769299 -3.38509308 -1.63716320
  H -4.20281662 -4.60549679  0.19853518
  H -2.25371444 -3.63137170  1.32011113
  H -2.41484217  0.22324242  1.30123762
  H -0.68236706  1.61451419  5.32335445
  H  0.48178153  2.69706958  4.49996890
  H -1.23472479  3.17271476  4.64759208
  H -2.45392997  4.97960251  0.79676816
  H -1.13782990  4.98781103 -0.41293144
  H -2.59259544  3.99826617 -0.70036250
