51
opt_min/./Product_5629_opt.xyz
  C  0.77884500  1.46044800 -0.44993000
  C  0.05959790  0.79682866  0.71986035
  C  0.73305043 -0.51181987  1.16269338
  N  2.16753917 -0.46479534  1.12212852
  C  2.86400639 -1.44608662  1.90798992
  C  2.84203756  0.54147401  0.50480738
  C  2.26179304  1.51186348 -0.22300680
  C  2.95765630  2.61187294 -0.89752816
  N  4.31167611  2.69568312 -0.75281062
  O  2.36722932  3.44822204 -1.56311881
  C  0.05507711 -1.64652438  0.31234874
  C -0.34853417 -2.80554514  1.23222019
  C  0.95253765 -2.07313222 -0.86764828
  C  1.17382082 -3.55047848 -1.08182797
  O  1.41823409 -1.26273004 -1.62506503
  N -1.13442201 -1.00489397 -0.21073196
  C -1.93151822 -1.59964196 -1.24395849
  C -1.34247862  0.32529577  0.29293020
  C -1.94649929  1.37958808 -0.62670146
  O -1.81586875  1.10213708 -1.91533456
  C -2.22974337  2.11493771 -2.82561725
  O -2.45295916  2.37984948 -0.18976162
  C -2.28793630  0.13429580  1.49421342
  O -1.93145669 -0.06359661  2.62816401
  O -3.55042881  0.05987339  1.08222498
  C -4.53282511 -0.22816883  2.07114892
  H  0.59339586  0.89255860 -1.36558407
  H  0.41222176  2.47690409 -0.60210374
  H -0.00059182  1.49036447  1.56116512
  H  0.43719216 -0.69872900  2.20441450
  H  2.51260512 -1.43239578  2.94530513
  H  2.71177406 -2.45224145  1.50630260
  H  3.93100455 -1.23878211  1.89910313
  H  3.91004426  0.50068576  0.66384845
  H  4.85861363  2.03128430 -0.24233626
  H  4.78049742  3.44096513 -1.23703942
  H -0.88127835 -3.57997265  0.68715202
  H -1.01331296 -2.41974636  2.00059272
  H  0.51300099 -3.25018567  1.72086875
  H  1.87168645 -3.68361695 -1.90518578
  H  0.23039691 -4.02503727 -1.34022820
  H  1.56316770 -4.03333795 -0.19101536
  H -2.92949970 -1.16444437 -1.21443163
  H -2.02850203 -2.67257026 -1.06520288
  H -1.51223007 -1.44214190 -2.24514722
  H -1.46088968  2.88728457 -2.88650768
  H -3.16524458  2.56490381 -2.48864114
  H -2.35507113  1.62907415 -3.78927649
  H -4.28807204  0.28463764  3.00224794
  H -5.48179553  0.12319707  1.67441129
  H -4.57157219 -1.30437350  2.25307940
