41
opt_min/./Product_5140_opt.xyz
  C -0.20777228  0.95933381 -1.33819411
  C -1.57807506  1.32920913 -1.81410632
  C -2.61764846  1.12297472 -1.01054057
  N -2.50834141  0.49438986  0.20736976
  C -3.61801018  0.53433189  1.13017273
  C -1.32585915 -0.19919491  0.59557890
  C -0.26036738 -0.34558018 -0.52313209
  C -0.69709584 -1.49758994 -1.41055886
  N -0.02726815 -2.71938112 -1.08410583
  O -1.52240277 -1.42381795 -2.27408379
  C  1.03194037 -0.67150794  0.28080018
  C  2.36199864 -0.14020459 -0.29697048
  O  2.33760341  1.18086520 -0.41511053
  C  3.55012842  1.80327187 -0.82455229
  O  3.33968854 -0.79735978 -0.53572757
  C  1.03583500 -2.19214460  0.69081745
  C  2.19320010 -3.08933219  0.33758706
  O  0.24920872 -2.50779166  1.56394360
  N  0.88420899  0.11062370  1.51572274
  C -0.50437734  0.48532980  1.74094113
  C -0.96889702  0.05223236  3.04921336
  N -1.28583961 -0.29879702  4.08971937
  C -0.65197554  1.93987881  1.71872790
  N -0.78708949  3.07260202  1.75596393
  H  0.48832706  0.86731619 -2.17105348
  H  0.15700317  1.74537506 -0.67077889
  H -1.70485787  1.70419800 -2.81177934
  H -3.62639704  1.39589014 -1.27764141
  H -4.48647262  0.00839814  0.71936496
  H -3.90034908  1.56814619  1.34221126
  H -3.34389308  0.05429210  2.06792652
  H -1.60120679 -1.20353252  0.95737819
  H  0.52016375 -3.06226554 -1.86793810
  H -0.69539758 -3.43986048 -0.82219707
  H  3.93098121  1.32918609 -1.73140919
  H  3.30428859  2.84599226 -1.00586160
  H  4.30229338  1.71658294 -0.03882980
  H  3.00433597 -2.86909204  1.03201177
  H  1.88596739 -4.12047222  0.49127564
  H  2.57266658 -2.93875328 -0.66394850
  H  1.28302697 -0.36294782  2.31945845
