44
opt_min/./Product_1260_opt.xyz
  C  3.35095419  2.60237881  0.37168572
  N  2.28545231  1.69752105  0.74876108
  C  1.74285344  0.86796490 -0.15440372
  O  2.16387175  0.71477253 -1.28084195
  C  0.55053048 -0.00440859  0.31190536
  C  0.31913903  0.17379708  1.80311461
  C  1.28338843 -0.43064183  2.77767847
  O -0.59746958  0.86837704  2.17832027
  C -0.74699012  0.41412540 -0.47287866
  C -2.01495312  0.52718747  0.46244458
  C -2.67743217  1.86909681  0.55220500
  O -2.51356695 -0.48188540  0.88344253
  C -0.55625188  1.71437129 -1.24909225
  C -1.15935973  1.84269223 -2.61356392
  O  0.02892404  2.63220491 -0.72325701
  C -0.97035141 -0.87096987 -1.31790454
  C -2.30160240 -1.00486802 -1.86884746
  N -3.35122004 -1.12933250 -2.30170250
  O  0.03027354 -0.90875169 -2.36544622
  C  1.16725820 -1.30818094 -1.75478591
  O  2.12391130 -1.73816994 -2.31653653
  C  0.78988682 -1.45279936 -0.24348506
  C  1.74879064 -2.38603727  0.45290546
  N -0.59454178 -1.89986117 -0.37898547
  C -0.83035626 -3.26545786 -0.79175348
  H  3.09089444  3.62285527  0.64402277
  H  4.27899083  2.31547823  0.86999024
  H  3.49166730  2.53682614 -0.70575732
  H  1.75839748  1.93399512  1.57420694
  H  0.92466541 -1.42787764  3.02614233
  H  1.26927048  0.15552800  3.69516824
  H  2.29137556 -0.50152425  2.38670907
  H -3.34995326  1.86273050  1.40565176
  H -3.26999969  2.01084342 -0.35222515
  H -1.96684285  2.68167918  0.64885772
  H -1.89545411  2.64593667 -2.59876588
  H -1.61775399  0.93431002 -2.98341082
  H -0.36725103  2.15000207 -3.29570910
  H  1.33969624 -2.77359754  1.38027987
  H  2.68888485 -1.87396953  0.63734506
  H  1.96439134 -3.22181680 -0.21064439
  H -0.47005900 -3.92535673 -0.00637157
  H -1.90609580 -3.40115777 -0.89192657
  H -0.34339793 -3.52640233 -1.73970269
