55
opt_min/./Product_5746_opt.xyz
  C -0.51554600  1.25572000 -1.41595400
  C -1.23102286  0.48399023 -0.31282871
  C -0.49147024  0.64815094  1.01395504
  N -0.24762139  2.02887602  1.31677474
  C -0.07724051  2.42778888  2.69039841
  C -0.25698578  2.96468551  0.33032761
  C -0.39515754  2.69223600 -0.98282511
  C -0.39800100  3.70163905 -2.04289695
  N -0.52696323  5.01367150 -1.65060268
  O -0.24799118  3.41855250 -3.21831904
  C  0.68459706 -0.37544350  0.90208425
  C  1.12261969 -0.81026273  2.30676945
  C  1.95512678  0.09854655  0.19267551
  C  2.65532140 -0.79788666 -0.61082823
  C  3.84002526 -0.43774388 -1.22513371
  C  4.36555561  0.82772964 -1.03766317
  C  3.70147441  1.71676930 -0.21336955
  C  2.51829957  1.35144648  0.40580382
  N  0.07898268 -1.45171418  0.08148363
  C  0.13182398 -2.80777144  0.57889204
  C -1.20153727 -1.04185748 -0.47804042
  C -2.41447918 -1.64992121  0.26376453
  O -2.65552125 -2.89116190 -0.14348441
  C -3.79103801 -3.55033007  0.40472371
  O -3.04901013 -1.08086897  1.11398758
  C -1.39516726 -1.39802056 -1.96839132
  C -0.19197560 -1.87968502 -2.72058442
  O -2.48060140 -1.27135528 -2.47355899
  H  0.48204433  0.83835756 -1.57368107
  H -1.04944411  1.20347825 -2.36448461
  H -2.25644490  0.84685110 -0.21672527
  H -1.14854697  0.25294850  1.80214153
  H -0.55471219  3.39430263  2.86245848
  H -0.54808615  1.69329068  3.34332487
  H  0.97916975  2.51448372  2.97252743
  H -0.11892272  3.97815827  0.68115212
  H -0.64481888  5.68296692 -2.39576772
  H -1.00530094  5.22889468 -0.79340222
  H  0.29508063 -1.24191052  2.86528311
  H  1.48506639  0.06314980  2.84253276
  H  1.93777778 -1.52735959  2.25857714
  H  2.26668383 -1.79197503 -0.75791687
  H  4.35795672 -1.14945554 -1.85225366
  H  5.28820962  1.11332347 -1.52044277
  H  4.10643577  2.70336438 -0.04261635
  H  2.04120254  2.06654444  1.05049631
  H -0.19299615 -3.47812514 -0.21678529
  H -0.50087843 -2.98948139  1.45862241
  H  1.15877838 -3.05879892  0.83655518
  H -3.97974619 -3.19698151  1.42004932
  H -4.66229353 -3.34157545 -0.21825137
  H -3.57007701 -4.61594281  0.39863652
  H -0.18728582 -2.96871544 -2.70111792
  H -0.26934543 -1.56230577 -3.75808037
  H  0.72186787 -1.51079012 -2.27146331
