32
opt_min/./Product_289_opt.xyz
  C  3.49789901  1.64785696  0.78709502
  O  2.58727303  0.58078790  0.52581971
  C  1.34958243  0.70848460  0.98067053
  O  0.93107149  1.66741870  1.56856298
  C  0.52891802 -0.55875028  0.72983078
  C -0.77455730 -0.53336967 -0.13676343
  O -1.11859107  0.48735620 -1.02197173
  C -0.61101287  1.80276274 -0.90851314
  C -0.50220262 -1.81440325 -1.02928103
  C  0.53617718 -1.32537645 -2.02322339
  C  1.66882218 -1.28252992 -1.33775759
  C  1.30334233 -1.74875291  0.05730590
  O  0.24417198 -2.65024070 -0.18432693
  C -1.86390711 -0.80084994  0.96625748
  C -2.46374276  0.49344435  1.53290310
  C -2.94076583 -1.62455644  0.44801875
  N -3.82226427 -2.21217609  0.02331337
  O -1.16379809 -1.52992391  1.95183517
  O  0.11043221 -0.91524740  2.03900928
  H  4.12748875  1.74920433 -0.09423236
  H  2.95207482  2.57153546  0.98426995
  H  4.10563767  1.38962409  1.65480290
  H  0.44813716  1.83531485 -1.18725051
  H -0.73773381  2.23415169  0.08405921
  H -1.18807717  2.37818770 -1.63026549
  H -1.39276440 -2.29773368 -1.41594438
  H  0.31625660 -1.03988506 -3.03093696
  H  2.65205127 -0.97439213 -1.62658350
  H  2.07325145 -2.18423977  0.68483813
  H -2.98653183  1.03453819  0.74916970
  H -1.66786601  1.10932475  1.94750038
  H -3.16092901  0.23980561  2.32818445
