47
opt_min/./Product_2258_opt.xyz
  C -1.39393800 -3.83012100  1.77511300
  O -1.41319234 -2.65232694  0.98012644
  C -0.32220908 -1.88960073  1.02599676
  O  0.66625480 -2.18083383  1.64037613
  C -0.43282429 -0.64787667  0.14626956
  C -1.64916119  0.31065180  0.36637593
 Br -2.86973953 -0.25017501  1.78253992
  C -2.38833373  0.30242444 -0.97799034
  C -1.57475577  1.00327010 -2.07459372
  C -0.39112518  0.03836352 -2.30517363
  C -0.67801342 -1.09870596 -1.32143769
  C -2.20987814 -1.15958885 -1.37996068
  C -0.93782210  1.61887967  0.79340154
  C -1.70538315  2.94646670  0.73389172
  C -2.79222362  3.11884999  1.73875456
  O -1.38127353  3.77903114 -0.07215102
  N  0.23309886  1.57782870 -0.03462570
  C  0.75732566  0.30748268  0.47776114
  C  2.16741792 -0.00672378  0.08457721
  C  3.15445516  0.89927529  0.46408824
  C  4.47973869  0.67489800  0.14316659
  C  4.84173845 -0.46315138 -0.55644423
  C  3.86881814 -1.37432773 -0.92536413
  C  2.54089347 -1.14973299 -0.60779733
  C  0.61652606  0.57063628  2.01045065
  O  1.30417633  0.23296722  2.91555778
  O -0.46088411  1.37839959  2.14369719
  H -2.18137716 -4.47195315  1.38755701
  H -1.59103719 -3.57506172  2.81776705
  H -0.41988234 -4.31715961  1.70474986
  H -3.41459170  0.65922561 -0.89592421
  H -1.24858550  2.00167626 -1.79974067
  H -2.19463893  1.08730174 -2.96760126
  H -0.39535551 -0.35455126 -3.32210487
  H  0.56886626  0.51443882 -2.12851664
  H -0.18730086 -2.03850335 -1.56835569
  H -2.65166995 -1.86312508 -0.68005329
  H -2.56907636 -1.36312127 -2.38653252
  H -2.40904383  2.88750201  2.73146300
  H -3.61078894  2.43133795  1.53484615
  H -3.15976797  4.14157878  1.70161317
  H  0.85865193  2.36363778  0.12264252
  H  2.89561833  1.78464421  1.02828043
  H  5.23407423  1.38548616  0.44659389
  H  5.87783707 -0.64048298 -0.80285916
  H  4.14093755 -2.27138384 -1.46136508
  H  1.80163029 -1.87990445 -0.88727481
