35
opt_min/./Product_4105_opt.xyz
  C  3.36455296  0.12783304 -0.54451423
  C  2.16568913 -0.44622717  0.20490208
  C  2.62006630 -1.04661320  1.54524591
  C  0.96642730  0.52506434  0.44087168
  C  1.14085376  1.89486116 -0.16717911
  O  1.44562592  2.13261969 -1.30238657
  C -0.25050670 -0.23929489 -0.18470663
  C -1.37378641 -0.55955663  0.82487945
  N -2.11679563 -1.59810604  0.43164418
  C -3.24860832 -2.08479456  1.18176109
  O -1.55149653  0.11476923  1.81960354
  C -1.00283600  0.57156495 -1.27410182
  O -1.12804748  0.19518961 -2.41092283
  N -1.50121264  1.72089880 -0.78096317
  C -2.19112348  2.67664990 -1.61385217
  N  0.23241813 -1.46816274 -0.69844355
  C  1.49333876 -1.55715116 -0.59257551
  C  2.21973347 -2.71094206 -0.95266336
  N  2.86262593 -3.63219478 -1.17804384
  H  3.83514798  0.91916941  0.03642376
  H  3.06966992  0.53372301 -1.50923499
  H  4.09814037 -0.65905185 -0.71324720
  H  3.01226462 -0.26287814  2.18986072
  H  3.40393908 -1.78423502  1.38356832
  H  1.78935305 -1.53303549  2.05469973
  H  0.77797743  0.63972401  1.51195500
  H  0.97506961  2.72043649  0.55826896
  H -1.86726939 -2.07028856 -0.42998624
  H -3.08866972 -3.12087514  1.48338826
  H -4.15736548 -2.02329500  0.58090480
  H -3.35738646 -1.46219529  2.06848653
  H -1.46128802  1.90264855  0.21093580
  H -2.15758134  2.30606953 -2.63680120
  H -1.69638804  3.64745591 -1.56405968
  H -3.23070060  2.78266028 -1.29834829
