46
opt_min/./Product_1290_opt.xyz
  C  1.74173400  2.09694400  0.87430800
  C  1.15710455  0.75938195  0.57369571
  C -0.12985717  0.45452127  0.41924600
  C -1.27586111  1.37050947  0.51860953
  C -1.97397930  1.50764997  1.71106636
  C -3.05735857  2.36453151  1.78878513
  C -3.45152786  3.09032755  0.67812934
  C -2.75388421  2.96441468 -0.51108434
  C -1.66925707  2.11068732 -0.59060342
  C -0.28784093 -1.01992135  0.10157173
  C -1.22717403 -1.72815672  1.09068519
  O -0.86206194 -2.58504242  1.84906727
  O -2.46114409 -1.25099031  1.01184707
  C -3.45286985 -1.80219868  1.86885513
  C -0.89748345 -1.11088669 -1.32065141
  O -2.03810409 -0.85551418 -1.59816394
  O  0.01571566 -1.52826253 -2.18172548
  C -0.36025774 -1.61146907 -3.54692545
  N  1.05198116 -1.50672755  0.20371567
  C  1.43775997 -2.86490027 -0.05061407
  C  2.01633216 -0.46737378  0.39068111
  C  2.95781022 -0.24916601 -0.79698027
  O  4.08853670  0.33171138 -0.37606875
  C  5.06922409  0.65888453 -1.35242307
  O  2.72722107 -0.52008003 -1.94264973
  H  2.75639122  1.99066472  1.25011901
  H  1.13428922  2.61872406  1.61179823
  H  1.76959872  2.71030687 -0.02727160
  H -1.66471167  0.94341685  2.57923783
  H -3.59767639  2.46462197  2.71962384
  H -4.30193357  3.75389751  0.73898090
  H -3.05786844  3.53143576 -1.37877661
  H -1.12205522  2.00685806 -1.51609075
  H -3.96277707 -0.97293558  2.35815954
  H -2.98652570 -2.45780954  2.60701695
  H -4.16201444 -2.36419412  1.26060131
  H  0.56496355 -1.55382159 -4.11526943
  H -0.86670267 -2.56040058 -3.73868595
  H -1.03213434 -0.79021929 -3.80577749
  H  0.59394215 -3.40806241 -0.46896522
  H  2.25851850 -2.90264280 -0.77177562
  H  1.74332357 -3.36340061  0.87694528
  H  2.64692260 -0.64015762  1.28013201
  H  5.37309820  1.69194032 -1.18643465
  H  5.92511558 -0.00598425 -1.22880166
  H  4.64932527  0.53945194 -2.35315814
