32
opt_min/./Product_399_opt.xyz
  C -4.36185016  0.39191494 -1.78791359
  N -3.16286674  0.18078449 -1.01377743
  C -1.99321032  0.75120181 -1.35787076
  O -1.84744720  1.40777600 -2.37056312
  C -0.83047677  0.44050259 -0.47639559
  C  0.42266768  0.81775345 -0.76760067
 Cl  0.93389223  1.82247888 -2.03303283
  C  1.42494149  0.22969865  0.20147118
  C  2.44348527 -0.72980024 -0.50855322
  N  3.29864253 -0.09257761 -1.31900570
  C  4.31908235 -0.81940249 -2.04359770
  O  2.43493735 -1.91236853 -0.28866311
  C  2.15997168  1.26892653  0.88899219
  N  2.71817106  2.07226853  1.48030410
  N  0.60201526 -0.54919509  1.11526798
  C -0.81179324 -0.41090102  0.77961913
  C -1.69030000  0.09645544  1.93213935
  C -1.20404656 -0.22089326  3.32014068
  O -2.73309299  0.66588447  1.73333819
  H -4.84884437 -0.56289484 -1.99071699
  H -5.05693126  1.04442966 -1.25582746
  H -4.07356759  0.86149674 -2.72741968
  H -3.28093865 -0.21566173 -0.09604807
  H  3.19998972  0.89810799 -1.48251817
  H  4.73118355 -1.59092455 -1.39294933
  H  3.89690112 -1.30483604 -2.92645589
  H  5.10649822 -0.13426264 -2.34600337
  H  0.81080833 -0.33587445  2.08120579
  H -1.20471272 -1.41958844  0.55427546
  H -0.51718615  0.56248511  3.64083671
  H -2.05772732 -0.20997296  3.99538112
  H -0.70506608 -1.18479759  3.36503840
