41
opt_min/./Product_4789_opt.xyz
  C -1.44850416 -0.34707903 -1.46501983
  C -1.40528487  1.01076258 -2.09884412
  C -0.91272945  2.07856655 -1.47729211
  N -0.32866919  2.03080137 -0.24024359
  C  0.12783285  3.24274698  0.38965856
  C -0.06025807  0.78250985  0.35690791
  C -1.09506856 -0.31447417  0.03309155
  C -2.37060889 -0.06988163  0.85774074
  N -3.32854133 -1.01318943  0.71093053
  O -2.50608531  0.87771585  1.59435046
  C -0.32288860 -1.58442486  0.47237959
  C -0.50455839 -1.98635651  1.95009119
  C -0.71984415 -2.74183777 -0.31691339
  N -1.05324906 -3.67561418 -0.88632991
  O  1.05906537 -1.30880294  0.20714959
  C  1.29168676  0.06496264 -0.04419519
  C  2.46062888  0.56393980  0.82780705
  C  2.53959195 -0.02719488  2.20821330
  O  3.26815193  1.36019935  0.42862578
  C  1.67237520  0.36554935 -1.50262412
  C  1.96481675 -0.81316900 -2.38684174
  O  1.79767844  1.50638636 -1.86091642
  H -2.45714415 -0.74700315 -1.59129338
  H -0.77440473 -1.02307905 -2.00339838
  H -1.81784646  1.08866018 -3.09029204
  H -0.92464127  3.05386046 -1.93701818
  H  0.87315807  3.00895079  1.14760495
  H  0.58972358  3.89243645 -0.35444996
  H -0.70638745  3.76813414  0.86536566
  H -0.05107777  0.92156849  1.44566714
  H -3.22371996 -1.81720505  0.11697946
  H -4.20170146 -0.88169312  1.19484246
  H -0.24545666 -3.03655148  2.07910835
  H  0.15400820 -1.39645303  2.57745495
  H -1.52893717 -1.83746674  2.27895500
  H  1.61008686  0.12151041  2.75249460
  H  3.35623532  0.44682875  2.74729446
  H  2.73307986 -1.09567189  2.12009454
  H  1.53153270 -0.63571828 -3.36899167
  H  1.60969438 -1.74911214 -1.96687457
  H  3.04630534 -0.86863445 -2.51071577
