44
opt_min/./Product_5491_opt.xyz
  C  1.15293600 -1.59889000  2.04390300
  O  1.83598620 -1.51185668  3.03977937
  C  0.92693926 -2.84409201  1.31297912
  C -0.11258453 -2.99088332  0.47910433
  C -1.09246308 -1.93329857  0.22026872
  O -1.83883543 -1.96570311 -0.73119142
  C -1.08995864 -0.76178287  1.20552227
  C  0.37498337 -0.40860898  1.50482716
  N  0.73214667  0.04512675  0.16742968
  C  1.75976837 -0.39918132 -0.62133612
  C  1.60208705 -0.45500162 -2.01218087
  C  2.62938517 -0.91344909 -2.80669232
  C  3.82690191 -1.33126316 -2.24375556
  C  3.98494859 -1.28239941 -0.87045881
  C  2.96860176 -0.81383336 -0.05843420
  N -0.35748971  0.75794519 -0.38995830
  C -0.02125794  2.10055094 -0.81252463
  C -1.51249787  0.51314052  0.44891481
  C -2.78981696  0.27213439 -0.39276478
  O -2.58611588  0.61229394 -1.65848920
  C -3.66862002  0.35905594 -2.54644658
  O -3.83450087 -0.07090026  0.07816237
  C -1.91691184  1.53514340  1.53268098
  O -2.79540083  1.31037303  2.31623307
  O -1.18752279  2.64812856  1.53159399
  C -1.51673257  3.62454556  2.51657506
  H  1.62358514 -3.64946982  1.49875682
  H -0.25706126 -3.90719246 -0.07831025
  H -1.72388221 -0.97479838  2.06802915
  H  0.46462657  0.41158730  2.23415082
  H  0.65287975 -0.17284423 -2.44013396
  H  2.49368178 -0.96105782 -3.87806109
  H  4.62743578 -1.69044186 -2.87134205
  H  4.91424329 -1.60045200 -0.42052222
  H  3.12806267 -0.74056213  1.00519656
  H  0.57432507  2.03228042 -1.72424683
  H -0.94073099  2.63271958 -1.03756841
  H  0.54960252  2.65564511 -0.06136861
  H -3.72878334 -0.71254977 -2.74503456
  H -4.60912711  0.69525301 -2.10497782
  H -3.44907431  0.90641311 -3.46044053
  H -0.63429686  4.24944075  2.63591931
  H -1.78087211  3.13690867  3.45625912
  H -2.36292740  4.22336684  2.17431891
