68
opt_min/./Product_2915_opt.xyz
  C  1.37967100 -0.23841600  1.82690900
  C  0.99373130 -0.12015566  0.34349613
  C  1.87783085  0.90734007 -0.36210541
  C  1.49287507  1.51034813 -1.55796282
  C  2.31923942  2.39947747 -2.22031962
  C  3.56735104  2.70982825 -1.71257481
  C  3.97407128  2.11506066 -0.53377899
  C  3.14367435  1.22558292  0.12742532
  C -0.56696449  0.17063792  0.20985743
  C -1.33297822 -0.24381865  1.48272210
  C -1.90779908  0.70043421  2.32437002
  C -2.64515511  0.31595446  3.43231015
  C -2.82764708 -1.02145718  3.72622661
  C -2.24776276 -1.97321672  2.90572638
  C -1.50687290 -1.59193272  1.80117500
  C -0.89031909  1.64071103 -0.01850124
  C -0.10146779  2.63295751  0.56353450
  C -0.40856900  3.97422823  0.42858492
  C -1.53260344  4.36717481 -0.27454167
  C -2.36020702  3.39382613 -0.80174745
  C -2.05323438  2.05158164 -0.66108578
  C -0.99567783 -0.85749723 -0.90248982
  C -2.40767818 -1.47964672 -0.73527143
  O -2.64298265 -2.62647329 -0.98364564
  O -3.33303459 -0.59208843 -0.38114665
  C -4.64084173 -1.11126298 -0.17119025
  C -1.06424462 -0.45219091 -2.39183943
  O -1.47874457  0.57943945 -2.85501608
  O -0.68520615 -1.48128477 -3.13841139
  C -0.81605566 -1.32983939 -4.54407577
  O -0.10954827 -1.94284561 -0.76934213
  C  1.18330861 -1.51205648 -0.38122554
  C  1.70958034 -2.61189235  0.57720535
  N  3.05280682 -2.63746577  0.73396535
  C  3.70461987 -3.64016503  1.54194067
  O  0.97766547 -3.38286216  1.15122308
  C  2.07909927 -1.48452468 -1.63418050
  H  0.75990999 -0.97326480  2.32974031
  H  2.41071873 -0.55690927  1.94739676
  H  1.24849399  0.71469844  2.33429934
  H  0.52459747  1.31480239 -1.98136049
  H  1.97785223  2.85337188 -3.13854322
  H  4.21294452  3.40608315 -2.22743317
  H  4.94511210  2.34219269 -0.11803720
  H  3.50939868  0.78967788  1.04234981
  H -1.79331259  1.75419484  2.12939785
  H -3.08309701  1.07564118  4.06361491
  H -3.40994356 -1.31959269  4.58636125
  H -2.36445557 -3.02456790  3.12145182
  H -1.05138909 -2.36888778  1.20874445
  H  0.77296217  2.37784264  1.13861093
  H  0.23430875  4.71217162  0.88679193
  H -1.76936523  5.41457448 -0.38962719
  H -3.26142157  3.67499454 -1.32636541
  H -2.74006591  1.32683856 -1.05564862
  H -4.62887263 -1.81030383  0.66852606
  H -4.99370284 -1.63135597 -1.06369385
  H -5.26941707 -0.25419478  0.05411014
  H -0.23559205 -2.13278347 -4.99089236
  H -0.44133230 -0.35357467 -4.86031269
  H -1.86554535 -1.41605133 -4.83240142
  H  3.63972290 -2.01277950  0.20805791
  H  4.23008516 -4.36775903  0.91899963
  H  2.93300195 -4.15365884  2.11290001
  H  4.41569634 -3.17170223  2.22330150
  H  1.61226155 -0.89113654 -2.41346706
  H  3.06327369 -1.06354182 -1.44570262
  H  2.17712329 -2.50395018 -2.00228574
