40
opt_min/./Product_759_opt.xyz
  C  5.06212800 -1.50663200  0.86016200
  O  4.15333203 -2.57042793  1.07063233
  C  3.00906690 -2.54939598  0.36661773
  C  2.09146707 -3.50587285  0.20340449
  F  2.05363972 -4.75209671  0.68904996
  C  0.94064867 -2.88015800 -0.55548373
  C  0.22887167 -1.95043864  0.47427316
  C  1.27163468 -0.82597577  0.60981770
  C  2.38526551 -1.34454797 -0.34082622
  O  1.63090038 -1.94635786 -1.37224005
  C  0.53990166  0.40077873  0.01835240
  C  1.05016965  1.70858249  0.58304695
  O  2.15133918  1.83403831  1.05405538
  O  0.18337941  2.70665340  0.44207042
  C  0.62003706  3.98670615  0.88682622
  N -0.88902138  0.12183045  0.15506973
  C -1.42750946  0.43979368  1.47801450
  N -0.92389611 -1.26966273 -0.08498488
  C -2.01162312 -1.91047299 -0.61747018
  N -3.00897011 -1.06625259 -1.00196365
  C -4.11151055 -1.55448451 -1.79386519
  O -2.06214792 -3.12129632 -0.70436024
  H  5.93297124 -1.74488541  1.46713531
  H  4.64078705 -0.55123422  1.18600626
  H  5.35749176 -1.43803330 -0.18982943
  H  0.28020240 -3.53383452 -1.11418195
  H -0.01771988 -2.48703795  1.39422271
  H  1.63605582 -0.64543107  1.61927979
  H  3.05191656 -0.58099064 -0.72867449
  H  0.74974501  0.42085572 -1.06200021
  H -0.16748223  4.68490131  0.61792930
  H  0.77449126  3.98017093  1.96738242
  H  1.55839438  4.25500837  0.39833415
  H -1.60686987  1.51091015  1.52734563
  H -2.37663264 -0.08125142  1.58554672
  H -0.76399494  0.14470766  2.29757904
  H -2.77665112 -0.08651787 -1.05894685
  H -4.35218538 -2.55920947 -1.45102287
  H -4.97174077 -0.90262334 -1.65485847
  H -3.86343966 -1.60398592 -2.85911301
