39
opt_min/./Product_4288_opt.xyz
  C  1.73293100 -1.97419600 -1.06397900
  C  1.13767376 -1.34556956  0.20071682
  C  1.74613604 -2.01323037  1.44092321
  C -0.41856172 -1.35941400  0.18385458
  C -1.02992337 -2.50555297  0.91634013
  O -1.68079849 -3.37247764  0.39733678
  C -0.82934769  0.06312905  0.69874736
  C -1.25595520  0.12243417  2.17328151
  C -1.95252722  0.65887391 -0.12497008
  C -3.06001170 -0.10361427 -0.46790057
  C -4.09631698  0.46230034 -1.19109351
  C -4.03694473  1.79162483 -1.57241218
  C -2.93687030  2.55504535 -1.22639998
  C -1.89987098  1.99462086 -0.50176920
  N  0.36247342  0.85990768  0.57117639
  C  1.37675937  0.15602997  0.31067948
  C  2.70421598  0.83259716  0.19442704
  O  3.72516346 -0.03843482  0.16604987
  C  5.02221696  0.53308671  0.07471951
  O  2.85581539  2.02372595  0.15637310
  H  2.57382645 -1.39212878 -1.43273906
  H  2.08402904 -2.98286514 -0.85785844
  H  0.99993833 -2.03329482 -1.86584880
  H  1.41815041 -1.52511342  2.35771615
  H  2.82985134 -1.94470260  1.38573829
  H  1.46429532 -3.06374661  1.48663385
  H -0.74100965 -1.41731943 -0.86327961
  H -0.87680665 -2.50013647  2.01138497
  H -2.19096010 -0.41491729  2.31501372
  H -0.49340744 -0.30122121  2.82413814
  H -1.40410363  1.16433336  2.44551228
  H -3.12301061 -1.14166126 -0.17896815
  H -4.95198083 -0.14130144 -1.45334298
  H -4.84442431  2.22891037 -2.14022953
  H -2.88500850  3.59534324 -1.51741532
  H -1.03590892  2.58161245 -0.23202672
  H  5.07397067  1.22431672 -0.76978829
  H  5.71281974 -0.29510200 -0.06291131
  H  5.26036634  1.07994420  0.99000235
