51
opt_min/./Product_5419_opt.xyz
  C  5.56222072 -0.49117940 -2.07063863
  C  4.61071577 -0.92967070 -1.00044812
  C  5.12428859 -2.04344699 -0.13430267
  C  3.41708256 -0.34295609 -0.85184520
  C  2.42375888 -0.64806729  0.14892077
  C  1.25371849 -0.01262030  0.19878926
  C  0.15332407 -0.21368260  1.21042715
  C  0.54302125 -1.20022728  2.30640654
  C -0.14054284  1.15013408  1.86471953
  C -1.11286904  1.84086230  0.90586510
  C -0.40572026  2.66651876 -0.05667747
  N  0.15739520  3.36012629 -0.77040183
  C -2.17081997  2.70803297  1.62498592
  C -2.98460051  3.56385979  0.69986110
  O -2.34264500  2.64112160  2.81244928
  N -1.84323656  0.75338625  0.25288014
  C -1.17770927 -0.52524014  0.42369796
  C -2.03847699 -1.66536069  0.97685256
  N -3.37263913 -1.49351290  0.89245360
  C -4.29881821 -2.55730935  1.20674103
  O -1.54566079 -2.70492629  1.38016603
  C -0.84397193 -1.05738410 -1.01194129
  O -1.20237627 -0.46512646 -2.00334394
  N -0.12920612 -2.19123933 -1.01348279
  C  0.29749537 -2.80622368 -2.24894183
  H  5.70188042 -1.29082825 -2.79830364
  H  6.53757981 -0.26513070 -1.63874132
  H  5.19469685  0.38749062 -2.59154696
  H  5.73937121 -1.63582067  0.66843734
  H  5.74798958 -2.71606815 -0.71923761
  H  4.31846051 -2.61863321  0.31311541
  H  3.14069926  0.45733619 -1.52822983
  H  2.65874715 -1.43587975  0.85300963
  H  1.04627144  0.75976698 -0.53016415
  H  0.76148380 -2.18796179  1.91558378
  H  1.42491406 -0.81789524  2.81587384
  H -0.25712713 -1.30189271  3.03630702
  H -0.64144660  1.02323395  2.82673150
  H  0.77384766  1.72155853  2.02126111
  H -2.47343180  4.52331323  0.61351563
  H -3.05279543  3.13276246 -0.29532786
  H -3.97111443  3.74876610  1.11754631
  H -2.82887035  0.79640787  0.47031139
  H -3.74259442 -0.73023873  0.35072033
  H -5.01826468 -2.22183372  1.95547671
  H -3.72146281 -3.38888526  1.60605720
  H -4.83469343 -2.88199433  0.31438085
  H -0.01200939 -2.69351033 -0.14648997
  H  0.86803509 -2.08242312 -2.83355421
  H  0.92509124 -3.66298101 -2.02426658
  H -0.56165054 -3.12414143 -2.84362989
