40
opt_min/./Product_4609_opt.xyz
  C  0.59557700 -1.50807400 -0.19304600
  C  0.01334187 -0.52444194 -1.20516569
  C  0.45009015  0.93480719 -0.96427105
  N  1.65038721  1.10899011 -0.17655400
  C  2.27989660  2.41193885 -0.25657465
  C  2.46112895  0.03770465  0.07382983
  C  2.04970449 -1.24085659  0.05306195
  C  2.87704092 -2.40317441  0.39703041
  N  4.23195400 -2.20501682  0.45016863
  O  2.39462110 -3.49286270  0.64777830
  C -0.87415128  1.54440098 -0.36761006
  C -0.77049734  2.79461074  0.46945255
  C -1.69304586  1.69993663 -1.66523491
  O -1.92968333  2.69593929 -2.28098520
  O -2.05868571  0.46340238 -2.00859919
  C -1.51610769 -0.41403577 -0.97265773
  C -2.20610767 -1.77364909 -1.11448050
  C -2.63584580 -2.48747929  0.13158691
  O -2.34214855 -2.23122716 -2.21600384
  N -1.52924524  0.37412956  0.23412671
  C -2.82285426  0.62477059  0.84897415
  H  0.06603098 -1.38426341  0.75660267
  H  0.45522008 -2.53503860 -0.52978273
  H  0.23525928 -0.84675737 -2.22339348
  H  0.62262439  1.43394900 -1.93245283
  H  3.36436607  2.30901553 -0.29758519
  H  2.03344454  3.01847427  0.61727058
  H  1.95784817  2.94586172 -1.15278514
  H  3.46798662  0.30317795  0.36188764
  H  4.66268186 -1.44617156 -0.04465197
  H  4.78782753 -3.03352115  0.58712791
  H -0.17342972  3.53264308 -0.05563947
  H -0.32055154  2.56690641  1.43205612
  H -1.75578088  3.23075505  0.61735653
  H -1.93908275 -2.31007269  0.94442031
  H -3.62054241 -2.12669960  0.42146383
  H -2.71206847 -3.55062832 -0.07944926
  H -3.62565054  0.75037915  0.11384156
  H -3.06085066 -0.20550493  1.51026903
  H -2.76022586  1.52312916  1.45529291
