65
opt_min/./Product_5931_opt.xyz
  C  5.59637400 -1.60719500 -2.20816200
  C  4.74010135 -1.51866952 -0.97902504
  C  5.41180213 -1.99604212  0.27146885
  C  3.48433099 -1.06249728 -1.05658419
  C  2.53679292 -0.92335165  0.02161667
  C  1.30564233 -0.44339847 -0.17300174
  C  0.21380410 -0.32198874  0.85232608
  C  0.76441698 -0.47464970  2.27284778
  C -0.79269963 -1.46300626  0.55308290
  C -2.18407265 -0.81488584  0.46370699
  C -2.96323677 -0.75083088  1.80179272
  O -2.30043058 -1.36570713  2.79329315
  C -2.97438066 -1.45218208  4.03998551
  O -4.11363200 -0.41699947  1.88081034
  C -3.17114926 -1.59587576 -0.38738764
  C -4.30837246 -0.94804382 -0.86388007
  C -5.26292493 -1.64272196 -1.58195300
  C -5.10238334 -2.99650147 -1.82790266
  C -3.98624390 -3.65013722 -1.33849815
  C -3.02743735 -2.95669329 -0.61729298
  N -1.89987826  0.52854727 -0.04515526
  C -1.78468719  0.57361152 -1.50526425
  C -0.68170538  0.98549222  0.64909180
  C -1.07039660  1.57662960  2.02537841
  C -0.10378009  2.54122738  2.67195395
  O -2.12784913  1.34516736  2.55192544
  C -0.08974416  2.18707598 -0.07097815
  C -0.98314360  3.17733361 -0.48134996
  C -0.52973992  4.33386594 -1.08550966
  C  0.82822952  4.53499178 -1.27237420
  C  1.72308944  3.57895410 -0.82753114
  C  1.27024291  2.41992741 -0.21793489
  H  5.24421565 -0.93356545 -2.98496068
  H  5.57414624 -2.62361516 -2.60477781
  H  6.63214748 -1.36794507 -1.97385686
  H  6.20785737 -1.30323298  0.54966133
  H  5.87001482 -2.96913499  0.09576541
  H  4.72573537 -2.08591216  1.10709768
  H  3.11648760 -0.74960373 -2.02725684
  H  2.86357826 -1.20417211  1.00996178
  H  1.01351258 -0.18417729 -1.18248155
  H  1.60692085  0.19144651  2.44834770
  H  1.11035921 -1.49669054  2.41667575
  H -0.00665681 -0.28339234  3.01214835
  H -0.73247067 -2.26506620  1.28234759
  H -0.57351006 -1.87470951 -0.43655086
  H -2.81445456 -0.53083840  4.60360979
  H -4.04517710 -1.58685203  3.87831216
  H -2.55008169 -2.30290282  4.57000340
  H -4.43195414  0.10160290 -0.65611705
  H -6.13961535 -1.12794757 -1.94666332
  H -5.84875771 -3.54104175 -2.38648519
  H -3.85957683 -4.70987484 -1.50845515
  H -2.17498284 -3.49411284 -0.22984191
  H -2.09021612 -0.37373105 -1.94703898
  H -0.76836196  0.78768859 -1.83901404
  H -2.43323996  1.35277456 -1.90915327
  H -0.44053133  2.73252976  3.68918558
  H -0.10740933  3.47920017  2.12262647
  H  0.91301208  2.16599562  2.68025608
  H -2.03800646  3.03469540 -0.30536340
  H -1.23641575  5.08636511 -1.40257546
  H  1.18524615  5.43523672 -1.75037318
  H  2.78585877  3.73151230 -0.94558512
  H  1.98982856  1.69836151  0.13418100
