60
opt_min/./Product_2682_opt.xyz
  C -3.32663451 -2.24745229 -2.57126718
  N -2.69840455 -1.34718088 -1.63040690
  C -3.43467358 -0.68403631 -0.74094770
  O -4.65641348 -0.71123758 -0.75952485
  C -2.65938584  0.26250243  0.21809912
  C -3.34830254  0.37699853  1.61235389
  O -2.69469270  0.43326695  2.63866252
  N -4.67869353  0.50449231  1.57425820
  C -5.44223215  0.52509242  2.80076703
  C -1.28009055 -0.30287740  0.42943336
  C -0.01143389 -0.03726486  0.08682764
  C  0.74298633  1.16712749 -0.45618163
  C  1.75930483  0.65233306 -1.51447526
  C  3.23029233  0.82904040 -1.29946141
  O  1.32441453  0.17730482 -2.53338894
  C  1.42262157  1.84427833  0.74721275
  F  0.57208981  2.21576247  1.70083692
  F  2.32594148  1.06509609  1.36889501
  F  2.09453564  2.95663615  0.38841531
  C -0.05370857  2.21005419 -1.28013047
  C -0.86809051  3.26915508 -0.54083505
  C -2.04411026  2.74129449  0.27947742
  C -2.83099279  1.64560666 -0.43999205
  C  0.84201648 -1.28001093  0.31429018
  C  0.98381842 -1.98887941 -1.04410937
  O  2.23578387 -2.32954171 -1.30031750
  C  2.46769808 -2.98538585 -2.54440507
  O  0.04128273 -2.25625282 -1.74897817
  N  0.07318792 -2.09888406  1.22602335
  C  0.27514154 -3.52678251  1.16378357
  C -1.29687865 -1.60112101  1.23508111
  C -2.30888583 -2.57361938  0.88830342
  N -3.08755261 -3.39354364  0.70834091
  H -4.02876036 -2.89595386 -2.04517372
  H -2.55244232 -2.84192420 -3.04582121
  H -3.87701525 -1.68373943 -3.32700595
  H -1.68534741 -1.36513958 -1.59641653
  H -5.14010296  0.17182047  0.72694828
  H -5.44887896 -0.45528335  3.28433551
  H -4.98848513  1.24021095  3.48668993
  H -6.46143459  0.82601864  2.57383978
  H  3.46708423  1.88812615 -1.21020703
  H  3.75548195  0.41517507 -2.15732188
  H  3.57172538  0.33336292 -0.39526314
  H  0.66668067  2.74479218 -1.90912248
  H -0.68015047  1.63610924 -1.96268265
  H -1.23696471  3.96280497 -1.30039869
  H -0.21752169  3.84758529  0.11755611
  H -1.68941241  2.35649527  1.23436359
  H -2.70141723  3.58375300  0.49942090
  H -3.89815735  1.86874708 -0.42109068
  H -2.54803755  1.58723433 -1.49197657
  H  1.83635540 -1.10083003  0.73309651
  H  2.03948792 -2.39095048 -3.35328570
  H  2.00936003 -3.97544164 -2.53927640
  H  3.54628119 -3.06432368 -2.65031405
  H -0.20424177 -3.97794767  2.03229323
  H  1.34565431 -3.72198259  1.21741252
  H -0.13434259 -3.99822881  0.25968288
  H -1.53262940 -1.29914843  2.27597040
