41
opt_min/./Product_4505_opt.xyz
  C -0.17883900 -1.87332300  1.07578000
  C  0.13333511 -1.07407741 -0.19069221
  C  1.06201666 -1.90544179 -1.07544079
  C -1.15059515 -0.52652420 -0.91279208
  C -1.21532061 -0.80013407 -2.41524691
  C -2.46243038 -1.03514503 -0.30767525
  C -1.01063981  1.02515741 -0.64488063
  C -2.32200417  1.75041582 -0.81427070
  C -3.04439488  2.14173503  0.44965405
  O -2.77322073  1.95286197 -1.91211603
  C  0.13676084  1.44706637 -1.58475137
  O  0.11600079  2.08368609 -2.58830047
  O  1.24295968  0.93085367 -1.01887675
  C  0.80493286  0.27736131  0.20160203
  C  1.96506057  0.21226996  1.18694626
  O  3.08974216  0.63278987  0.62969504
  C  4.25649441  0.61727576  1.44229435
  O  1.86561756 -0.16806143  2.32238676
  N -0.32777366  1.05318461  0.64804620
  C  0.01001826  2.37726708  1.16870121
  H  0.74674008 -2.16507606  1.56569114
  H -0.72703414 -2.77622175  0.82128783
  H -0.75025644 -1.28205535  1.78454736
  H  0.51008856 -2.71284940 -1.55190499
  H  1.85268601 -2.33952236 -0.46566387
  H  1.52859034 -1.29504373 -1.84504182
  H -1.98079447 -0.16168575 -2.85506118
  H -1.48741972 -1.83913118 -2.59511053
  H -0.27968776 -0.59230023 -2.92665987
  H -3.29905420 -0.62836669 -0.87137903
  H -2.50916935 -2.11988618 -0.37394981
  H -2.57077402 -0.74473872  0.73233589
  H -4.10502740  1.92121084  0.33125253
  H -2.64022908  1.63134553  1.31703679
  H -2.95424586  3.21844747  0.59351959
  H  4.25494790 -0.26493364  2.08585203
  H  5.10392698  0.60518611  0.76088532
  H  4.28373663  1.51161237  2.06826482
  H -0.63133878  3.13971923  0.73196624
  H -0.12589644  2.36684377  2.25110503
  H  1.04558504  2.64955339  0.94359314
