45
opt_min/./Product_2861_opt.xyz
  C -1.00446891  4.51990173 -0.46017596
  O -1.09301779  3.09774969 -0.50582784
  C -1.62593435  2.52964862  0.56634619
  O -1.98920167  3.11217011  1.54714466
  C -1.82432662  1.01338737  0.33618843
  F -2.45845735  0.96200060 -0.90398278
  C -0.55375717  0.21635212  0.23663531
  C -0.39446497 -1.05708746 -0.17898372
  C -1.27583658 -2.11193212 -0.71709710
 Br -0.62663604 -2.43777177 -2.58860884
 Br -0.91599613 -3.78588628  0.29460765
  C -2.78102795 -1.92746798 -0.80784732
  C -3.51440931 -1.82460383  0.53525279
  C -3.90064961 -0.41012126  0.96270564
  C -2.73344756  0.44578167  1.44880363
  C  1.07441569 -1.36336938  0.11705127
  C  1.73569053 -2.51631699 -0.44781446
  N  2.33242818 -3.38762723 -0.88081298
  O  1.10171529 -1.46108538  1.62285976
  C  0.94271070 -0.21783743  2.05106924
  O  0.90162190  0.15353930  3.17422272
  C  0.81672544  0.65673923  0.73062151
  C  1.17508107  2.12104129  0.86440473
  O  1.90770050  2.50397004 -0.17342640
  C  2.46751705  3.81351334 -0.15140226
  O  0.85784131  2.81496470  1.78920848
  N  1.69415160 -0.11044458 -0.15286938
  C  3.13368198 -0.01704403  0.06335726
  H -0.47291027  4.81971677 -1.35870334
  H -2.00632743  4.95137921 -0.44464788
  H -0.47324877  4.82713518  0.44258521
  H -3.15788691 -2.79970787 -1.34860638
  H -2.99095934 -1.05659073 -1.42675070
  H -2.92157741 -2.28205399  1.32999693
  H -4.43444868 -2.40739881  0.45000385
  H -4.59907666 -0.50031732  1.79681629
  H -4.42443614  0.09405254  0.14980930
  H -3.12834830  1.30466510  2.00421835
  H -2.12211530 -0.13016163  2.14700952
  H  2.11325761  4.36163817  0.72253652
  H  3.55318807  3.71947156 -0.11696025
  H  2.16988862  4.31708910 -1.06972975
  H  3.58038491 -1.01082605  0.06739109
  H  3.37281951  0.46725085  1.01253760
  H  3.56490457  0.56096292 -0.75316826
