48
opt_min/./Product_978_opt.xyz
  C -1.52023300 -1.39373900 -0.88620200
  C -1.07996062  0.01920793 -0.48101985
  C -1.74855945  1.05506750 -1.38938465
  O -2.52735684  0.78078252 -2.26162196
  O -1.38175392  2.29959422 -1.09010447
  C -1.96703469  3.34273874 -1.85709841
  C -1.58076183  0.34950642  0.92680799
  O -2.25725820 -0.39464627  1.58954476
  O -1.22560886  1.56761762  1.32474451
  C -1.65324434  1.98044886  2.61343445
  C  0.47972667 -0.01521698 -0.65958926
  C  0.83676097  0.45122171 -2.08539366
  C  1.21718700  0.76803369  0.40812760
  C  1.17248285  0.31632050  1.72675852
  C  1.85849228  0.96505044  2.73331626
  C  2.60920386  2.09320743  2.44499287
  C  2.64609737  2.56518823  1.14644325
  C  1.95978807  1.90830256  0.13814621
  N  0.81463154 -1.43038334 -0.61599224
  C  2.06479879 -1.88076883 -0.07664516
  C -0.32831780 -2.32697416 -0.62250747
  C -0.15767061 -3.36737903 -1.75267050
  C -0.52888271 -3.06206984  0.71288477
  H -1.79924417 -1.38305791 -1.93875539
  H -2.38768649 -1.69659804 -0.30237998
  H -1.38937182  3.50553777 -2.76955348
  H -2.99231659  3.08479708 -2.12864252
  H -1.94315171  4.23536967 -1.23620014
  H -0.91703876  2.69884893  2.96714696
  H -1.71331019  1.12453359  3.28800093
  H -2.63709765  2.44981242  2.54425910
  H  0.32349728 -0.18887364 -2.79829835
  H  0.55937456  1.48212944 -2.27907488
  H  1.90772679  0.33500296 -2.23397156
  H  0.57311585 -0.55010568  1.96892307
  H  1.80271253  0.59620539  3.74748941
  H  3.16095432  2.59269077  3.22685423
  H  3.21053057  3.45586007  0.91099307
  H  2.00756233  2.31075709 -0.86067217
  H  2.32003799 -2.83436178 -0.54421528
  H  2.84303836 -1.16165215 -0.33174325
  H  2.07912530 -2.01976254  1.01326494
  H -1.04666726 -3.42037708 -2.37377170
  H  0.03242079 -4.35831108 -1.34964331
  H  0.68171309 -3.08881780 -2.38397062
  H  0.32551706 -3.69332782  0.94438393
  H -0.67748235 -2.35476176  1.52404535
  H -1.41231147 -3.69139743  0.64700098
