37
opt_min/./Product_4347_opt.xyz
  C  1.55518300  1.31041300 -0.29340500
  C  0.35377312  0.82530937 -1.11931056
  C -0.08609822 -0.61379817 -0.77529132
  N  0.93486366 -1.42531863 -0.17760691
  C  0.61795622 -2.80983572  0.07331834
  C  2.23401949 -1.01790965 -0.14177751
  C  2.62795660  0.26414118 -0.23870607
  C  4.01437451  0.74770741 -0.27301802
  N  5.00786096 -0.18033441 -0.16586986
  O  4.28953869  1.92683225 -0.40638025
  N -1.27079423 -0.36949264  0.08716138
  C -2.26504982 -1.33256438  0.33468070
  N -3.23860587 -0.86343815  1.13503810
  C -4.40242671 -1.64785623  1.46326234
  O -2.21139860 -2.44886538 -0.12693963
  N -1.66351166  0.91455305  0.03922415
  C -0.84797242  1.61532216 -0.66125362
  C -1.03765172  3.04704291 -0.93036615
  C -2.18011656  3.69577028 -0.19567138
  O -0.31404763  3.64114137 -1.69697527
  H  1.22102333  1.52758552  0.72798925
  H  1.95416974  2.22978539 -0.72096108
  H  0.55550035  0.95500361 -2.18287717
  H -0.45496051 -1.14636601 -1.67268155
  H  1.53073871 -3.36041226  0.28881586
  H -0.05181210 -2.90562325  0.92828116
  H  0.12353054 -3.25828808 -0.79190372
  H  2.94041788 -1.82973022 -0.03846114
  H  4.84980329 -1.14565439  0.04668506
  H  5.95292503  0.16147543 -0.13967022
  H -3.20319952  0.10621552  1.40614027
  H -4.14534020 -2.69904608  1.34286393
  H -5.23971097 -1.41607652  0.79991995
  H -4.69494912 -1.45697414  2.49419237
  H -2.50579307  4.58448970 -0.72902992
  H -1.82408638  3.99597319  0.78863750
  H -2.99951415  2.99704361 -0.06540008
