54
opt_min/./Product_1912_opt.xyz
  C  0.14782400  4.01662500  1.52701800
  C -0.95683951  3.45146365  0.91519774
  C -0.85982601  2.22127103  0.28878351
  C  0.34632375  1.52560140  0.27033068
  C  0.51931531  0.19485129 -0.42842046
  C -0.69217054 -0.82187390 -0.45163473
  C -1.88050360 -0.54302418  0.43947794
  C -3.18239156 -0.77696269  0.01413939
  C -4.24384057 -0.59828295  0.88444293
  C -4.02031716 -0.20079381  2.19050945
  C -2.72290704 -0.00597607  2.63330464
  C -1.66072369 -0.18520659  1.76837970
  C -0.93125439 -1.02700301 -1.96032353
  C -1.48234882  0.26097374 -2.58463685
  C -0.25786239  1.19767054 -2.61366053
  C  0.83255391  0.35905873 -1.94458379
  C  0.50403685 -1.02938568 -2.49116863
  N -0.07950360 -2.03744108  0.10071277
  C -0.56669115 -3.29676790  0.10440229
  C  0.26491829 -4.27227543  0.90299486
  O -1.57613724 -3.58725280 -0.49907364
  O  0.98882722 -1.64274656  0.93317907
  N  1.58233081 -0.56724928  0.24831869
  C  2.90109603 -0.70925083 -0.15303827
  N  3.50447339 -1.82405848  0.33025421
  C  4.92497057 -2.02369917  0.18980316
  O  3.47219565  0.12542591 -0.82087628
  C  1.45483657  2.11305732  0.87121535
  C  1.35604142  3.34408166  1.49480233
  H  0.06978065  4.97561137  2.01717267
  H -1.90391712  3.96950643  0.91980515
  H -1.73933438  1.81073461 -0.17741239
  H -3.37219787 -1.11882510 -0.98995645
  H -5.25087074 -0.77821010  0.53863961
  H -4.85200231 -0.06144445  2.86471956
  H -2.53388529  0.28526963  3.65547401
  H -0.65296719 -0.03915978  2.12797967
  H -1.51499028 -1.92116579 -2.16258234
  H -1.83881665  0.04932792 -3.59235240
  H -2.31347304  0.67871944 -2.02078991
  H -0.43021244  2.14181865 -2.10139505
  H  0.03967781  1.42286464 -3.63643595
  H  1.84027696  0.72806427 -2.10723580
  H  0.55076371 -1.07140785 -3.57660637
  H  1.12235456 -1.82784042 -2.08400044
  H -0.12708456 -5.27323883  0.75434819
  H  0.20788248 -4.01376974  1.95837532
  H  1.30590870 -4.23143164  0.59191449
  H  3.00630063 -2.39740992  0.99148510
  H  5.45532834 -1.80430730  1.11999888
  H  5.12918202 -3.05291713 -0.10521523
  H  5.27555933 -1.34432434 -0.58448608
  H  2.40890035  1.61392174  0.83904656
  H  2.23236804  3.77814535  1.95302280
