38
opt_min/./Product_642_opt.xyz
  C -2.40531731  0.45741355  2.47218059
  O -2.46724880  0.39890344  1.05443122
  C -1.40740707  0.97121510  0.35115261
  C -0.21608609  0.01758901 -0.05964556
  C -0.18763728 -1.26600426  0.76212132
  C -0.91069759 -2.46877832  0.23729944
  O  0.36043080 -1.25598760  1.83652658
  C -0.40982730  0.01065941 -1.62143880
  C -1.72123413 -0.66905092 -1.94578597
  C -2.66440733  0.19911697 -1.60400613
  C -1.91574749  1.40007179 -1.08266240
  O -0.72257241  1.37747925 -1.83507680
  N  0.94657587  0.83606738  0.28687248
  C  2.26627619  0.44180810  0.13776834
  C  3.28075323  1.32159636  0.51517813
  C  4.60224571  0.95523900  0.36513135
  C  4.93207526 -0.28433353 -0.16093370
  C  3.92677019 -1.15780355 -0.53752447
  C  2.59852974 -0.80221134 -0.39521443
  N  0.64074082  1.97240928  0.86886006
  C -0.63551050  2.11527443  0.98403079
  C -1.25948923  3.24790574  1.50341714
  N -1.83702093  4.16228709  1.89145744
  H -1.46091439  0.06978774  2.85910864
  H -3.22596463 -0.16727611  2.81727397
  H -2.55477531  1.48065829  2.82749730
  H -0.76211430 -3.29613378  0.92706914
  H -1.97262572 -2.23811856  0.17096193
  H -0.55057980 -2.74309964 -0.74962364
  H  0.47199510 -0.27687600 -2.18808766
  H -1.81228369 -1.64892117 -2.36801599
  H -3.73047861  0.11471775 -1.62383056
  H -2.40863804  2.36654526 -1.11388168
  H  3.01092846  2.28096402  0.92526806
  H  5.38143610  1.64131400  0.66099150
  H  5.96664758 -0.56862424 -0.27448622
  H  4.17323895 -2.12654833 -0.94555460
  H  1.82851958 -1.50084614 -0.68579248
