30
opt_min/./Product_3349_opt.xyz
  C  2.38793406  0.70095547  1.24278267
  C  2.38505084 -0.57943795  2.01991999
  C  3.26195375 -0.58514129  3.23577913
  C  1.70694524 -1.66211565  1.64325356
  C  0.85183774 -1.82183889  0.46208232
  C -0.38935696 -1.37821124  0.27392127
  C -1.21642060 -0.51715075  1.19247980
  C -2.68818299 -0.55509718  0.75700346
  C -1.08051190 -0.82921454  2.70507407
  N -0.74385432  0.45186596  3.31080012
  N -0.57604248  1.31335399  2.44876078
  N -0.73186244  0.87411926  1.21232568
  C -0.77910111  1.77682770  0.10572068
  H  1.83020043  1.46982356  1.77539854
  H  1.94459841  0.56569353  0.25949600
  H  3.41160033  1.05269964  1.12424796
  H  3.05298114 -1.43913960  3.87400844
  H  4.31089792 -0.62402068  2.93969837
  H  3.10780575  0.32641072  3.80939402
  H  1.84764144 -2.58485587  2.19862240
  H  1.26482878 -2.49457844 -0.28521342
  H -0.90116571 -1.66806490 -0.63631355
  H -3.06213471 -1.57408898  0.82725518
  H -2.80506933 -0.21458931 -0.26987530
  H -3.28592584  0.08141844  1.40748676
  H -0.26213754 -1.52023776  2.91439121
  H -1.99416244 -1.22296814  3.14970468
  H -1.80773020  2.03744204 -0.16625252
  H -0.28554022  1.32883041 -0.75813614
  H -0.25076384  2.68372036  0.39140877
