43
opt_min/./Product_1030_opt.xyz
  C  4.25627600 -0.65579000  2.00809100
  N  3.15608219 -0.74914250  1.07540499
  C  1.94346762 -0.22409750  1.37425692
  O  1.74107230  0.36791696  2.41116352
  C  0.85010935 -0.56189966  0.36200486
  C -0.34256924  0.43512722  0.23305074
 Cl -0.15344605  1.94984201  1.19122727
  C -0.38552463  0.74771440 -1.26710047
  C  0.84566330  1.58529742 -1.64487193
  C  2.01185332  0.58570882 -1.52622418
  C  1.30910947 -0.71249302 -1.10258664
  C -0.00744196 -0.60275163 -1.87409035
  C -1.56361538 -0.32552364  0.87108370
  C -2.41272883  0.61851106  1.75823487
  C -3.22180697  1.67938468  1.06982596
  O -2.43351803  0.45766682  2.94697199
  C -2.47948887 -1.03800383 -0.12335915
  O -2.66540628 -2.22530271 -0.11910995
  O -3.08319453 -0.20436852 -0.97721984
  C -3.98039711 -0.80446683 -1.90602624
  N -0.96377369 -1.34775420  1.71370828
  C  0.17501649 -1.82523021  0.97372904
  H  5.19879414 -0.66656532  1.46515935
  H  4.15815408  0.27701680  2.56102787
  H  4.24229509 -1.48197055  2.72407797
  H  3.29100877 -1.30220495  0.24758852
  H -1.32271988  1.19399010 -1.58768642
  H  0.73619729  1.94458536 -2.66807060
  H  0.96733677  2.44795674 -0.99549351
  H  2.75477781  0.91039400 -0.80089009
  H  2.51377938  0.45131569 -2.48413206
  H  1.87348626 -1.62372013 -1.29788141
  H -0.70152147 -1.40864467 -1.64478779
  H  0.13445544 -0.55588949 -2.95030646
  H -4.22454897  1.28634761  0.91200295
  H -3.29950859  2.53838496  1.73207221
  H -2.80198156  1.97563342  0.11671231
  H -4.62720298 -1.52049405 -1.39692858
  H -4.56189839  0.00691665 -2.33493627
  H -3.42122871 -1.32455862 -2.68608228
  H -0.66076315 -0.86259279  2.55808930
  H -0.17726288 -2.50128465  0.19328308
  H  0.84108683 -2.38344679  1.63472658
