65
opt_min/./Product_2839_opt.xyz
  C  0.55604700 -3.12757100 -0.81084800
  C  0.56281748 -2.18433896  0.41002342
  C -0.35727593 -2.81689905  1.46693219
  C  0.09247218 -0.81970948 -0.04800126
  C  0.73787946  0.26441021 -0.49487104
  C  2.19494632  0.69000974 -0.55973613
  F  2.23294273  1.92588286 -1.22214090
  C  3.13997149 -0.14396517 -1.48012846
  F  2.64330104 -1.30214829 -1.90794203
  F  4.30485774 -0.44179142 -0.87528596
  F  3.47907227  0.53451631 -2.57478882
  C  2.78011431  1.04439334  0.82786672
  C  3.20571881 -0.05696312  1.79643623
  C  2.10661734 -1.06177504  2.12815439
  C  1.96749687 -2.13272921  1.03502768
  C -0.24476330  1.30940995 -1.02403011
  C -0.18162735  1.27221627 -2.56901639
  C -1.24874579  2.03425151 -3.31164859
  O  0.60592133  0.56590318 -3.14422753
  C -0.02824151  2.68343782 -0.35399600
  O -0.15587759  2.82218735  0.84206721
  N  0.24728522  3.70539394 -1.19371709
  C  0.57251893  5.01896842 -0.68665876
  N -1.55692553  0.75307862 -0.71700792
  C -2.59806442  1.62259887 -0.20977450
  C -1.40892802 -0.54298545 -0.05928994
  C -1.87021210 -0.44522926  1.42399151
  N -3.12623410 -0.84493275  1.68073657
  C -3.65821254 -0.83050671  3.02249506
  O -1.13793692  0.05120207  2.25063411
  C -2.15247511 -1.53821185 -0.95946418
  O -3.01907466 -2.31219835 -0.61616861
  O -1.74613693 -1.39061106 -2.20858956
  C -2.31757176 -2.23505502 -3.20129732
  H -0.43903140 -3.54172955 -0.95993215
  H  0.85865087 -2.61985450 -1.71946515
  H  1.24029111 -3.95396940 -0.63365078
  H -0.33094306 -2.25987266  2.39762577
  H -1.38619543 -2.89315967  1.12907855
  H -0.00409551 -3.82753057  1.66471081
  H  3.64483800  1.68410334  0.63238083
  H  2.01061154  1.65403026  1.30679920
  H  3.50709222  0.45239954  2.71393052
  H  4.08316202 -0.58278600  1.42273072
  H  1.16728274 -0.52809576  2.26506713
  H  2.35459676 -1.53580906  3.07784969
  H  2.71693640 -1.97932806  0.26495397
  H  2.17081885 -3.11794936  1.45873678
  H -0.85960800  2.32979895 -4.28387000
  H -2.07475104  1.34591464 -3.48232057
  H -1.61317750  2.89783938 -2.76799928
  H  0.57341704  3.49312641 -2.12331329
  H  0.35535845  5.02666288  0.37979870
  H -0.03661227  5.77180333 -1.18873299
  H  1.62756138  5.24710387 -0.84252813
  H -3.53353226  1.06142696 -0.20153115
  H -2.71490572  2.46747967 -0.88501800
  H -2.40231781  2.00339754  0.79819251
  H -3.61835587 -1.39286300  0.98794082
  H -4.65669829 -0.39375449  3.01836047
  H -2.99433729 -0.22489875  3.63662762
  H -3.70989256 -1.83994534  3.43682253
  H -3.32962942 -2.52655062 -2.91652504
  H -1.69940686 -3.12682706 -3.31632255
  H -2.32191622 -1.66945825 -4.13011926
