55
opt_min/./Product_5519_opt.xyz
  C  2.91040088 -2.32775811  0.49182307
  C  2.53291008 -1.05395281  1.18906227
  C  3.20828545 -0.85265386  2.51443396
  C  1.68242203 -0.15666573  0.70698684
  C  0.95066928 -0.26067329 -0.60687182
  C -0.25097787 -1.22933512 -0.45371262
  C -0.33462241 -2.42085298 -1.38566598
  C -1.28640819 -3.49092540 -0.93707569
  C  0.37851204 -2.57770261 -2.49041617
  C -1.51384892 -0.29323126 -0.56095751
  C -2.70566860 -0.50878716  0.41124961
  N -2.61535420 -1.52514260  1.29166023
  C -3.68930885 -1.82647733  2.20872565
  O -3.67839146  0.20892859  0.34412441
  C -2.17309363 -0.50303511 -1.84427244
  N -2.75146855 -0.72496785 -2.80456973
  N -1.02719540  1.07857724 -0.43831410
  C -1.10685489  1.57448627  0.92707941
  C  0.30441326  1.07519618 -1.06147232
  C  0.13698239  1.07167964 -2.59385600
  C  1.09073857  2.33935426 -0.79553115
  C  0.43004782  3.56489285 -0.84654174
  C  1.12543652  4.75119210 -0.70057260
  C  2.49716211  4.73469549 -0.52143555
  C  3.16626386  3.52445866 -0.50432869
  C  2.47182780  2.33565456 -0.64808191
  H  2.28948227 -2.52262813 -0.37718457
  H  2.81550808 -3.16791646  1.17913480
  H  3.95264762 -2.28349438  0.17584420
  H  2.96224497  0.11684660  2.93959349
  H  2.90353159 -1.62843406  3.21749055
  H  4.28917073 -0.92044429  2.39934014
  H  1.46848464  0.72318057  1.29612218
  H  1.64273758 -0.61110575 -1.37139272
  H -0.19512390 -1.62642305  0.56820744
  H -0.99876738 -3.87675651  0.04432604
  H -2.30239394 -3.10489386 -0.87320518
  H -1.28079996 -4.32033497 -1.64022821
  H  1.07338211 -1.85348382 -2.87574953
  H  0.27258205 -3.46190574 -3.09531549
  H -1.79133181 -2.10002499  1.34483547
  H -3.89958471 -2.89561612  2.19957767
  H -4.56927571 -1.27553891  1.88094111
  H -3.43413572 -1.51664382  3.22502276
  H -2.12236419  1.93036297  1.10620008
  H -0.42368392  2.40871742  1.05875638
  H -0.87043064  0.81014029  1.67918732
  H -0.27366835  0.13730551 -2.95744608
  H -0.52780568  1.87961327 -2.88713994
  H  1.10643699  1.23247913 -3.06266145
  H -0.63853887  3.58272217 -0.99873689
  H  0.59353295  5.69052909 -0.73511037
  H  3.04526205  5.65832496 -0.40777358
  H  4.23982148  3.50158331 -0.38522512
  H  3.01529642  1.40350234 -0.64647889
