45
opt_min/./Product_5412_opt.xyz
  C -1.73834900  0.17112100 -0.93532400
  C -1.25508535 -0.25081183  0.46539333
  C -0.11415735  0.64048599  0.98587728
  N -0.24771364  2.02316148  0.67185277
  C  0.60305160  2.97154545  1.34871788
  C -1.14625018  2.45449240 -0.23434175
  C -1.92975093  1.66053117 -0.99516053
  C -2.88485793  2.30310499 -1.89682525
  N -3.48620162  1.49282539 -2.82547937
  O -3.17995159  3.48332729 -1.82309114
  C  1.16376669 -0.12137727  0.45192570
  C  1.76127990  0.41957814 -0.85244796
  O  1.57204109  1.52216704 -1.28863359
  O  2.52145675 -0.50265110 -1.41753083
  C  3.17492179 -0.14250680 -2.62810762
  C  2.24636871 -0.10849769  1.53504023
  O  2.05696503 -0.49057038  2.65553757
  O  3.38119513  0.41574685  1.08599937
  C  4.47918060  0.47808811  1.99355765
  N  0.72906350 -1.48091700  0.26883914
  C -0.53232352 -1.57356415  0.32482651
  C -1.19397942 -2.90629396  0.13840101
  N -2.54128510 -2.88341005  0.27938300
  C -3.30675761 -4.10325227  0.15078803
  O -0.58412669 -3.91535696 -0.12879059
  H -2.66393850 -0.35952109 -1.16880697
  H -0.98272781 -0.13268745 -1.67125823
  H -2.08417623 -0.25314752  1.17415810
  H -0.07296299  0.53586067  2.08205817
  H  1.15140422  3.57171402  0.62110947
  H  0.01265045  3.63409301  1.98793871
  H  1.32189399  2.43799363  1.96681042
  H -1.25175596  3.52551316 -0.32449989
  H -4.03360133  1.96476419 -3.52586980
  H -3.08717315  0.60984709 -3.08908728
  H  2.49049213 -0.26754134 -3.46989904
  H  4.02189651 -0.81566004 -2.73269766
  H  3.50372618  0.89742947 -2.58624191
  H  5.37788814  0.27417685  1.41556366
  H  4.35129631 -0.26095421  2.78534350
  H  4.53102061  1.47847387  2.42644248
  H -3.02139773 -2.03976382  0.53732762
  H -4.36747033 -3.87161835  0.18256738
  H -3.06125590 -4.58851340 -0.79493968
  H -3.05795123 -4.79730416  0.95657710
