74
opt_min/./Product_2944_opt.xyz
  C  2.14994100 -3.29724900 -0.26547200
  C  1.39628872 -2.38766876 -1.24898808
  C  0.98934990 -1.05891498 -0.52475579
  C -0.08174258 -0.34664391 -0.06619081
  C -1.64505001 -0.51953558  0.11946410
  C -2.31433187  0.19936229 -1.05281211
  C -3.69012381  0.42262172 -1.06582024
  C -4.31565582  1.01864535 -2.14519227
  C -3.59169186  1.38583468 -3.26385655
  C -2.23401870  1.12542025 -3.29294593
  C -1.61103553  0.53569271 -2.20720693
  C -1.96184192 -0.03053247  1.54147765
  C -2.90808292  0.92246032  1.88044385
  C -3.23277401  1.14927682  3.20798444
  C -2.64028477  0.41769158  4.21817230
  C -1.68368335 -0.52803563  3.89490367
  C -1.34806934 -0.74117439  2.57428175
  C -2.45663149 -1.90159999  0.19837216
  C -2.36896477 -2.85492136 -1.01149191
  C -0.87376027 -2.72749265 -1.16359732
  C  0.29166517 -3.21964577 -1.97392683
  C  0.42457163  1.13660916  0.16018626
  C -0.46470513  2.33554933 -0.26337595
  N  0.24299379  3.31844420 -0.86340740
  C -0.37704615  4.55972482 -1.25710838
  O -1.63684477  2.46987259 -0.00797242
  C  0.74288127  1.65650102  1.60692921
  O  0.08137523  1.45574342  2.59461647
  N  1.81568184  2.47652261  1.60947335
  C  2.22663788  3.19588495  2.78659933
  N  1.69331365  1.19223972 -0.57128294
  C  2.24799346 -0.15352470 -0.40721640
  C  2.92670557 -0.30601468  0.95878762
  C  3.25105390 -0.32246480 -1.54736907
  O  3.09775332  0.18790122 -2.63248953
  O  4.32286973 -1.03065533 -1.19820611
  C  5.32113511 -1.23359771 -2.19263774
  H  1.60771376 -3.38223656  0.67406570
  H  3.14520882 -2.91919090 -0.05659658
  H  2.25959373 -4.29198836 -0.68686076
  H  2.10429478 -2.06491104 -2.01712110
  H -4.29633493  0.13603818 -0.22215142
  H -5.38197319  1.19012927 -2.10687499
  H -4.07981071  1.85895072 -4.10336745
  H -1.65119029  1.38170173 -4.16532950
  H -0.54970323  0.34652640 -2.28980180
  H -3.37328960  1.52606639  1.12128328
  H -3.96512096  1.90730324  3.44865148
  H -2.91132985  0.59114297  5.25003218
  H -1.19086902 -1.09416363  4.67256324
  H -0.57107518 -1.45789322  2.33920446
  H -2.10657379 -2.45893977  1.06661960
  H -3.48739005 -1.62268593  0.40843714
  H -2.91096649 -2.48168798 -1.88007556
  H -2.74575876 -3.84141995 -0.74480271
  H -0.51220935 -2.87073624 -0.14670862
  H -0.83256667 -1.68785570 -1.44285977
  H  0.21754697 -2.95718011 -3.02951806
  H  0.49775564 -4.28486871 -1.89038199
  H  1.22698142  3.20774822 -1.03518307
  H  0.23617387  5.40225195 -0.93825309
  H -0.50851027  4.60499345 -2.34084198
  H -1.35366669  4.60951898 -0.78013197
  H  2.35452734  2.55853266  0.76214390
  H  2.16430796  4.27378621  2.62195291
  H  1.54766692  2.91871231  3.59134749
  H  3.24931827  2.93380777  3.06431879
  H  1.50195143  1.26138412 -1.57535887
  H  3.74737336  0.39825915  1.05067533
  H  3.31437896 -1.30846702  1.08044270
  H  2.20957458 -0.11827398  1.75098325
  H  5.16112705 -2.20051840 -2.67130772
  H  6.28142423 -1.22402768 -1.68308496
  H  5.26740620 -0.44363815 -2.94247160
