52
opt_min/./Product_2266_opt.xyz
  C -0.42172800 -2.64836400 -0.36455700
  C  0.04665399 -1.24157225  0.00371619
  C  1.55500295 -0.88000303 -0.21545604
 Br  2.70899152 -2.38683509 -0.71124069
  C  1.97281256 -0.42023838  1.24348875
  C  2.12567713 -1.71588679  2.01188211
  C  0.88235575 -2.15089636  2.15425996
  C -0.00378546 -1.06581219  1.56159882
  O  0.77430127  0.09635572  1.76644030
  C  1.55554950  0.24372835 -1.27252251
  C  2.77233403  1.18055557 -1.37389901
  N  3.94201627  0.70107757 -0.89818474
  C  5.17408920  1.43434168 -1.08576095
  O  2.67984525  2.26773172 -1.89985414
  C  1.47409412 -0.34038788 -2.69750986
  N  0.34503491  0.98359032 -0.94588126
  C  0.50503162  2.11953522 -0.05034314
  C -0.68831314 -0.02509008 -0.71881303
  C -1.40641361 -0.31426665 -2.06685577
  C -1.41910332  0.82043601 -3.05803742
  O -2.04926113 -1.31607387 -2.27683282
  C -1.96967281  0.45099102 -0.04158126
  C -2.42673041  1.75930637 -0.19328530
  C -3.63093273  2.15988459  0.35743932
  C -4.42856823  1.25758773  1.03826769
  C -4.02621507 -0.06352457  1.11901517
  C -2.82228803 -0.46580785  0.56852803
  H -0.98458526 -2.66533812 -1.29098528
  H -1.06471244 -3.04352160  0.41988946
  H  0.41009519 -3.33970656 -0.46746344
  H  2.77589421  0.31021086  1.28150758
  H  3.05568005 -2.15224881  2.31578255
  H  0.52232174 -3.07962114  2.54938605
  H -0.98344246 -0.97367837  2.01649332
  H  4.03397307 -0.26602301 -0.62934549
  H  5.84960069  1.22222665 -0.25937605
  H  5.65789783  1.16494582 -2.02797006
  H  4.93525771  2.49613721 -1.11030417
  H  2.42605140 -0.79491571 -2.96710320
  H  0.69710809 -1.09543440 -2.78266129
  H  1.28111076  0.46970669 -3.39411581
  H -0.22939034  2.10388516  0.74980874
  H  1.48936468  2.13549252  0.41692913
  H  0.40754427  3.04391021 -0.62722585
  H -2.45391393  1.12505375 -3.20482191
  H -0.81303539  1.65894028 -2.73923012
  H -1.06026470  0.44329229 -4.01358893
  H -1.85675255  2.47667658 -0.75829300
  H -3.95242389  3.18323120  0.23245165
  H -5.36829083  1.57028108  1.46713275
  H -4.65689756 -0.79546578  1.60136129
  H -2.57911751 -1.51466407  0.58261080
