79
opt_min/./Product_3174_opt.xyz
  C  1.68493200  0.80516400  4.35414000
  O  1.70572736  0.28781913  3.03004971
  C  2.41103211  0.94916410  2.11419119
  O  3.07999406  1.91653053  2.34031096
  C  2.31390770  0.19093950  0.77120031
  C  2.97165660  0.99237543 -0.35829224
  O  3.14528147  2.18288689 -0.34774778
  O  3.31218243  0.19079333 -1.35482274
  C  3.81725970  0.79045726 -2.54258665
  C  0.78607345  0.20587544  0.43597498
  C -0.19112753 -0.66647036  0.10232497
  C -0.07299150 -2.15614585 -0.21550384
  F -0.75611834 -2.91534374  0.72043590
  C -0.47449523 -2.55668108 -1.63741805
  C -0.96753984 -3.97054325 -1.79381324
  O -0.25009105 -1.83613929 -2.57387745
  C  1.43372662 -2.25997018 -0.06313228
  C  2.57034604 -3.24828441 -0.05650082
  C  3.70682585 -2.24648823  0.29182606
  C  3.29725838 -1.01580489  1.15803386
  C -1.55991302 -0.01765093  0.13014059
  C -2.25529987 -0.27196635  1.47270276
  C -3.60890358  0.02646498  1.59652823
  C -4.25308515 -0.09507064  2.81364813
  C -3.55520413 -0.52109131  3.93011719
  C -2.21013248 -0.82005424  3.81561588
  C -1.56241232 -0.69103716  2.59943631
  C -2.41184068 -0.48104154 -1.03462479
  C -3.18965114 -1.62658949 -0.92115915
  C -3.92828784 -2.07761917 -2.00194533
  C -3.88844937 -1.39769078 -3.20570350
  C -3.09870550 -0.26642761 -3.32802166
  C -2.35989814  0.18599819 -2.25118735
  N -1.20825169  1.38701979  0.02550548
  C -2.18626413  2.42185215  0.19747660
  C  0.19182024  1.62313759  0.34310006
  C  0.62208889  2.22436142 -1.00745075
  O  0.46720061  3.54429632 -1.07972295
  C  0.69936147  4.14783952 -2.34809452
  O  0.88184965  1.53655902 -1.96277927
  C  0.28133181  2.47429073  1.62733696
  C  0.98623713  3.79321658  1.58302783
  O -0.29279958  2.08124002  2.61498759
  H  0.66898031  0.68112573  4.72208745
  H  2.39161155  0.24380869  4.96849791
  H  1.95890724  1.86029423  4.34727631
  H  4.27223021  1.75491187 -2.31163814
  H  4.55242665  0.10441395 -2.95872564
  H  2.98626141  0.92519262 -3.23617383
  H -1.33458782 -4.38856747 -0.86328206
  H -1.74685317 -3.99210237 -2.55141032
  H -0.13366574 -4.57304671 -2.15323349
  H  1.48485652 -1.88979945  0.95351688
  H  1.77077714 -1.51298909 -0.78245375
  H  2.76205031 -3.69101039 -1.03499981
  H  2.46860353 -4.05866130  0.66444611
  H  4.16520145 -1.90531361 -0.63430167
  H  4.48155573 -2.74621058  0.87773813
  H  4.23614087 -0.48911860  1.36634059
  H  2.95256017 -1.41499145  2.11549076
  H -4.17084922  0.34440449  0.73030604
  H -5.30386523  0.14519576  2.88808283
  H -4.05691663 -0.61821638  4.88200439
  H -1.65589575 -1.15565633  4.68042327
  H -0.50967270 -0.91432604  2.54378270
  H -3.22035529 -2.16716439  0.01344271
  H -4.53069203 -2.96934015 -1.90086969
  H -4.46127549 -1.75336668 -4.04986828
  H -3.05010869  0.25832358 -4.27032044
  H -1.71537702  1.04330751 -2.35548818
  H -2.46636428  2.58617553  1.24825234
  H -1.79028244  3.35448948 -0.20708353
  H -3.07903135  2.15206456 -0.36536960
  H -0.22914776  4.17211280 -2.92217661
  H  1.05005857  5.15832885 -2.15054330
  H  1.44974069  3.57975453 -2.89869853
  H  0.38670304  4.50254842  1.01873216
  H  1.95333399  3.69200246  1.09701260
  H  1.11089872  4.16071647  2.59948828
