56
opt_min/./Product_2214_opt.xyz
  N  2.15674457  2.50680581  3.11618177
  C  1.93978876  2.21269132  2.03433051
  C  1.58231164  2.01649896  0.62762001
  C  2.82511070  2.00831627 -0.12030068
  N  3.77917376  2.03295844 -0.74907916
  C  0.82466902  0.70906767  0.48921796
  C -0.31757797  0.39603499 -0.13953981
  C -1.13954357  0.99984183 -1.23435164
  C -0.43427547  1.92474037 -2.23297170
  C -0.47264948  3.40223676 -1.84063257
  C  0.78960702  3.82324414 -1.10330688
  C  0.78470876  3.32642664  0.34376888
  C -0.88126321 -0.87938072  0.48978225
  C -1.11541428 -2.03382020 -0.49547500
  O -0.33081169 -2.94611785 -0.62091621
  N -2.26623948 -1.95383676 -1.20485108
  C -2.64323938 -3.01780947 -2.11412315
  C -2.17412219 -0.51373230  1.26858107
  O -2.54457360  0.62702947  1.43967443
  N -2.81112656 -1.59305586  1.76118408
  C -3.93946993 -1.48018674  2.65724821
  N  0.08284516 -1.21916499  1.53171290
  C  1.31983900 -0.52415163  1.22874386
  C  2.17457603 -1.49616396  0.31762821
  N  2.61300186 -1.01277770 -0.84872670
  C  3.39681976 -1.82333426 -1.75306052
  O  2.37911478 -2.61853076  0.71692467
  C  2.27823431 -0.33868115  2.41023534
  C  1.75351465 -0.66000742  3.77392601
  O  3.41513237  0.00233032  2.18815819
  H -2.01301065  1.49352268 -0.79940594
  H -1.51120730  0.14851575 -1.81265128
  H -0.93146064  1.80714592 -3.19867960
  H  0.59545508  1.59188811 -2.37148443
  H -0.60130323  4.02511135 -2.72879799
  H -1.33811843  3.58365835 -1.20382870
  H  0.86879626  4.91331517 -1.10735000
  H  1.67301463  3.45092944 -1.62471250
  H -0.23954173  3.15208676  0.68436086
  H  1.18993041  4.10349936  0.99688824
  H -2.96203938 -1.26894412 -0.95819453
  H -3.62195802 -2.80270127 -2.53189558
  H -1.91021295 -3.09576137 -2.91824697
  H -2.66326533 -3.97501390 -1.58755468
  H -2.38917007 -2.50356883  1.66403977
  H -4.25911651 -0.43956268  2.64771421
  H -4.75238714 -2.12132323  2.31459632
  H -3.66625294 -1.76093353  3.67596313
  H  0.23976688 -2.21926167  1.63847353
  H  2.39008680 -0.07366348 -1.13244180
  H  3.97076838 -2.53812472 -1.16537197
  H  2.74657520 -2.37705389 -2.43525404
  H  4.07032251 -1.18223597 -2.31699074
  H  2.36305771 -1.44980528  4.20846266
  H  0.71103780 -0.95678507  3.73988603
  H  1.87086780  0.22928536  4.39204203
