61
opt_min/./Product_2621_opt.xyz
  C -2.71248500 -0.45633700 -2.02592500
  C -2.40855789 -0.32937102 -0.51188921
  C -3.20821394  0.88404196  0.00989415
  C -0.91029902 -0.04018779 -0.34702406
  C  0.21545555 -0.72423655 -0.03350064
  C  0.50928670 -2.04739310  0.62057563
  C  1.75937412 -2.71504495  0.04209916
 Br  0.94903075 -1.60737825  2.58164186
  C -0.59843864 -3.08072102  0.75985219
  C -1.37229116 -3.31636790 -0.53792173
  C -2.82923981 -2.93419902 -0.31681533
  C -3.00690453 -1.52659695  0.25169927
  C  1.45686653  0.07714931 -0.44082122
  C  2.00963665 -0.27364617 -1.83498067
  C  1.04723994 -0.79477278 -2.88078102
  O  3.12504730  0.07785501 -2.15448314
  C  2.52608954  0.31348846  0.61104211
  C  3.79622880 -0.23928624  0.53761563
  C  4.74001913  0.05809433  1.50794773
  C  4.43175982  0.90969342  2.55095419
  C  3.17137226  1.47957528  2.61947479
  C  2.22990985  1.19102633  1.65041618
  N  0.89937593  1.34874843 -0.86667319
  C  1.65304782  2.50575581 -1.24663786
  C -0.52702309  1.36109865 -0.81610475
  C -0.89248954  2.46369451  0.19075602
  O -1.27961700  3.56532002 -0.46203084
  C -1.52901205  4.73981393  0.30325637
  O -0.73765476  2.39638942  1.37932724
  H -3.71265804 -0.08171208 -2.23192995
  H -2.02098637  0.11551682 -2.63576501
  H -2.67274429 -1.48612224 -2.36330090
  H -3.02947761  1.77477315 -0.58285608
  H -2.95931069  1.08496177  1.04930458
  H -4.27491177  0.67283284 -0.04453848
  H  1.72387408 -3.78855397  0.21232278
  H  1.81915760 -2.53772019 -1.02689443
  H  2.66168560 -2.33273857  0.50560105
  H -0.14480419 -4.00662623  1.11951816
  H -1.29674973 -2.77330838  1.53276948
  H -1.30977090 -4.36225533 -0.84214387
  H -0.93922775 -2.71771795 -1.33996153
  H -3.39556061 -3.04392256 -1.24247011
  H -3.26341899 -3.63459324  0.40040852
  H -2.64061090 -1.47630419  1.27586231
  H -4.08485875 -1.36146541  0.30610459
  H  1.07268960 -0.13384113 -3.74475193
  H  0.03727785 -0.89160575 -2.50696440
  H  1.40184312 -1.76970708 -3.21531824
  H  4.07912435 -0.87632892 -0.28611734
  H  5.72379644 -0.38296287  1.43796639
  H  5.17214460  1.13437605  3.30492509
  H  2.91575865  2.14772241  3.42786182
  H  1.24572291  1.62453545  1.71804466
  H  1.16143745  2.99637354 -2.09075913
  H  2.65298525  2.19578396 -1.55379659
  H  1.75385885  3.22371435 -0.42424533
  H -0.96571808  1.64521888 -1.78577239
  H -1.37998760  4.52920182  1.36358247
  H -2.55730487  5.05279104  0.12269405
  H -0.84081870  5.51760826 -0.02730864
