42
opt_min/./Product_4412_opt.xyz
  C  4.94544500  0.51712800  2.25950700
  C  3.89737110  0.69681810  1.20967607
  C  4.09981464  1.87074518  0.29253879
  C  2.86463853 -0.14563919  1.10417747
  C  1.81083388 -0.05847040  0.12329650
  C  0.80769740 -0.93285155  0.04376340
  C -0.28509878 -0.86594018 -0.97937630
  C  0.25843909 -1.20673987 -2.36952058
  C -1.01813459  0.50139637 -1.02279034
  C -2.47169868  0.07501189 -0.75142063
  C -3.56785271  1.09143909 -1.07182429
  N -3.67203966  2.03238395 -0.11725361
  C -4.65842247  3.08331156 -0.17750781
  O -4.22338458  1.04709667 -2.08763838
  N -2.53243705 -1.18255910 -1.41598528
  C -1.47975512 -1.82480317 -0.64096044
  C -1.27492472 -3.30427852 -0.85133798
  C -1.86755830 -1.42561479  0.79291878
  O -1.66467397 -2.00447724  1.81951016
  O -2.51151458 -0.24901900  0.68752713
  H  5.93124606  0.42444999  1.80079957
  H  4.75433884 -0.36084697  2.87273535
  H  4.97628993  1.39215845  2.91366682
  H  4.94686353  2.46925033  0.62134133
  H  3.21591878  2.50763528  0.26611193
  H  4.29609108  1.52808949 -0.72465326
  H  2.78489428 -0.97374571  1.79730170
  H  1.85026154  0.76612286 -0.57703365
  H  0.75315301 -1.75731463  0.74132005
  H  1.00659652 -0.47366474 -2.66304743
  H  0.72503155 -2.18988712 -2.36254521
  H -0.55563684 -1.20796591 -3.09171767
  H -0.94172137  0.96995051 -2.00258876
  H -0.66363482  1.19066927 -0.25673185
  H -3.16414499  1.90100514  0.74513249
  H -4.18535553  4.04630443 -0.39184427
  H -5.19912465  3.15522508  0.76651484
  H -5.35410707  2.85006756 -0.98525259
  H -3.43968202 -1.63755031 -1.39599522
  H -1.99106845 -3.86607700 -0.25288020
  H -1.40383608 -3.55056093 -1.90164269
  H -0.27533934 -3.58933410 -0.53042839
