39
opt_min/./Product_3824_opt.xyz
  C -2.24751500  2.77600000 -0.38494100
  C -1.37985822  1.76005053  0.29333220
  C -1.41118227  1.81778636  1.79296125
  C -0.70427838  0.86116424 -0.41626545
  C  0.17842072 -0.23894668  0.08724809
  C -0.41423314 -1.63931210 -0.26055381
  C -0.61694022 -2.48818394  0.97428424
  C -1.76028760 -2.06081539  1.84692642
  C  0.15558544 -3.52535073  1.24049249
  N  0.49544168 -2.25783216 -1.20464375
  C -0.07378692 -2.57486489 -2.49898509
  N  1.71224134 -1.51498726 -1.23980506
  N  1.44482476 -0.25310247 -0.60387524
  C  2.35404847  0.74969169 -0.77766666
  O  3.29478864  0.63242960 -1.54165664
  N  2.12751962  1.87225831 -0.03107295
  C  2.97695047  3.02775088 -0.17331186
  H -3.29825780  2.56874285 -0.17752050
  H -2.03524205  3.77745919 -0.01219367
  H -2.10136716  2.76850764 -1.46210896
  H -0.50807424  1.40499147  2.23811413
  H -1.52237098  2.84811759  2.12706723
  H -2.26233090  1.25227948  2.17358822
  H -0.75983129  0.90358972 -1.49800432
  H  0.34505899 -0.16593834  1.16896971
  H -1.39558854 -1.49594998 -0.73828293
  H -2.02876465 -2.85215837  2.54204256
  H -1.48286411 -1.18122709  2.42765764
  H -2.63104876 -1.80103223  1.24746518
  H  0.97490823 -3.78492065  0.59473939
  H -0.00043455 -4.13563293  2.11439853
  H  0.70813682 -2.58861681 -3.25666547
  H -0.51527235 -3.57025560 -2.44603743
  H -0.85294414 -1.86400185 -2.81585238
  H  1.95580038 -1.29641291 -2.21622708
  H  1.28614463  1.96552920  0.51014021
  H  3.01023072  3.57905608  0.76477710
  H  3.97719942  2.68343897 -0.43432041
  H  2.62799776  3.69376154 -0.97094990
