39
opt_min/./Product_4666_opt.xyz
  C -0.18150800 -0.22045300 -1.04756300
  O  0.63676229 -0.35429126 -1.93206231
  C  0.26710055  0.18351292  0.36509584
  O  0.61054245 -0.93310782  1.13058272
  C  1.56169649 -1.83306218  0.59217387
  C -0.83238646  0.96301383  1.12928301
  O -0.37053343  1.01955603  2.46074637
  C -0.98516833  1.92555999  3.35700572
  C -2.20047649  0.31291145  1.01016156
  O -2.98579127  0.26278363  1.92752654
  C -2.53949587 -0.24402972 -0.32021960
  C -3.98382115 -0.56226434 -0.53701507
  C -1.60867632 -0.50393033 -1.26180081
  C -1.96886733 -1.09722477 -2.58547879
  C -0.71791290  2.31089384  0.40192851
  O  0.66641969  2.53005729  0.29317080
  C  1.35808226  1.29443540  0.26177173
  C  2.23368675  1.25622757 -0.99650057
  O  2.11063899  1.99806821 -1.92767666
  O  3.23173250  0.37603017 -0.86156732
  C  4.08993851  0.23798624 -1.98812659
  H  1.70391674 -2.57853453  1.37494184
  H  2.50364178 -1.32531639  0.37580182
  H  1.19179904 -2.31910303 -0.31624504
  H -0.53238574  1.69081379  4.31987707
  H -0.76571062  2.96664590  3.09770554
  H -2.06439922  1.77581283  3.41050447
  H -4.32363900 -0.18220548 -1.49927097
  H -4.58162994 -0.13723810  0.26619248
  H -4.12192691 -1.64535374 -0.53502300
  H -1.07382803 -1.19902130 -3.19496680
  H -2.68184009 -0.46207415 -3.11143426
  H -2.43049171 -2.07532257 -2.44847472
  H -1.14702033  3.14717920  0.95583515
  H -1.19737768  2.24886138 -0.58845226
  H  2.02147282  1.22022038  1.13413070
  H  3.49921971 -0.05435175 -2.85849521
  H  4.80985851 -0.53274506 -1.72766271
  H  4.58765766  1.18786282 -2.20012775
