53
opt_min/./Product_2463_opt.xyz
  C  3.15887113 -1.14945393 -2.87343830
  O  2.85385050 -0.57495699 -1.60872104
  C  1.81035238 -1.09498551 -0.97444384
  O  1.23108193 -2.09655467 -1.30389308
  C  1.52021488 -0.41412221  0.37792770
  O  2.14183352  0.82366754  0.59989076
  C  3.52574051  0.78231161  0.87678097
  C  0.01309939 -0.19337144  0.53023692
  C -0.89761138 -0.85103326  1.28297506
  C -0.84777708 -1.84528196  2.46347768
 Cl -2.53410815 -2.42470468  2.77818262
 Cl -0.49351883 -0.79625061  3.90116034
  C -0.01004925 -3.16829871  2.57611394
  C  1.49218623 -3.19884086  2.99590913
  C  2.50914276 -2.60179416  1.98342811
  C  1.63213439 -1.48338618  1.46933071
  C -2.27282683 -0.29476791  0.95721106
  C -3.09846565 -1.35559126  0.17894840
  N -4.33832686 -0.91932736 -0.11701249
  C -5.26183153 -1.69897367 -0.90500842
  O -2.66172020 -2.42956110 -0.15636707
  N -2.05195333  0.81222648  0.03100937
  C -0.61399862  1.00730486 -0.13818834
  C -0.17648957  2.18830811  0.59506671
  N -0.00173672  3.15632969  1.17913555
  C -0.27418913  1.22138672 -1.63240780
  O  0.45916354  0.50536824 -2.27026981
  N -0.89108369  2.29928141 -2.14762628
  C -0.72061927  2.67490337 -3.53324787
  H  4.18002405 -0.85833710 -3.10857930
  H  2.46182362 -0.75989087 -3.61625045
  H  3.06275180 -2.23582987 -2.82545134
  H  3.75756708 -0.00939723  1.59370750
  H  3.76533358  1.74992359  1.31533566
  H  4.11049488  0.63167202 -0.03304474
  H -0.51375633 -3.73650561  3.36400882
  H -0.16086420 -3.71521025  1.64135797
  H  1.72817347 -4.24653306  3.19081039
  H  1.58497534 -2.65950111  3.93962678
  H  2.75428949 -3.32160291  1.20259827
  H  3.42490135 -2.30198462  2.49306432
  H  1.34510476 -0.92988637  2.36235545
  H  0.83187486 -2.09603255  1.07944149
  H -2.81114270  0.01479289  1.86313448
  H -4.62343202  0.00518386  0.16056222
  H -4.74399173 -2.60796992 -1.20626914
  H -5.57563684 -1.14609806 -1.79137482
  H -6.14232645 -1.96571430 -0.31594874
  H -2.53689843  1.65999553  0.30191501
  H -1.45759238  2.88942660 -1.56137032
  H -0.89553529  3.74174695 -3.64662569
  H  0.29787779  2.43408483 -3.83794626
  H -1.41189094  2.12110612 -4.17265258
