24
opt_min/./Product_3436_opt.xyz
  C -0.79326200  0.78036600  0.60140900
  O  0.21286518  1.33893908  0.96676174
  C -2.10921883  1.13603365  1.16103364
  C -3.22047507  0.42499653  0.96204421
  C -3.26488867 -0.72765883  0.04666377
  O -4.28916946 -1.12786290 -0.45295704
  C -1.92028795 -1.32514842 -0.27263082
  C -0.77061673 -0.32264185 -0.46219728
  C  0.42707324 -1.27827980 -0.18971464
  C  1.74808464 -0.67940820  0.33540621
  N  2.29834929  0.19353022 -0.53614196
  C  3.51341860  0.90331797 -0.20489568
  O  2.27536984 -1.04601728  1.35273891
  N -0.15217966 -2.23149653  0.73942824
  N -1.35885284 -2.25311117  0.73225475
  H -2.10258204  2.00249110  1.80945678
  H -4.16358293  0.71747244  1.40263415
  H -2.04318011 -1.95754504 -1.16661208
  H -0.77852086  0.14468639 -1.44707497
  H  0.66113488 -1.86082772 -1.09287401
  H  1.80616808  0.46683607 -1.36977993
  H  3.29949518  1.75641546  0.44363951
  H  3.99408530  1.24849840 -1.11712182
  H  4.17316772  0.22125177  0.32994424
