44
opt_min/./Product_1853_opt.xyz
  C  2.12282100 -1.71667800 -2.32924300
  C  2.27308817 -0.54600706 -1.39667629
  O  3.00643936  0.37671782 -1.62988528
  C  1.49436172 -0.67481079 -0.07640423
 Cl  2.29890348 -2.14806830  0.59949572
  C -0.04414713 -0.87660825 -0.23322776
 Cl -0.47466880 -2.60444519  0.04210267
  C -0.67490375 -0.53699850 -1.60778846
  C -0.16719204  0.65358034 -2.36669922
  O -1.57172329 -1.21708789 -2.02878613
  C -0.64644713  0.02280940  0.89002718
  C -1.69894296 -0.68072430  1.83079724
  N -2.74355923 -1.22135428  1.18276844
  C -3.79657601 -1.89697665  1.90699486
  O -1.55611127 -0.67119189  3.02278125
  C -1.38332720  1.26922998  0.35925169
  O -1.07689918  2.39541604  0.63060145
  O -2.43420932  0.93160634 -0.39615282
  C -3.27342558  1.98579745 -0.86741674
  O  0.41228863  0.42054812  1.70577802
  C  1.64058422  0.45006196  0.99735309
  C  1.90364689  1.86894678  0.48661770
  C  2.73718036  0.06057083  2.04104300
  C  4.14868082  0.40912488  1.65855048
  O  2.44415626 -0.46092988  3.07587347
  H  1.16659112 -2.21935506 -2.22582605
  H  2.27780194 -1.38304451 -3.35324621
  H  2.90926908 -2.43480348 -2.10143510
  H  0.50545409  0.31014000 -3.15114095
  H -1.01328982  1.12792118 -2.86205065
  H  0.35769968  1.37386228 -1.75192623
  H -2.79554688 -1.21314247  0.17576510
  H -4.63745411 -1.22359915  2.09057101
  H -4.14072572 -2.75665277  1.33617045
  H -3.39777530 -2.22366966  2.86673655
  H -3.57062609  1.72655028 -1.88168282
  H -2.73201474  2.93241045 -0.84643779
  H -4.15257465  2.05048161 -0.22568142
  H  1.80905033  2.53349381  1.34260542
  H  2.88356974  1.97118085  0.03806559
  H  1.15656627  2.17789861 -0.23589184
  H  4.30553489  1.47168192  1.82942491
  H  4.83195011 -0.14694671  2.29601433
  H  4.34830001  0.18989450  0.61300233
