49
opt_min/./Product_2228_opt.xyz
  F  1.34417900 -1.82659000  2.52907700
  C  1.96996483 -1.49919565  1.41633058
  C  3.05720896 -0.75085846  1.22500913
  C  4.02397344 -0.20391741  2.21387758
  F  4.95749123 -1.12450750  2.53625801
  F  3.45888416  0.18458456  3.35622760
  F  4.70991691  0.84266454  1.72340782
  C  3.20279328 -0.73986189 -0.29600067
  C  2.04139378  0.18505927 -0.79204072
  C  0.83259364 -0.76811436 -0.70286292
  C  1.50466138 -1.95741519  0.04814418
  O  2.74290435 -2.02542188 -0.64468783
  C -0.25774107  0.06664514  0.02719499
  C -1.18490945  0.66996174 -1.03828554
  C -1.00729850  1.96201194 -1.51270099
  C -1.83612130  2.46892584 -2.49987274
  C -2.84847807  1.69111613 -3.03046883
  C -3.03117725  0.40165403 -2.56203880
  C -2.20781305 -0.10426840 -1.57277116
  C -1.08835789 -0.66925430  1.05418720
  C -1.51502796  0.02592736  2.17842196
  C -2.28685282 -0.60397653  3.13743023
  C -2.64903288 -1.93011175  2.97890192
  C -2.23846595 -2.62274587  1.85418792
  C -1.46114653 -1.99770459  0.89423206
  N  0.46118643  1.14729741  0.65486991
  C  1.63322630  1.26285308  0.19942604
  C  2.50856175  2.39894748  0.63929768
  N  3.58862804  2.59629260 -0.15466065
  C  4.53241317  3.65619508  0.11021571
  O  2.26012802  3.07229023  1.61389707
  H  4.19308859 -0.55718814 -0.70002432
  H  2.20862929  0.58896787 -1.79153166
  H  0.51247525 -1.15055451 -1.67054806
  H  0.98367871 -2.90821142  0.04176147
  H -0.23465012  2.59246357 -1.10076502
  H -1.68537989  3.47915400 -2.85030451
  H -3.49425712  2.08711394 -3.79985978
  H -3.82020210 -0.21592819 -2.96465679
  H -2.37006445 -1.10788875 -1.21246735
  H -1.21939231  1.05592656  2.29595912
  H -2.60393212 -0.05652645  4.01202860
  H -3.25189041 -2.42393497  3.72638384
  H -2.52322013 -3.65577948  1.71763577
  H -1.16389317 -2.55063289  0.01523798
  H  3.74887212  2.01977177 -0.96321682
  H  5.54412069  3.30660397 -0.08628908
  H  4.43642038  3.92501673  1.16095362
  H  4.32478472  4.53582995 -0.50332569
