39
opt_min/./Product_4916_opt.xyz
  C  1.01065904  1.40199901 -0.16091366
  C  0.00359763  0.44256018  0.47148523
  C  0.44896119 -1.03427487  0.62090668
  N  1.74424052 -1.35072222  0.09473990
  C  2.12571290 -2.73955113  0.17235416
  C  2.70473179 -0.37585861  0.03516683
  C  2.43367551  0.93615502 -0.03267435
  C  3.44036738  2.01460353 -0.00970807
  N  4.73599065  1.66433273 -0.23428036
  O  3.14109156  3.17254211  0.21566245
  C -0.71584668 -1.76238115 -0.13596860
  C -0.87284297 -3.16863706  0.14120124
  N -1.00338701 -4.27314953  0.40125021
  O -0.49492382 -1.52820010 -1.54532598
  C -0.82498563 -0.23622802 -1.74866879
  O -0.73911602  0.31797235 -2.79508312
  C -1.30028823  0.27665827 -0.37012954
  C -2.14656068  1.52700358 -0.36774908
  O -2.97914553  1.54233090  0.67441256
  C -3.78442741  2.70991867  0.80513598
  O -2.04942311  2.40766097 -1.17148634
  N -1.84587489 -0.93966749  0.23133018
  C -3.13817844 -1.38376108 -0.25772417
  H  0.79125424  1.52433304 -1.22595714
  H  0.92732916  2.39411214  0.28630280
  H -0.29243627  0.80569348  1.45836725
  H  0.38515607 -1.33847369  1.67947396
  H  1.63450125 -3.30939002 -0.62014553
  H  1.84626436 -3.17710002  1.13688375
  H  3.20169081 -2.83487769  0.04473679
  H  3.71482877 -0.75845021  0.06005982
  H  5.40888904  2.41156449 -0.26916575
  H  5.01351158  0.75833997 -0.55962653
  H -4.48966261  2.50261098  1.60552980
  H -3.16092054  3.57007047  1.05466857
  H -4.30793030  2.91609055 -0.13006095
  H -3.37970615 -2.32664484  0.23136754
  H -3.16689388 -1.52563236 -1.34525899
  H -3.87786275 -0.64031423  0.02736295
