43
opt_min/./Product_4934_opt.xyz
  C -1.85092700  0.54719200  0.50295800
  C -0.64923128  0.68880028 -0.42892432
  C  0.12553414 -0.63551478 -0.58176714
  N -0.70372933 -1.80338978 -0.62964787
  C -0.13474231 -3.02781736 -1.13963626
  C -2.03420766 -1.74516807 -0.36730605
  C -2.66032788 -0.66246258  0.13254883
  C -4.09772287 -0.57489234  0.39891990
  N -4.87324981 -1.66809300  0.05435115
  O -4.60417589  0.38603852  0.94911715
  C  1.12304383 -0.58160811  0.62461021
  C  2.52806948 -0.92612562  0.19414942
  C  3.01759877 -2.21352006  0.36242371
  C  4.29356745 -2.53355933 -0.06893007
  C  5.08963977 -1.56614257 -0.65749095
  C  4.60806836 -0.27713633 -0.81848231
  C  3.33017985  0.04088716 -0.39589856
  O  1.02711055  0.73457677  1.13109711
  N  0.39806332  1.52383592  0.12779687
  C  0.37120679  2.88221217  0.39598938
  N -0.57619304  3.57266412 -0.29740870
  C -0.66451681  5.00845034 -0.20371731
  O  1.19762517  3.41155988  1.10346187
  H -2.48769982  1.43295022  0.47435716
  H -1.48155099  0.45006364  1.52976801
  H -0.94717401  1.06104938 -1.41427269
  H  0.72022766 -0.58065321 -1.50476636
  H -0.64390770 -3.33995952 -2.05739555
  H -0.22503391 -3.83198663 -0.40513986
  H  0.91961458 -2.87824825 -1.35782411
  H -2.56303001 -2.66311448 -0.57792779
  H -5.86414179 -1.47459909  0.11078123
  H -4.61459653 -2.20959380 -0.75467871
  H  0.79023349 -1.25845078  1.41988824
  H  2.40212066 -2.96433526  0.83737419
  H  4.66951554 -3.53674068  0.06413003
  H  6.08671606 -1.81660654 -0.98771276
  H  5.22796226  0.48199906 -1.27093272
  H  2.95419107  1.04773428 -0.50258967
  H -1.28549648  3.09594492 -0.82509911
  H  0.18932729  5.34710072  0.38061662
  H -0.62837786  5.46030446 -1.19745683
  H -1.58580478  5.31433110  0.29726169
