56
opt_min/./Product_5767_opt.xyz
  C  1.47623100  1.23783700  1.45457600
  C  0.30065446  0.47626172  0.85542670
  C -0.73052931  1.34195714  0.10890161
  N -0.13560854  2.41154666 -0.67532034
  C -1.01519275  3.48984864 -1.10178226
  C  1.15661973  2.78609368 -0.43062210
  C  1.99279493  2.25103301  0.47475754
  C  3.38113532  2.74237476  0.47706774
  N  4.29243175  1.97071949  1.13845995
  O  3.70540682  3.79213499 -0.05690659
  C -1.47187053  0.28185945 -0.75807551
  C -2.05810039  0.81987019 -2.07201284
  C -2.61413708 -0.41937255 -0.01619332
  C -3.17927314  0.01345988  1.17710636
  C -4.20574286 -0.69363632  1.78362433
  C -4.69904525 -1.84945400  1.21042404
  C -4.15717550 -2.28984941  0.01446869
  C -3.13510118 -1.58144193 -0.58644102
  N -0.40070988 -0.64712676 -1.11697080
  C  0.70400115 -0.63074827 -0.16452635
  C  2.00101134 -0.24100343 -0.89651528
  C  1.86166920  0.14252705 -2.33796687
  O  3.07401068 -0.26057022 -0.33750861
  C  0.84604371 -1.98739034  0.52691071
  C -0.26273410 -2.50682963  1.19423225
  C -0.22217529 -3.74938523  1.79555649
  C  0.93321501 -4.50995550  1.74405501
  C  2.03765490 -4.01191531  1.07813115
  C  1.99459954 -2.76729022  0.47157044
  H  1.15344795  1.75051559  2.36697605
  H  2.23869283  0.51506118  1.74659717
  H -0.23673936 -0.01700331  1.66972367
  H -1.41746730  1.80028060  0.82883404
  H -0.71880236  4.43518401 -0.64431810
  H -2.03962037  3.27996334 -0.80736615
  H -0.98239002  3.61208386 -2.18570551
  H  1.52872145  3.57573680 -1.07054287
  H  5.25038087  2.25967674  1.02314075
  H  4.13716665  0.97881868  1.18804721
  H -1.29048372  1.32966295 -2.64265653
  H -2.41969561 -0.01308830 -2.66617894
  H -2.89283252  1.49021050 -1.88842047
  H -2.83494832  0.90795233  1.67364668
  H -4.61887591 -0.33100740  2.71336577
  H -5.49364375 -2.40150545  1.68884663
  H -4.53210210 -3.18661888 -0.45637481
  H -2.73407241 -1.95352852 -1.51889970
  H -0.73789690 -1.58352199 -1.29122386
  H  1.21220924 -0.55472951 -2.85396806
  H  1.40406683  1.12757463 -2.38290710
  H  2.84398229  0.18906171 -2.80015974
  H -1.18283608 -1.94354040  1.23972718
  H -1.09885479 -4.12148761  2.30529816
  H  0.96971649 -5.48100911  2.21532324
  H  2.94557904 -4.59427630  1.02278627
  H  2.87599892 -2.41313140 -0.03653909
