36
opt_min/./Product_3770_opt.xyz
  C -0.67178000 -2.06062500  1.58213000
  C -0.15459103 -1.31837536  0.35653963
  C  1.37720998 -1.25156886  0.21454754
  C  2.10269669 -0.81703412  1.48471547
  C  1.50888384 -0.17928557 -0.88749199
  C  2.89645541  0.44781104 -0.89223864
  O  2.89083902  1.70154272 -0.44756853
  C  4.13721503  2.38376162 -0.40259262
  O  3.88067787 -0.12751989 -1.28189867
  N  0.45963074  0.78296140 -0.60017802
  C -0.53417432  0.16706683  0.29443465
  C -1.93251868  0.52233815 -0.14087613
  C -2.86166120 -0.39860970 -0.59843164
  C -4.11697381  0.01514202 -1.01494303
  C -4.45975416  1.35450860 -0.98266066
  C -3.54025394  2.28234770 -0.52484616
  C -2.28971161  1.86916870 -0.10552029
  H -1.63828520 -2.51445207  1.37804292
  H  0.02018399 -2.84721908  1.87659564
  H -0.79225931 -1.37999636  2.42373278
  H -0.52813437 -1.80403387 -0.55394533
  H  1.78162795 -2.20993048 -0.12605397
  H  1.80977066 -1.43512128  2.32959159
  H  1.88330544  0.22364184  1.71277046
  H  3.17608736 -0.91882691  1.34492413
  H  1.39422231 -0.65888667 -1.87500744
  H  3.94690095  3.42148193 -0.67277436
  H  4.84046493  1.92200275 -1.09721178
  H  4.53736016  2.33397050  0.61301181
  H  0.03596707  1.14738155 -1.44401777
  H -0.37144322  0.60408262  1.29545629
  H -2.62814119 -1.45155252 -0.63068718
  H -4.82636080 -0.72073349 -1.36681950
  H -5.43959804  1.67166629 -1.31130589
  H -3.80011411  3.33035701 -0.49143923
  H -1.56871258  2.58912442  0.25002950
