43
opt_min/./Product_4924_opt.xyz
  C -0.92091762 -0.71442465 -2.04061030
  C -0.08741849 -1.03223637 -0.81245818
  C  1.31219666 -0.40173499 -0.85864973
  C  2.23024354 -1.12618042 -1.83839193
  C  1.72674624 -0.46345523  0.63666949
  C  2.58327744  0.76134310  1.07491454
  N  3.75568629  0.85607283  0.41189360
  C  4.74278042  1.85349776  0.76848404
  O  2.20336258  1.55874648  1.89313195
  C  2.53747210 -1.63636851  0.92696401
  N  3.22816850 -2.52468871  1.13315600
  O  0.53190340 -0.52220993  1.39243286
  C -0.62566349 -0.56957909  0.56725833
  C -1.52642150 -1.65373943  1.17851391
  O -1.38011302 -2.12953845  2.26492844
  O -2.51105019 -2.00352767  0.33755994
  C -3.43141085 -2.97014079  0.83463412
  C -1.38465432  0.75202481  0.57809756
  C -2.61975621  0.88421582 -0.04833560
  C -3.30183729  2.08569793 -0.01032859
  C -2.76781608  3.17585758  0.65684574
  C -1.55135573  3.04370006  1.30051825
  C -0.87057032  1.83838503  1.27247424
  H -1.89153924 -1.19432571 -1.97453118
  H -1.05319632  0.35746916 -2.15808455
  H -0.41414813 -1.10326751 -2.92243272
  H  0.04610530 -2.11916985 -0.74438114
  H  1.22596093  0.65185420 -1.14270042
  H  2.03757839 -2.19844802 -1.82434000
  H  2.05494525 -0.75818439 -2.84635352
  H  3.28456888 -0.99100698 -1.60978125
  H  4.10515177  0.05153985 -0.08745738
  H  4.25940371  2.56820267  1.43236668
  H  5.09293839  2.35837182 -0.13313398
  H  5.59507792  1.40644191  1.28392633
  H -2.99153310 -3.97032076  0.80673181
  H -3.70376280 -2.73455093  1.86455237
  H -4.30109581 -2.92510550  0.18180949
  H -3.06723582  0.04326389 -0.55312423
  H -4.26092844  2.16749086 -0.50039498
  H -3.30526666  4.11172503  0.68567971
  H -1.12405821  3.87764588  1.83604001
  H  0.06448993  1.74336820  1.79965451
