26
opt_min/./Product_42_opt.xyz
  C -0.63677918  1.61445699  0.45438581
  C -0.33922674  0.20607956  0.11150746
  C  0.84050539 -0.37410508 -0.14214860
  C  2.16255134  0.26908216 -0.14035757
  O  2.36680048  1.44231420  0.06373789
  O  3.12428481 -0.62888629 -0.38713948
  C  4.46323294 -0.15323553 -0.41944498
  C  0.65795502 -1.84011122 -0.40340126
  O -0.73326312 -2.07525299 -0.26303516
  C -1.41770751 -0.86024705 -0.00614016
  C -2.16818761 -0.99204654  1.23152713
  N -2.72116291 -1.11004639  2.22403013
  C -2.38163639 -0.53941931 -1.19077383
  C -3.43536805  0.49589657 -0.92566922
  O -2.24027987 -1.10467489 -2.23527145
  H  0.29052335  2.13118979  0.68305937
  H -1.30946188  1.66379498  1.30983283
  H -1.11349677  2.11948839 -0.38406034
  H  4.48505743  0.90338238 -0.68942632
  H  4.91639781 -0.28280651  0.56522521
  H  4.99535223 -0.75094547 -1.15574128
  H  1.20710969 -2.45708604  0.31863314
  H  0.97141195 -2.12160601 -1.41626282
  H -4.36255999  0.18242401 -1.40016025
  H -3.59697836  0.66371137  0.13443500
  H -3.13480010  1.43026844 -1.39951682
