37
opt_min/./Product_1063_opt.xyz
  C -1.43647437  3.76987175 -0.99025079
  O -0.98024059  2.44418445 -0.74635406
  C -0.53663172  2.17388548  0.47727111
  O -0.48222568  2.96346766  1.37711000
  C -0.13362698  0.70378947  0.59548375
  C  0.90619961  0.18552289 -0.43330716
  C  1.34169360  1.09398925 -1.57135210
  F  2.43467012  0.58302647 -2.18218577
  F  0.42252789  1.20781354 -2.53968770
  F  1.67990618  2.32776485 -1.19421744
  C  2.13844265 -0.09177394  0.52354969
  C  1.77332278 -1.34840343  1.28922584
  C  0.86120258 -0.95518002  2.16724843
  C  0.68491076  0.52709200  1.92659092
  O  1.97360208  0.91711719  1.48679510
  C  0.24762555 -1.08244524 -0.95497719
  C  0.91410170 -1.96760486 -1.93436785
  N -0.89610881 -1.32213948 -0.47705725
  C -1.34145285 -0.25751206  0.39755824
  C -2.48895214  0.36046813 -0.25388428
  N -3.44327750  0.74632419 -0.75042756
  C -1.96953675 -0.79346246  1.71221593
  C -2.57229976 -2.15083512  1.57155573
  O -1.97487258 -0.12690973  2.70827937
  H -2.39610932  3.92225387 -0.49486237
  H -0.70733978  4.48693349 -0.61035295
  H -1.54421025  3.85139685 -2.06749163
  H  3.11124140 -0.04415787  0.04536871
  H  2.17396929 -2.32295390  1.09519571
  H  0.33056779 -1.52012025  2.90634492
  H  0.32976426  1.14664372  2.74355002
  H  0.83839028 -1.51840532 -2.92505005
  H  1.96979621 -2.08369053 -1.70232700
  H  0.41709349 -2.93266228 -1.95495478
  H -1.83879586 -2.84095781  1.16002271
  H -2.93846466 -2.50120295  2.53295328
  H -3.39504627 -2.09525502  0.86190704
