31
opt_min/./Product_265_opt.xyz
  C  1.31457299 -1.37542099 -0.70666405
  C  0.96240985 -0.22673876 -0.12836174
  C  1.71013971  0.98115592  0.30268427
  O  1.20235316  2.08161101  0.24820973
  N  2.97399480  0.73937329  0.70371385
  C  3.83970933  1.79019725  1.18414289
  C -0.56126157 -0.22308263 -0.15931181
  C -1.26331732  0.75758515  0.78379520
  N -2.02150511  1.66440009  0.16161857
  C -2.68807052  2.72456755  0.87935763
  O -1.13544168  0.63490387  1.97939935
  O -0.89616700 -0.03871348 -1.59989946
  C -0.54542032 -1.17230926 -2.19217960
  O -0.63234348 -1.43701433 -3.34693675
  C  0.01444188 -2.08521417 -1.03126393
  C  0.06287341 -3.49319275 -1.26674039
  N  0.11491114 -4.62122269 -1.44120561
  N -0.82422862 -1.61239467  0.07463151
  C -2.20566176 -2.04423460  0.09143019
  H  2.27745372 -1.75992110 -0.98402043
  H  3.29981472 -0.21176043  0.78506768
  H  3.96261664  1.72891644  2.26746579
  H  3.37192238  2.74136708  0.93350655
  H  4.81758044  1.72114189  0.70492383
  H -2.06120438  1.67794554 -0.84671095
  H -2.15254953  3.66821409  0.75325255
  H -3.71219744  2.83413583  0.52169730
  H -2.68796660  2.46069939  1.93704900
  H -2.22119899 -3.12351373  0.24359563
  H -2.75143941 -1.80653330 -0.83210332
  H -2.69273949 -1.56158965  0.93753315
