51
opt_min/./Product_5527_opt.xyz
  C  5.26449100 -1.11984300  0.69669300
  C  5.04317029  0.24983377  0.12556825
  C  6.24980017  1.13830268  0.06566758
  C  3.86796269  0.67178128 -0.35617091
  C  2.64450259 -0.08836076 -0.41562839
  C  1.51732179  0.41947386 -0.91420432
  C  0.18199636 -0.23752757 -1.04442990
  C -0.27670817 -0.12826971 -2.51086936
  C  0.04868002 -1.67674091 -0.53341615
  C -1.35327272 -1.69840793  0.12384038
  C -2.40431890 -2.33996351 -0.77953967
  O -3.61898471 -1.89201031 -0.51632752
  C -4.70376987 -2.43966906 -1.25016441
  O -2.13645513 -3.15386630 -1.62647642
  C -1.33770238 -2.44789743  1.45499375
  O -0.41156949 -2.43672926  2.21839696
  O -2.45257936 -3.14832106  1.64461613
  C -2.54042356 -3.86521017  2.87123049
  N -1.70686167 -0.31438958  0.37429718
  C -0.89798181  0.46114080 -0.21206039
  C -1.05870356  1.91511997 -0.17564939
  C -0.09033119  2.73480201  0.39566467
  C -0.25467097  4.10955260  0.38735691
  C -1.37765282  4.67399556 -0.19475852
  C -2.35055765  3.85964774 -0.75383998
  C -2.19616906  2.48675807 -0.74033364
  H  4.42346197 -1.43524020  1.30878455
  H  5.39283181 -1.84707067 -0.10393808
  H  6.16086571 -1.13894730  1.30995442
  H  5.97155889  2.17114602 -0.12865587
  H  6.82101490  1.09591992  0.99021071
  H  6.90250751  0.80915175 -0.74145674
  H  3.80238729  1.67883111 -0.74974969
  H  2.68093998 -1.09940535 -0.04012045
  H  1.52743943  1.43140510 -1.30386572
  H  0.44205917 -0.62266414 -3.16213674
  H -1.24224608 -0.61118358 -2.64537346
  H -0.35807177  0.91522749 -2.80350203
  H  0.78292464 -1.88174079  0.24258696
  H  0.12654738 -2.42247338 -1.32149923
  H -5.16724508 -1.63916498 -1.82741339
  H -4.34629801 -3.22721408 -1.91588182
  H -5.42009469 -2.84223468 -0.53513104
  H -3.44608046 -4.46067104  2.81203279
  H -2.59370280 -3.16609961  3.70767332
  H -1.66471859 -4.50440004  2.99672405
  H  0.77556511  2.29179460  0.86500933
  H  0.49955207  4.73895104  0.83663399
  H -1.49824467  5.74747075 -0.20588058
  H -3.22984585  4.30167547 -1.19663542
  H -2.94878729  1.83967817 -1.16393492
