60
opt_min/./Product_2424_opt.xyz
  C  4.95500700  1.75938200 -2.05005600
  N  3.89507099  1.07248812 -1.35097555
  C  3.91623114  0.88379069 -0.01627345
  O  4.88546407  1.14527723  0.66605741
  C  2.65770018  0.16367311  0.52388132
  C  2.60427683  0.29766385  2.06303194
  O  1.64333005  0.76998512  2.63146866
  N  3.68769470 -0.18355778  2.69840606
  C  3.83831152 -0.04409753  4.12907427
  C  1.42859947  0.85935381  0.00055046
  C  0.15354588  0.50817668 -0.28750601
  C -0.72030939 -0.71119868 -0.10584876
  F -1.38206457 -0.53847123  1.11346352
  C -1.75878505 -0.76131377 -1.21241106
  C -1.33139398 -0.86018997 -2.53210482
  C -2.25041278 -0.92118520 -3.56400493
  C -3.60677793 -0.88760101 -3.28660729
  C -4.03590037 -0.79467232 -1.97434213
  C -3.11817866 -0.73381557 -0.93983771
  C -0.04535940 -2.08801644 -0.01727672
  C  0.81871536 -2.23396548  1.24176312
  C  2.30329937 -2.39981488  0.93073306
  C  2.86226501 -1.29495126  0.03314931
  C -0.55258718  1.77235314 -0.75519297
  C -1.71951718  2.16864156  0.12933473
  C -1.53029055  2.29493783  1.49863773
  C -2.59076681  2.65596626  2.30919933
  C -3.83888090  2.89954946  1.76000677
  C -4.02306218  2.78650697  0.39335449
  C -2.96472283  2.42526281 -0.42255175
  N  0.43557358  2.81230290 -0.72220432
  C  1.50744435  2.29695832 -0.27123660
  H  5.21733385  1.21299142 -2.95668542
  H  4.65760579  2.77645534 -2.31657355
  H  5.81632788  1.80174860 -1.38573634
  H  3.03270138  0.92934745 -1.85242948
  H  4.53533487 -0.29101783  2.16036145
  H  3.88394982 -1.02977293  4.59948385
  H  2.96978573  0.49254948  4.50956564
  H  4.74454187  0.51150928  4.36831058
  H -0.27278041 -0.87442737 -2.75491374
  H -1.90695459 -0.99202339 -4.58541873
  H -4.32428137 -0.93346681 -4.09207497
  H -5.09178786 -0.76736769 -1.75039126
  H -3.45689382 -0.65389704  0.08194719
  H -0.85030325 -2.82528795 -0.01178540
  H  0.53570056 -2.26076819 -0.92335608
  H  0.48148018 -3.09390480  1.82337747
  H  0.67845805 -1.35692247  1.87347560
  H  2.46693182 -3.35461956  0.42068933
  H  2.85779412 -2.43058041  1.87061328
  H  3.93495744 -1.47456575 -0.09139657
  H  2.41960031 -1.36988742 -0.96307932
  H -0.91922861  1.67155174 -1.78262677
  H -0.56136066  2.09616168  1.93117996
  H -2.44115416  2.74183037  3.37480710
  H -4.66752144  3.17573700  2.39673741
  H -4.99263029  2.97889041 -0.04279168
  H -3.11310430  2.33591354 -1.49031297
  H  2.38188221  2.90361776 -0.10121597
