33
opt_min/./Product_155_opt.xyz
  C  4.09722900  1.08555500 -0.61647100
  O  2.69542663  1.10756277 -0.38722934
  C  2.14147729  0.04834111  0.21200827
  O  2.77237316 -0.92009075  0.56319333
  C  0.69263650  0.23502582  0.41911479
  C -0.21343297 -0.67125996  0.82334029
  C -0.21484605 -2.14570805  1.01865725
  C  0.68108839 -2.96401911  0.14602711
  O -0.96788487 -2.63709847  1.83035158
  C -1.53044253  0.02935852  1.04404852
  C -2.55890246 -0.48737484  0.00748270
  C -3.59742401 -1.43917965  0.52376530
  O -2.49686946 -0.13877707 -1.14141851
  O -1.26858731  1.39971559  0.88190899
  C  0.03797842  1.60270489  0.32186332
  C  0.73275280  2.67550523  1.16621220
  C -0.09078840  2.04961729 -1.13753940
  H  4.27000087  1.15628130 -1.69074300
  H  4.53648858  1.94722998 -0.11445272
  H  4.52576584  0.16090155 -0.22693348
  H  1.71770861 -2.75627488  0.40387473
  H  0.54323849 -2.68993196 -0.89777898
  H  0.46572428 -4.01796542  0.29589196
  H -1.90995454 -0.15510407  2.05678481
  H -3.49976596 -1.62615547  1.58709211
  H -4.58423928 -1.04219088  0.29660923
  H -3.49494589 -2.38240491 -0.01179222
  H  1.58317144  3.09405455  0.64034993
  H  1.06370230  2.25945566  2.11523478
  H  0.00670867  3.45836123  1.36611888
  H -0.70944894  1.34247360 -1.68299829
  H -0.57525083  3.02235268 -1.16528813
  H  0.88699416  2.12017961 -1.60171763
