47
opt_min/./Product_5003_opt.xyz
  C -1.34557600 -1.33709900 -1.96073500
  C -0.28601136 -0.58918085 -1.15793284
  C  0.28157339  0.50653566 -2.08534053
  C  0.90330071 -1.44375979 -0.59849828
  C  0.48992086 -2.73346279  0.14213751
  C  1.91746308 -1.81041889 -1.67554822
  N  1.41821326 -0.48082745  0.37671633
  C  2.69402954 -0.10497875  0.57734183
  O  3.67472408 -0.66986498  0.15993447
  O  2.74171621  1.00508667  1.37267994
  C  4.03358567  1.50312439  1.67646406
  N  0.36359314  0.24073788  0.99419740
  C  0.18952670 -0.10631077  2.39596099
  C -0.81344553  0.12269894  0.12618956
  C -1.38281124  1.53666486 -0.21197171
  N -0.75191172  2.54306055  0.39577307
  C -1.18559868  3.91221049  0.25603706
  O -2.33751094  1.66366246 -0.95053862
  C -2.01761762 -0.46470651  0.88522114
  O -2.64912031  0.20246680  1.66233358
  O -2.28372739 -1.74117576  0.63414613
  C -3.42146776 -2.30093402  1.27757169
  H -2.27446761 -0.77136016 -1.94341127
  H -1.54570370 -2.33857148 -1.59434578
  H -1.02787411 -1.41703246 -2.99830203
  H  0.72808000  0.06166007 -2.96862977
  H  1.03071758  1.10807957 -1.57478186
  H -0.52387130  1.15580959 -2.41379552
  H  0.67955852 -2.63223887  1.20685746
  H  1.07472342 -3.57720461 -0.21287262
  H -0.55871017 -2.96614892  0.00527928
  H  1.40105678 -2.34687232 -2.46886048
  H  2.68715749 -2.45565328 -1.26063281
  H  2.42072282 -0.94324081 -2.08691816
  H  4.12410209  2.50925090  1.26441678
  H  4.79077566  0.85084934  1.23602732
  H  4.14694190  1.53374753  2.76037943
  H -0.45062543  0.64654557  2.85351690
  H  1.16761805 -0.07199215  2.87058113
  H -0.25344833 -1.09485163  2.56459443
  H  0.03136371  2.34169419  1.00009170
  H -2.21620490  3.90426423 -0.09556733
  H -1.13133366  4.41816969  1.21870175
  H -0.56569475  4.44544714 -0.46834672
  H -4.30822774 -2.12203907  0.66814781
  H -3.56351587 -1.84285739  2.25748463
  H -3.22984274 -3.36757427  1.37061809
