31
opt_min/./Product_610_opt.xyz
  F -1.17662700 -0.46397200  2.51744100
  C -0.82453086 -1.08433296  1.38774169
  F -1.74029865 -2.05141615  1.20924806
  F  0.33514882 -1.70188251  1.63851061
  C -0.79071431 -0.12563275  0.19680977
  C  0.30219729  0.98474395  0.26688960
 Cl  1.21428450  1.06318110  1.78289049
  C -0.60502392  2.26815605  0.19438653
  C -1.25000186  2.29662903 -1.17622340
  C -2.19887227  1.37272830 -1.13948613
  C -2.09861074  0.77493890  0.24939149
  O -1.67373926  1.87019257  1.02688889
  C  1.16399797  0.69574495 -0.96658619
  C  2.41598447 -0.14825745 -0.64996971
  O  2.52299951 -1.31278948 -0.91068880
  O  3.35494363  0.61201857 -0.10620374
  C  4.57816132 -0.01547987  0.27285887
  O  0.28733226  0.03335274 -1.84220179
  N -0.65015365 -0.75764607 -1.10448388
  C -0.33622631 -2.17287815 -1.21647562
  H -0.11986225  3.16911497  0.55511028
  H -0.93765729  2.93491753 -1.97736053
  H -2.86633870  1.03181806 -1.90170004
  H -2.96985662  0.28865386  0.67462822
  H  1.49174276  1.60973595 -1.47281173
  H  4.58340140 -0.14395161  1.35606259
  H  5.38696915  0.64637083 -0.02969385
  H  4.66356791 -0.98598286 -0.21885310
  H  0.05570209 -2.30631412 -2.22148292
  H  0.40561053 -2.54098030 -0.50598897
  H -1.26753261 -2.72814333 -1.11815603
