29
opt_min/./Product_52_opt.xyz
  C  3.90090399 -0.12835797 -0.63286903
  N  2.53356353  0.03252123 -0.20655994
  C  1.60380249 -0.92211153 -0.42611157
  O  1.85708968 -1.97251287 -0.99037095
  C  0.25060411 -0.58730970  0.06673868
  C -0.25053117  0.56768441  0.54233618
  O  0.47471402  1.68880854  0.75496451
  C -0.17886201  2.88671550  1.12332854
  C -1.72024703  0.40495526  0.86659244
  C -2.67474453  1.27086633  0.03229845
  O -2.00068448 -0.95056803  0.58294268
  C -0.83049105 -1.64647196  0.13866261
  C -1.11282682 -2.39851151 -1.16132362
  C -0.44140828 -2.58745475  1.19119480
  N -0.18521140 -3.28205172  2.06234566
  H  4.10929019 -1.19546849 -0.70217769
  H  4.06564951  0.32314959 -1.61548616
  H  4.57151640  0.33242863  0.08988268
  H  2.25780588  0.87315768  0.27138601
  H -0.71132132  3.32324344  0.27534946
  H -0.86615111  2.73385037  1.95713362
  H  0.61776388  3.56409444  1.42920702
  H -1.90399110  0.58543254  1.94012511
  H -2.76964631  2.27822314  0.42341305
  H -3.65180097  0.79532422  0.06499268
  H -2.34427484  1.30320316 -1.00391093
  H -0.16942572 -2.73205320 -1.58493606
  H -1.75207124 -3.25410552 -0.96138807
  H -1.61803623 -1.73213191 -1.85569619
