38
opt_min/./Product_777_opt.xyz
  C  6.00038454 -0.29919121  0.91442708
  N  4.78153278 -0.27554386  0.13998165
  C  3.88199356  0.71927046  0.29261209
  O  4.00712659  1.62190493  1.09929539
  C  2.69022049  0.63610660 -0.57545428
  C  2.11187803 -0.38929705 -1.23451624
  C  2.50335310 -1.72025238 -1.37199081
  N  2.81274489 -2.82028192 -1.49328705
  C  0.79971754  0.18044213 -1.76944499
  C -0.12760353  0.27343341 -0.52426367
  C  0.54113061  1.43600128  0.23237765
  C  1.71333176  1.78514096 -0.74165279
  O  1.14244462  1.52709906 -2.00714135
  C -0.53929392  2.49342899  0.18830233
  C -0.31430118  3.76959534  0.75452074
  N -0.06384916  4.79194486  1.20514424
  N -1.61003313  2.16869541 -0.40608483
  C -1.54711564  0.81200900 -0.87398805
  C -2.63794711 -0.01972885 -0.24057242
  C -3.49260414 -0.78618534 -1.01817931
  C -4.46765592 -1.56665966 -0.42180667
  C -4.59474646 -1.57897065  0.95873418
  C -3.74644761 -0.81126289  1.73959478
  C -2.76867698 -0.03579278  1.14232499
  H  6.74248405  0.38647215  0.49602051
  H  5.77923598  0.02644981  1.93121332
  H  6.40128259 -1.30839164  0.92634197
  H  4.63714996 -0.99151629 -0.55315928
  H  0.37715499 -0.29989308 -2.64775114
  H -0.18380819 -0.66530813  0.02644489
  H  0.90466514  1.23535172  1.23951906
  H  2.11490793  2.79016622 -0.65429573
  H -1.70050080  0.84860642 -1.95867893
  H -3.39719065 -0.77253915 -2.09571666
  H -5.12786441 -2.16149838 -1.03435975
  H -5.35643237 -2.18894922  1.42349279
  H -3.84650684 -0.81313521  2.81438282
  H -2.10821594  0.56854712  1.74995400
