40
opt_min/./Product_580_opt.xyz
  C  3.23246900  2.58948500 -0.47813700
  N  2.26437868  1.51564667 -0.43870881
  C  1.67120573  1.15425881  0.71231119
  O  1.88303934  1.69649888  1.77360786
  C  0.67697520 -0.02891798  0.63461843
  C -0.33433949 -0.08821604 -0.55157014
  F  0.01441472  0.66881444 -1.63725565
  C -0.30773116 -1.58026962 -0.94943188
  C  0.97959971 -1.81085989 -1.75525829
  C  2.08680875 -1.67644398 -0.68426969
  C  1.29970618 -1.44562131  0.60891051
  C  0.04792146 -2.28964145  0.35800523
  C -1.64628267  0.43963825  0.10078525
  C -1.66189897  1.99784663  0.00336303
  C -1.88569854  2.74237968  1.29374397
  O -1.57321560  2.55323139 -1.05323030
  C -2.89462370 -0.06553076 -0.63748207
  C -3.77010115 -1.01088770  0.14032363
  O -3.12900664  0.26868619 -1.76451102
  N -1.50913701 -0.10924984  1.43208607
  O -0.13015013  0.10509620  1.79961926
  H  4.24112724  2.19437611 -0.61989076
  H  3.18994751  3.11773827  0.47342436
  H  2.99341204  3.27420892 -1.29108403
  H  1.99695954  1.12142597 -1.32392335
  H -1.21240272 -1.90880242 -1.45659920
  H  1.08935271 -1.10295419 -2.57388153
  H  0.96667041 -2.81373416 -2.18092306
  H  2.66460162 -2.59661844 -0.59823434
  H  2.78449651 -0.86942058 -0.89644561
  H  1.85437857 -1.64918422  1.52187711
  H  0.28567093 -3.33978970  0.19420501
  H -0.70285160 -2.20151860  1.13703572
  H -2.95602283  2.74936723  1.50462512
  H -1.34641884  2.32247317  2.13831568
  H -1.55772651  3.76936662  1.14634724
  H -3.77917990 -0.79338704  1.20196726
  H -4.77627613 -0.98138635 -0.27263509
  H -3.37702017 -2.01846189  0.00955897
  H -2.03025697  0.40948649  2.13712754
