51
opt_min/./Product_5378_opt.xyz
  C -0.49118800 -2.23504500 -1.39867700
  C -1.66183218 -3.03363470 -0.91418744
  C -2.47282118 -2.55512934  0.03075502
  N -2.29536271 -1.35877731  0.66422808
  C -3.19996675 -0.89694461  1.68162834
  C -1.16280326 -0.54510529  0.37289731
  C  0.01474572 -1.31589951 -0.26897793
  C  0.70466374 -2.17540872  0.79019766
  N  1.85259920 -2.75256143  0.36417543
  O  0.29471128 -2.31831082  1.91904219
  C  0.88897193 -0.19771735 -0.88143722
  C  2.04908997  0.32454400 -0.04289656
  C  2.02069224  0.41788319  1.34484235
  C  3.09205445  0.95224093  2.04251068
  C  4.20340041  1.42202125  1.36599616
  C  4.23650832  1.35116076 -0.01793444
  C  3.17289030  0.80236872 -0.71020280
  N -0.07526318  0.84098728 -1.16484411
  C  0.28016117  2.00808931 -1.91653002
  C -1.38838444  0.67213077 -0.58379083
  C -1.77513956  1.90129588  0.27062184
  N -0.73914880  2.40801513  0.96837144
  C -0.86103212  3.53823723  1.85577076
  O -2.89815482  2.36319317  0.31654437
  C -2.47408338  0.42728968 -1.64416781
  H -0.78327492 -1.61378222 -2.25047288
  H  0.30456112 -2.89460286 -1.75091838
  H -1.84704105 -3.99724558 -1.35455333
  H -3.32036084 -3.13163449  0.36943947
  H -2.76455997 -1.01388490  2.68043168
  H -3.43791097  0.15720542  1.52783091
  H -4.12441028 -1.46726034  1.63329708
  H -0.78892617 -0.13287597  1.31780454
  H  2.19074236 -2.66045548 -0.57671787
  H  2.31355715 -3.42171697  0.96260213
  H  1.32811869 -0.57032066 -1.82479172
  H  1.17099738  0.06236094  1.90405815
  H  3.04698871  0.99231113  3.12000144
  H  5.04067575  1.83777998  1.90590215
  H  5.09800103  1.72085744 -0.55216895
  H  3.21651112  0.73216444 -1.78790633
  H  0.51605643  1.75617239 -2.95933867
  H  1.14994146  2.52798612 -1.49502564
  H -0.55740037  2.70073722 -1.91805721
  H  0.18105311  2.01131817  0.84680105
  H -1.91212113  3.82127808  1.88316157
  H -0.52944491  3.27453070  2.86123861
  H -0.27076466  4.38122605  1.49238035
  H -3.10365600 -0.41259400 -1.36858533
  H -2.02115778  0.23718807 -2.61251275
  H -3.11195245  1.30532518 -1.72963434
