35
opt_min/./Product_3940_opt.xyz
  C  0.45548600 -1.30704400  0.88878700
  C  1.93662394 -1.16386401  0.77862854
  C  2.44884373  0.00579567  0.40848418
  N  1.68211957  1.11161427  0.08865094
  C  2.37843744  2.14965180 -0.64704535
  C  0.33280943  0.89033059 -0.36990010
  C -0.23013289 -0.54210511 -0.25529943
  C -0.18768592 -1.23054850 -1.62442352
  N -0.29195915 -2.57475402 -1.63104368
  O -0.10624837 -0.59780476 -2.65321232
  C -1.70105515 -0.23421478  0.17274652
  C -2.56827099 -1.40991279  0.55286925
  N -1.41335593  0.75300309  1.21040335
  C -0.80390567  1.71917225  0.33742189
  C -0.45544666  3.04399958  0.97079238
  O -1.77800200  1.88065385 -0.74292150
  C -2.31571926  0.66631719 -0.91871266
  O -3.15957168  0.38506350 -1.71584021
  H  0.16104933 -2.35654404  0.90928486
  H  0.11147746 -0.84748634  1.82237163
  H  2.57256752 -1.98286323  1.06153114
  H  3.51450634  0.17449385  0.34697307
  H  1.71867020  2.99911656 -0.80295935
  H  3.24353899  2.47895136 -0.07002562
  H  2.72720154  1.79695226 -1.62772895
  H  0.28463711  1.18670757 -1.43188156
  H -0.31246970 -3.03400974 -2.52683767
  H -0.29954771 -3.13364044 -0.79841967
  H -3.59213804 -1.07451009  0.70997910
  H -2.20906046 -1.87696210  1.46721253
  H -2.57563593 -2.13488361 -0.25638737
  H -2.24989102  1.10643137  1.66994963
  H  0.59788279  3.06687542  1.23398213
  H -1.04776994  3.18892452  1.87070074
  H -0.67762799  3.84165144  0.26638893
