25
opt_min/./Product_262_opt.xyz
  C  4.83601200 -0.22146200 -0.03390400
  N  3.46995101 -0.32855385 -0.48804289
  C  2.56463524  0.64510215 -0.24623579
  O  2.80089025  1.65597069  0.37441742
  C  1.20446188  0.33493090 -0.77883952
  C  0.43664906 -0.76531290 -0.56901899
 Br  0.80746078 -2.33326324  0.35250991
  C -0.89106451 -0.48325063 -1.23016171
  C -1.89904147 -0.35034355 -0.06388964
  O -1.95247823  0.88537841  0.38347305
  C -2.81815373  1.12623204  1.49038378
  O -2.49777097 -1.29088707  0.37265531
  C -1.38491743 -1.53226415 -2.21755621
  N -0.65567938  0.80660148 -1.82681272
  N  0.47002566  1.23896355 -1.54514120
  H  5.19630969 -1.19188431  0.30065373
  H  5.47848263  0.15336669 -0.83434012
  H  4.86420760  0.48154354  0.79706401
  H  3.20575763 -1.14649453 -1.01227605
  H -3.81144675  0.72723395  1.28071266
  H -2.84405780  2.20532499  1.61190160
  H -2.42448072  0.65228110  2.38983549
  H -2.25101539 -1.14230576 -2.74531319
  H -0.60354673 -1.76339583 -2.93744573
  H -1.66768394 -2.43344503 -1.67744031
