31
opt_min/./Product_3435_opt.xyz
  C -1.97513400  0.67224700 -0.62463500
  C -0.85188455  1.58702579 -0.14656601
  C  0.19294351  0.60003284  0.38355606
  C  1.26283357  0.25151368 -0.67844706
  N  1.78481671 -0.96463956 -0.47336786
  C  2.80958733 -1.53410666 -1.31316234
  O  1.60823399  1.03430786 -1.53745985
  C  0.97701386  1.14817397  1.58054161
  C  1.69915224  2.44485833  1.32649561
  O  1.03567443  0.55262304  2.62507499
  O -0.50641465 -0.56108659  0.78079324
  C -1.82341662 -0.61697662  0.21104098
  C -2.82670700 -0.71303006  1.37579481
  C -1.89629675 -1.86253161 -0.67412685
  H -1.85405088  0.44329768 -1.68384267
  H -2.95088677  1.13379941 -0.48363172
  H -0.44096007  2.19474547 -0.95101954
  H -1.19285069  2.23549817  0.66333040
  H  1.33375909 -1.55880282  0.21102553
  H  2.38691028 -2.29296175 -1.98039986
  H  3.59076051 -1.98360512 -0.70179147
  H  3.22007482 -0.73032932 -1.92582922
  H  1.46207680  3.15027505  2.12019114
  H  2.77028655  2.25234702  1.37472589
  H  1.46091721  2.86851245  0.35717711
  H -2.26880687 -0.71451174  2.30930619
  H -3.40342863 -1.63261712  1.32204235
  H -3.51318581  0.13003001  1.38853663
  H -1.19653978 -1.78033722 -1.50408068
  H -1.63458023 -2.73989062 -0.08625604
  H -2.90090659 -1.98690167 -1.07013601
