53
opt_min/./Product_5330_opt.xyz
  C  5.22844600 -0.64046400  0.36683400
  C  4.65605926  0.70248217  0.02731798
  C  5.64985447  1.75785354 -0.37032144
  C  3.35288375  1.00279930  0.08447174
  C  2.27358446  0.12685266  0.46913964
  C  1.00474626  0.53797803  0.51503342
  C -0.18310082 -0.27518168  0.94038086
  C  0.17879631 -1.73297493  1.23986996
  C -0.79271847  0.34035131  2.22830507
  C -2.26887351  0.62204738  1.93167440
  C -3.14946751  0.10448860  3.07526920
  C -4.07672731  1.10887941  3.71522871
  O -3.08737051 -1.03695830  3.44760663
  N -2.55098123 -0.15333154  0.74227748
  C -3.81618210  0.12833205  0.10653964
  C -1.35841054 -0.20083458 -0.09167745
  C -1.34766939 -1.44731010 -0.98579747
  N -0.22989750 -1.50729807 -1.75057115
  C  0.01723601 -2.58663193 -2.67612558
  O -2.24307872 -2.25967761 -1.06111496
  C -1.38338833  1.05723119 -0.99086789
  O -1.08745837  2.16987191 -0.59593906
  N -1.91780689  0.85946506 -2.21797325
  C -2.13080255  1.94522736 -3.14623579
  H  6.09398022 -0.85128129 -0.25829080
  H  4.50457092 -1.43875338  0.23221495
  H  5.55536306 -0.64868573  1.40754864
  H  6.66991281  1.39487569 -0.27808065
  H  5.48968608  2.06459209 -1.40453904
  H  5.54215667  2.64520737  0.25184953
  H  3.04556526  2.00955707 -0.17413739
  H  2.53092094 -0.88803262  0.73299034
  H  0.77675862  1.56398867  0.26726075
  H  0.81026197 -1.76683982  2.12587259
  H -0.73032562 -2.29419952  1.44160834
  H  0.71202872 -2.21483952  0.42490733
  H -0.26148043  1.24585184  2.51818005
  H -0.72989028 -0.37968177  3.04197801
  H -2.45237879  1.69808697  1.77126158
  H -3.81193024  1.21018661  4.76728325
  H -5.09418171  0.72303575  3.68679065
  H -4.03455344  2.07967802  3.23507837
  H -4.02844162 -0.66593622 -0.60645632
  H -4.58944260  0.11797871  0.87252032
  H -3.84613702  1.10299622 -0.40342665
  H  0.48787064 -0.80888090 -1.63134851
  H -0.14603802 -2.26257843 -3.70693558
  H  1.03818576 -2.95305456 -2.57315223
  H -0.68126307 -3.39003247 -2.44249557
  H -2.22918097 -0.05707364 -2.49353096
  H -2.04547381  2.87908318 -2.59152357
  H -3.11939189  1.86865270 -3.59614565
  H -1.37373713  1.93666028 -3.93501604
