41
opt_min/./Product_4173_opt.xyz
  C  4.31363384  1.61039042 -0.42490096
  C  4.04615218  0.73352176  0.76596709
  C  5.18053500  0.60596230  1.73422033
  C  2.88195938  0.10694471  0.97268998
  C  1.72487227  0.17672710  0.11388158
  C  0.59668050 -0.48517684  0.37616757
  C -0.68425380 -0.49218823 -0.39777232
  C -1.09550796 -1.94724040 -0.66049853
  C -0.69441752  0.27939675 -1.72957148
  C -2.10430194  0.90471636 -1.82759254
  C -2.79392101  0.49716240 -3.03393056
  N -3.32755714  0.18871918 -3.99638433
  N -2.80403180  0.40798189 -0.65358915
  C -1.82887817  0.23180428  0.39850600
  C -2.36412562 -0.67955824  1.49075115
  O -3.53871552 -1.21502562  1.17113059
  C -4.10524414 -2.11157078  2.11561205
  O -1.79039260 -0.89308554  2.52961325
  C -1.34639481  1.54943743  1.03585639
  H  4.11871302  1.07805597 -1.35459374
  H  3.67696042  2.49481779 -0.40317773
  H  5.34961446  1.93940586 -0.43082826
  H  4.91884344 -0.03942546  2.56835536
  H  6.05718634  0.19409902  1.23367393
  H  5.45480316  1.58712785  2.12262187
  H  2.76578637 -0.50658416  1.85637620
  H  1.82310967  0.78947017 -0.77050715
  H  0.55059490 -1.09490029  1.26929480
  H -1.10828684 -2.51864426  0.26515074
  H -2.08506955 -1.98282749 -1.11013714
  H -0.37984421 -2.41314465 -1.33527878
  H  0.05797589  1.06515527 -1.75809893
  H -0.49695774 -0.39293375 -2.56576730
  H -2.03019976  2.00872193 -1.85074853
  H -3.61609949  0.95380420 -0.39642221
  H -4.92076011 -2.61687721  1.60476098
  H -3.35607397 -2.82979508  2.45482734
  H -4.48085534 -1.56111467  2.98101268
  H -2.12917820  2.30380021  0.96089098
  H -0.45108091  1.92270012  0.54663576
  H -1.11675079  1.38768820  2.08578869
