30
opt_min/./Product_4228_opt.xyz
  O -2.69826200 -2.23551700 -1.90841600
  C -2.42844532 -1.15327444 -2.16682256
  O -2.18300415 -0.07447812 -2.45479964
  C -1.81063388 -0.54999991  0.62024252
  C -0.57582207 -1.04759739  0.45935308
  C -0.24095987 -1.85022910  3.58069968
  O -0.79876948 -2.83368174  3.40172680
  O  0.32133536 -0.86594978  3.72837869
  N  0.32727461 -0.03006930  0.30536258
  C  1.69096565  0.00865311  0.17261264
  C  2.43650121 -1.17008387  0.11023040
  C  3.80866641 -1.10111328 -0.03368787
  C  4.45318367  0.12192762 -0.11618700
  C  3.70954713  1.29031768 -0.05446302
  C  2.33825824  1.24343416  0.08856447
  O -0.37230591  1.20003928  0.47849958
  N -1.75410656  0.85161578  0.57348162
  C -2.64961689  1.82253192  0.21880826
  C -4.10143535  1.40663228  0.30756339
  O -2.29060270  2.94097640 -0.06364969
  H -2.72557262 -1.08127194  0.76315843
  H -0.27152405 -2.07275722  0.43634949
  H  1.95397260 -2.13331027  0.17172757
  H  4.37880402 -2.01756028 -0.08091830
  H  5.52540231  0.16446939 -0.22786201
  H  4.20363482  2.24794989 -0.11838113
  H  1.74939540  2.14485729  0.13722278
  H -4.60952210  2.10215391  0.97298698
  H -4.54278340  1.51664190 -0.68156938
  H -4.24735596  0.39495157  0.66424030
