46
opt_min/./Product_1879_opt.xyz
 Br -0.28621867  1.43855593  1.36618160
  C -0.16230828  0.11725626 -0.12022569
  C  1.29780771  0.06651861 -0.63327122
  C  1.14408887  0.36399169 -2.13210659
  C  0.88108099  1.86982725 -2.27090799
  C -0.56139190  2.01076259 -1.74602711
  C -0.94933965  0.57942848 -1.34841060
  C -0.23560837 -0.22316931 -2.44276842
  C  1.83977952 -1.33155625 -0.26644457
  C  2.02900746 -2.17495841 -1.43918854
  N  2.18421944 -2.90156007 -2.30757540
  C  3.20782263 -1.25389473  0.40621610
  C  3.43311119 -1.83645799  1.64395547
  C  4.68212379 -1.75006476  2.23464065
  C  5.71353390 -1.09082079  1.59080355
  C  5.49372333 -0.51567522  0.35010349
  C  4.24717229 -0.59697649 -0.24172591
  N  0.84065294 -1.90918922  0.62970970
  C -0.46596958 -1.30081453  0.43809627
  C -1.20019985 -1.20289059  1.81494210
  C -0.36199502 -1.58688618  2.99301804
  O -2.35171692 -0.87104595  1.88867204
  C -1.35695767 -2.28108528 -0.37178580
  C -2.75761639 -1.91030010 -0.75241129
  O -0.92066295 -3.39141852 -0.56813815
  H  1.92787580  0.81120063 -0.14303383
  H  1.96441054  0.00030696 -2.74919396
  H  0.95576300  2.17995301 -3.31285456
  H  1.58826671  2.45974559 -1.68928403
  H -1.23444222  2.35261813 -2.53294176
  H -0.63984801  2.71334202 -0.91889000
  H -2.02316928  0.46072701 -1.24860075
  H -0.58495478  0.03223376 -3.44185979
  H -0.28093383 -1.30437386 -2.32499813
  H  2.62602644 -2.34684896  2.14453326
  H  4.84928093 -2.20344200  3.20039428
  H  6.68761326 -1.02479140  2.05260741
  H  6.29634732 -0.00321719 -0.15949030
  H  4.08275624 -0.15045679 -1.21164849
  H  0.77084230 -2.91488558  0.46641064
  H -0.91569571 -1.36952020  3.90424099
  H -0.14778061 -2.65314157  2.93938855
  H  0.58524855 -1.05516192  2.98737049
  H -2.77425694 -1.60623396 -1.79891792
  H -3.37407297 -2.80530861 -0.67212076
  H -3.15977281 -1.12431387 -0.12329151
