40
opt_min/./Product_1362_opt.xyz
  F  4.82039700 -1.97989700 -0.32139800
  C  3.82790066 -1.61176371 -1.14846757
  F  4.05924158 -0.32916127 -1.46827535
  F  3.98791578 -2.32388712 -2.27508326
  C  2.48207092 -1.80224665 -0.54944357
  C  1.58728916 -2.76295658 -0.75660459
  C  0.38578290 -2.34619827  0.07398465
  C -0.19113573 -1.16793507 -0.76960527
  C  0.78247145 -0.03880698 -0.36875162
  C  1.82862690 -0.83613919  0.43641718
  O  0.99859663 -1.71150463  1.17621951
  C -0.13854601  0.92073499  0.45801837
  C  0.21486267  2.38338668  0.17247782
  N -0.81878351  3.09788100 -0.28347468
  C -0.69419660  4.50439342 -0.58947891
  O  1.33483230  2.82297257  0.33164815
  C -0.12094335  0.60040062  1.99858137
  C  0.96708224  1.21791827  2.81913817
  O -0.99551145 -0.06951288  2.47005243
  N -1.49012720  0.59794096  0.06742573
  C -1.52685711 -0.56348039 -0.43269053
  C -2.78147342 -1.26757462 -0.81316191
  O -2.78534114 -2.33036916 -1.38450289
  O -3.86595657 -0.60306903 -0.44500603
  C -5.11019740 -1.22523651 -0.73515386
  H  1.62609161 -3.60550936 -1.41790517
  H -0.30989854 -3.11759789  0.38648943
  H -0.19443659 -1.43197823 -1.82808692
  H  1.21822286  0.50112856 -1.21026742
  H  2.50076452 -0.25532792  1.05747160
  H -1.71670911  2.64437203 -0.36630647
  H -0.64826223  5.09507167  0.32878962
  H -1.54559175  4.82319966 -1.18291741
  H  0.22931624  4.67222110 -1.14497218
  H  1.82460927  0.54904955  2.83725658
  H  0.60711906  1.32155343  3.84055879
  H  1.29397703  2.17258930  2.41843959
  H -5.18029876 -1.45408900 -1.80129696
  H -5.21123400 -2.15377330 -0.16949135
  H -5.87795764 -0.51450963 -0.44084371
