42
opt_min/./Product_2312_opt.xyz
  N -3.46169756  1.98304702  1.89118476
  C -2.98224790  1.02529611  1.49800761
  C -2.36100063 -0.21774584  1.04168899
  C -2.63537504 -1.17176836  2.11492258
  N -2.91184944 -1.92745518  2.92394055
  C -0.87694956  0.01996167  0.93550806
  C -0.11153664  0.62198480  0.02546983
  C -0.42294306  1.24895011 -1.29297410
  F  0.75672888  1.66401977 -1.85167935
 Br -1.39860411  2.97146773 -1.00387604
  C -1.10503370  0.32101493 -2.30167540
  C -2.61703571  0.42513053 -2.48659250
  C -3.49175755  0.29554928 -1.23542360
  C -3.05164205 -0.77685566 -0.23259577
  C  1.33813529  0.57126017  0.47460810
  C  2.12609810 -0.41401231 -0.41238707
  O  3.33532587 -0.61320306  0.06927777
  C  4.13948066 -1.59578590 -0.57863539
  O  1.64373009 -0.97427339 -1.36245452
  C  1.92362920  2.01721925  0.60655502
  C  3.07488879  2.39407565 -0.26811691
  O  1.42902043  2.74028843  1.42134256
  O  1.31244302  0.02773223  1.78544379
  C  0.01759823 -0.47427928  2.06927803
  C  0.05758108 -1.94175647  2.05425315
  N  0.16713194 -3.07202565  1.94813759
  C -0.43160167  0.01404647  3.37346381
  N -0.77647530  0.41799526  4.38136594
  H -0.80521633 -0.69813216 -2.04768193
  H -0.64497960  0.54737667 -3.26741507
  H -2.85358092  1.38095026 -2.95653464
  H -2.88794644 -0.36045125 -3.19587887
  H -4.49967386  0.05680854 -1.57702695
  H -3.55953643  1.26049209 -0.73339505
  H -2.38558800 -1.50458751 -0.69844671
  H -3.93379709 -1.32387600  0.10981168
  H  3.52368203 -2.43771480 -0.89836175
  H  4.87957515 -1.91290184  0.15136460
  H  4.62878922 -1.15579235 -1.44935232
  H  3.21763234  1.71712825 -1.10275356
  H  3.97128205  2.40821929  0.35122529
  H  2.91582550  3.40616737 -0.63701115
