77
opt_min/./Product_3193_opt.xyz
  C  0.57213775  4.85301354  1.26021240
  O  0.66792156  3.46228953  1.05160693
  C  0.56117990  2.92487578 -0.21688816
 Br  2.08650860  3.78460526 -1.32522465
  C  0.92776120  1.47156119 -0.07261884
  C  0.40925255  0.30299708 -0.49883963
  C -0.93992623 -0.03262397 -1.11311314
  C -1.05339287 -1.53311555 -1.42389110
  C -0.51088167 -2.05230456 -2.59618585
  C -0.70081177 -3.37639271 -2.94825550
  C -1.44316497 -4.21650847 -2.13858615
  C -1.96327741 -3.72187955 -0.95685577
  C -1.77040373 -2.39837273 -0.60447641
  C -2.05316314  0.29664220 -0.10142097
  C -3.37571930  0.11785873 -0.51215652
  C -4.43232703  0.38972358  0.33505861
  C -4.19594537  0.83573000  1.62517576
  C -2.89152158  0.98219369  2.05545876
  C -1.83091871  0.70702349  1.20568667
  C -1.28347319  0.72518291 -2.44411538
  C -0.31187473  1.78385679 -2.95707838
  C -0.71393153  3.16384974 -2.45292050
  C -0.74410894  3.25318504 -0.93087317
  C  1.45708524 -0.78673059 -0.17741320
  C  2.38950140 -0.78681115 -1.42125401
  O  3.65425726 -0.99760801 -1.07995889
  C  4.64946255 -0.89875031 -2.09285946
  O  2.02351423 -0.55801326 -2.54572412
  C  1.03629655 -2.18315687  0.21254698
  C  0.39898048 -2.35438961  1.43771503
  C  0.10658207 -3.62168088  1.90201803
  C  0.45826267 -4.73369964  1.15515639
  C  1.10358496 -4.56957008 -0.05725250
  C  1.40118772 -3.30105913 -0.52413565
  N  2.12367880 -0.21929293  0.97722355
  C  3.22343855 -0.88683545  1.63458011
  C  2.14761111  1.22094989  0.82066921
  C  3.41644850  1.65985866  0.27233152
  N  4.48532137  1.86254339 -0.08824956
  C  1.89386890  1.75293575  2.27020507
  C  3.03696930  2.42953564  2.97108298
  O  0.86713706  1.47625404  2.82858794
  H  1.38775069  5.37913395  0.75347501
  H  0.66453682  4.98360515  2.33660633
  H -0.38387799  5.26926667  0.93500974
  H  0.09427832 -1.42969525 -3.23623601
  H -0.26728445 -3.74881377 -3.86534482
  H -1.60879521 -5.24547225 -2.42149698
  H -2.53174060 -4.36580705 -0.30214601
  H -2.18944524 -2.04962046  0.32672590
  H -3.58667902 -0.26352031 -1.50072438
  H -5.44446821  0.24664913 -0.01398375
  H -5.02087089  1.05234792  2.28749304
  H -2.68079456  1.30873164  3.06277184
  H -0.83197986  0.83464810  1.58693630
  H -2.25075336  1.21533521 -2.32060697
  H -1.41499861 -0.02068392 -3.22465051
  H -0.36038905  1.79634210 -4.04790847
  H  0.71537819  1.54417999 -2.68859867
  H -0.04318475  3.92082055 -2.85986360
  H -1.71856334  3.39553751 -2.81759418
  H -1.03111289  4.27161903 -0.66157364
  H -1.49864422  2.57835724 -0.52212449
  H  4.21911960 -0.46505927 -2.99687551
  H  5.43904162 -0.25809179 -1.70265849
  H  5.03630825 -1.89649189 -2.30242047
  H  0.13391580 -1.48442975  2.01907244
  H -0.39333241 -3.74237892  2.85158999
  H  0.23546574 -5.72537341  1.51997886
  H  1.38763949 -5.43183566 -0.64186485
  H  1.91368943 -3.18923937 -1.46799460
  H  2.98901585 -1.00338505  2.69855730
  H  4.16162534 -0.33419494  1.53638841
  H  3.36917569 -1.87548623  1.20733405
  H  3.80476080  2.78565609  2.29205590
  H  3.47477678  1.71071002  3.66329142
  H  2.64927333  3.25728421  3.56227947
