34
opt_min/./Product_492_opt.xyz
  F  0.37926900  1.69817800  0.38370400
  C -0.07664914  0.52409474 -0.17664987
  C -1.22230972  0.76765179 -1.20417193
  C -1.51295284  2.24046355 -1.55107655
  F -1.54710444  3.05762670 -0.49150825
  F -2.72179582  2.34481338 -2.13740038
  F -0.62812334  2.74353241 -2.40302172
  C -2.42378066  0.02491929 -0.59121798
  C -2.90474190  0.75541390  0.66746133
  C -1.73310128  0.55460913  1.65171778
  C -0.75968259 -0.35599426  0.87868085
  C -1.73294801 -1.18636447  0.03578637
  O -0.79491636  0.09659491 -2.36284857
  O  0.62125567  0.19480726 -2.39505003
  C  1.06514627 -0.05283976 -1.07258853
  C  2.35050953  0.77169967 -0.83632972
  O  2.78323486  0.55139457  0.40526908
  C  3.94000962  1.28324048  0.80141971
  O  2.87631418  1.48507675 -1.63408366
  C  1.43261919 -1.52893243 -0.88450761
  H -3.19153831 -0.17728056 -1.33474948
  H -3.14620653  1.80201994  0.50690229
  H -3.80781344  0.26145400  1.02957730
  H -1.26485310  1.49979824  1.91766660
  H -2.06021480  0.07014659  2.57150830
  H -0.05422728 -0.88930478  1.50939325
  H -1.26710563 -1.83681882 -0.69495948
  H -2.41350592 -1.77133866  0.65256642
  H  4.69286885  1.25006045  0.01297630
  H  3.66747761  2.32215140  0.99689114
  H  4.30319106  0.80579395  1.70878590
  H  0.63962173 -2.16929491 -1.26044319
  H  1.62796651 -1.74581214  0.16142766
  H  2.32716223 -1.72633344 -1.47074954
