45
opt_min/./Product_1111_opt.xyz
  C -1.45591100  2.24853400  2.09685200
  C -2.33487048  1.67570147  1.00345338
  O -3.37043602  2.18781704  0.68255034
  C -1.90840774  0.29438324  0.51117791
  C -0.49586815  0.16527487  0.04182519
  C  0.35559166 -0.87407812  0.02901540
  C  0.38436103 -2.37409092  0.07146600
  C -0.86644096 -3.28980112  0.00523523
  C -2.21508535 -2.59569463  0.11206370
  C -2.46136057 -1.61024389 -1.03935211
  C -2.91566829 -0.24879723 -0.52406084
  C  1.70943191 -0.26299592 -0.45682693
  C  2.98579794 -0.98482407 -0.11672202
  O  3.72429992 -0.24890284  0.72060776
  C  4.99010195 -0.79008422  1.08413832
  O  3.30501315 -2.06615539 -0.52824559
  N  1.64587413  1.13994348 -0.06910403
  C  0.30852941  1.33563189 -0.57817830
  C -0.23928640  2.76727033 -0.67426786
  C  0.71711916  3.85194954 -0.27491010
  O -1.33389919  2.96155576 -1.12072760
  O  0.50598062  0.94260782 -1.97336213
  C  1.37171267 -0.07273936 -1.95567001
  O  1.75612882 -0.68845043 -2.89503490
  H -1.85102592  1.89090289  3.04918882
  H -1.52739019  3.33328863  2.10004739
  H -0.42199561  1.92953371  2.01205129
  H -1.99103617 -0.30283600  1.43259436
  H  1.00782434 -2.63614875 -0.78983635
  H  0.98078923 -2.65513001  0.94751917
  H -0.79660991 -4.01530243  0.81809180
  H -0.81435983 -3.84411312 -0.93176087
  H -2.21304336 -2.08170908  1.07173559
  H -3.01918713 -3.33105223  0.15446426
  H -1.53954328 -1.45990794 -1.60220483
  H -3.19206942 -2.02363853 -1.73545816
  H -3.88646589 -0.32877352 -0.03625891
  H -2.98502867  0.46865075 -1.34071501
  H  5.45700252 -1.26649381  0.22096597
  H  4.86472181 -1.53072651  1.87704155
  H  5.58833353  0.04623348  1.43792700
  H  1.73792414  1.27582166  0.93241685
  H  1.72563556  3.47501236 -0.14945729
  H  0.37229891  4.31245235  0.64990488
  H  0.69546750  4.62071817 -1.04537895
