44
opt_min/./Product_4953_opt.xyz
  C -1.66630500  0.85210400  0.27626200
  C -0.94334965  0.03158741 -0.79219701
  C  0.57422844  0.22247907 -0.70799688
  N  0.98810607  1.58392839 -0.60904932
  C  2.33017972  1.94239969 -0.98719336
  C  0.15782613  2.50153978 -0.04001553
  C -1.09373645  2.24090594  0.38420422
  C -1.96980833  3.21941964  1.04081849
  N -1.57280442  4.53346466  1.03631900
  O -2.96058203  2.88291602  1.66581462
  C  0.91803675 -0.68047935  0.51099373
  C  2.32854511 -1.19317032  0.46783389
  C  3.30945717 -0.60825591  1.25843743
  C  4.62141036 -1.03893227  1.18013955
  C  4.96546364 -2.06480912  0.31553466
  C  3.99027018 -2.65948714 -0.46692751
  C  2.67942283 -2.22318155 -0.39444985
  O -0.02521698 -1.74332822  0.46495875
  C -1.03446195 -1.47367618 -0.50317315
  C -2.42584292 -1.89056863 -0.03828767
  N -2.46798610 -2.36943124  1.21272352
  C -3.70725264 -2.76009320  1.84446851
  O -3.38761538 -1.78815099 -0.77115356
  H -2.72717984  0.92901947  0.03373644
  H -1.61424597  0.35549223  1.24952319
  H -1.33235824  0.27752190 -1.77890235
  H  1.04578778 -0.23451738 -1.58750865
  H  2.69923440  1.23915194 -1.73201129
  H  2.34480773  2.94410787 -1.41647263
  H  3.01419656  1.91761956 -0.13086310
  H  0.59503206  3.48542008  0.05356256
  H -2.25844056  5.20079388  1.35750571
  H -0.91492713  4.86413150  0.35212463
  H  0.76827029 -0.10032735  1.43448557
  H  3.04242512  0.18686407  1.94073834
  H  5.37796955 -0.57954881  1.79818703
  H  5.98851297 -2.40342671  0.25680760
  H  4.25072675 -3.46453802 -1.13742873
  H  1.91974943 -2.69827322 -0.99671008
  H -0.80496712 -2.03398323 -1.42431564
  H -1.61008554 -2.45172169  1.73693178
  H -4.42267119 -3.00749886  1.06067440
  H -4.11651237 -1.94025767  2.43929966
  H -3.54491068 -3.62738831  2.48070813
