37
opt_min/./Product_486_opt.xyz
  C -2.30787177  2.73230410 -0.76750731
  N -1.33622876  1.70139627 -0.49248488
  C -1.27653314  1.08464863  0.70121822
  O -2.04848300  1.30619769  1.60426141
  C -0.17167573  0.01357751  0.80127891
  C -0.58072466 -1.37136532  0.22326018
  C -1.86208264 -1.37682668 -0.41428829
  N -2.86623205 -1.38164643 -0.96327202
  C -0.48939310 -2.25442266  1.51890879
  C -1.58848398 -1.80546889  2.45379443
  C -1.17666091 -0.64406776  2.94741006
  C  0.15976465 -0.39105974  2.28049973
  O  0.66874555 -1.70572175  2.11517054
  C  0.60043149 -1.72775178 -0.74498271
  C  0.21544519 -2.51523390 -1.98517868
  N  1.23645758 -0.47020763 -1.08162723
  N  1.00243034  0.37524313  0.02366528
  C  1.80315044  1.42292892  0.33594161
  O  1.62476419  2.13236957  1.29458496
  O  2.76848694  1.57546315 -0.58764603
  C  3.69613512  2.62581498 -0.35457957
  H -3.10709192  2.63264935 -0.03549609
  H -1.86092002  3.72497452 -0.67592641
  H -2.70933974  2.60293943 -1.77118460
  H -0.63633969  1.52734161 -1.19463371
  H -0.38773607 -3.31945338  1.32571937
  H -2.50683235 -2.32982344  2.62252448
  H -1.63896381  0.01111018  3.65385290
  H  0.86849817  0.26480368  2.77385941
  H  1.33138322 -2.29217855 -0.15112262
  H -0.07340114 -3.52711081 -1.71362184
  H  1.07272136 -2.56722565 -2.65236903
  H -0.61460581 -2.04804325 -2.51215546
  H  0.83715675 -0.06449212 -1.93302594
  H  3.47436388  3.45758145 -1.02634761
  H  3.62509337  2.96430917  0.68039720
  H  4.69078834  2.23503772 -0.56216509
