51
opt_min/./Product_2331_opt.xyz
  C -0.35899981  3.99836402 -0.01596306
  C -0.02881688  2.57416911 -0.32759148
  O  0.37427946  2.20841544 -1.40757876
  C -0.42875299  1.51298909  0.69152341
 Br -0.14602909  2.05541533  2.56398281
  C  0.26572733  0.19895777  0.45018124
  C -0.24117037 -1.02733998  0.17577182
  C -1.59542450 -1.78537401  0.06302185
  C -1.36334111 -3.13209779  0.80627231
  C -1.79399197 -2.00911774 -1.46022920
  C -2.99839260 -1.30662576  0.65773737
  C -3.84737169 -0.06248731  0.23901617
  C -3.29308209  1.32418463  0.66474006
  C -1.83933613  0.99594434  0.46057613
  C  1.04745861 -1.86469459 -0.08854668
  C  1.01445318 -3.09554408 -0.81675643
  N  1.06452841 -4.05527316 -1.43563025
  C  1.69266574 -1.93992461  1.33532996
  O  1.77644939 -2.87605252  2.06275960
  O  2.14838180 -0.71173184  1.57294384
  C  1.78131950  0.07959262  0.40436009
  C  2.65833332  1.33109349  0.34716736
  N  3.90324523  1.05130772 -0.05454447
  C  4.89812857  2.09318276 -0.18700912
  O  2.25378516  2.43595884  0.63427600
  N  2.02035258 -0.89984014 -0.63918201
  C  1.82251515 -0.50059097 -2.01614556
  H  0.42983052  4.63663045 -0.40748784
  H -1.28056636  4.24654536 -0.54239702
  H -0.48780056  4.18093249  1.04437465
  H -0.59016103 -3.05097686  1.56522021
  H -1.07632632 -3.92574367  0.12312112
  H -2.26422219 -3.45885694  1.31834069
  H -2.79255865 -1.70931461 -1.76676804
  H -1.66244688 -3.05266257 -1.72981659
  H -1.08760600 -1.42847599 -2.05027109
  H -2.92330666 -1.29834922  1.74933521
  H -3.64292088 -2.15110977  0.39797884
  H -3.97457414 -0.06033760 -0.84492722
  H -4.83378095 -0.22000969  0.67932155
  H -3.52733124  1.55659638  1.70313078
  H -3.68812394  2.11619348  0.02953845
  H -1.77492988  0.16095705  1.14508525
  H -1.79107270  0.64630334 -0.57667018
  H  4.14809350  0.10268137 -0.29584129
  H  4.56565846  2.83525487 -0.91522888
  H  5.83748847  1.65572799 -0.51002580
  H  5.03560300  2.59801632  0.77064085
  H  0.79956303 -0.17317674 -2.22904213
  H  2.48950581  0.32900632 -2.24007381
  H  2.07531762 -1.35030754 -2.65037100
