75
opt_min/./Product_3106_opt.xyz
  C -3.90398900  4.18094100  0.25718200
  N -2.96632758  3.30049423  0.90965463
  C -2.19500993  2.44167310  0.21805205
  O -2.24719251  2.34874574 -0.99207797
  C -1.19579996  1.61586679  1.06086364
  C -1.85275196  1.14621604  2.37342907
  C -0.85696827  0.43079399  0.18710665
  C  0.13739871  0.17689018 -0.69014350
  C  1.57615423  0.64291487 -0.72991075
  C  2.43680188 -0.36933424 -1.49394320
  C  3.29950504 -0.07668325 -2.54079428
  C  4.13662824 -1.04615687 -3.06890556
  C  4.13907799 -2.33121934 -2.55991252
  C  3.26759253 -2.64659838 -1.53036967
  C  2.43092088 -1.67889836 -1.00701340
  C  2.26573440  0.54024063  0.63475118
  C  1.73287434 -0.12781262  1.72965325
  C  2.46979195 -0.27448677  2.89532714
  C  3.75428571  0.22817817  2.98208589
  C  4.30955911  0.86573754  1.88569887
  C  3.57880034  1.00559949  0.72115506
  C  1.57270222  2.07835019 -1.33521228
  C  1.68038712  3.25495170 -0.36157825
  C  0.37514110  3.60286687  0.35123612
  C -0.04336246  2.58341518  1.42617766
  C -0.44062926 -0.89142987 -1.62024085
  C  0.33110279 -1.46669115 -2.79707716
  O  0.72162773 -0.78335226 -3.70146992
  O  0.38582412 -2.79494391 -2.78845408
  C  0.97796418 -3.40837508 -3.92850957
  O -1.58783627 -0.23449774 -2.35617912
  C -2.54760385 -0.10739595 -1.46743898
  O -3.69395797  0.19131094 -1.68298561
  C -1.94243000 -0.61203670 -0.13069921
  C -2.88283839 -1.12562327  0.94685224
  N -4.18479550 -0.90901060  0.70060435
  C -5.21772352 -1.35659306  1.60231021
  O -2.47094470 -1.74695003  1.90955672
  N -1.10254011 -1.71107146 -0.65450093
  C -1.81425666 -2.90004901 -1.08107424
  H -3.56170396  5.21801232  0.29153743
  H -3.98164746  3.86420192 -0.78154057
  H -4.88179640  4.10946585  0.73418023
  H -2.85400047  3.39119514  1.90474031
  H -2.86866607  0.79858829  2.21070229
  H -1.89127619  1.94998250  3.10567353
  H -1.28111017  0.32995928  2.80744761
  H  3.32411756  0.89976579 -2.99498753
  H  4.79586631 -0.78796471 -3.88495216
  H  4.80724864 -3.07858605 -2.96302123
  H  3.24068984 -3.64812061 -1.12615078
  H  1.75825613 -1.94518476 -0.20501120
  H  0.74001198 -0.54814430  1.68789454
  H  2.03039992 -0.79225001  3.73489058
  H  4.32645296  0.10982958  3.89011857
  H  5.32089158  1.24252441  1.93087946
  H  4.03210632  1.47847250 -0.13724221
  H  0.64266088  2.18319889 -1.89807898
  H  2.39476687  2.17144013 -2.03874012
  H  1.99069072  4.12751317 -0.93882500
  H  2.44144930  3.06232224  0.39533468
  H -0.41379966  3.72783433 -0.38953658
  H  0.52443083  4.56403193  0.84811354
  H -0.38753039  3.14764364  2.29547289
  H  0.82364807  2.01256885  1.74761568
  H  2.06527363 -3.37503786 -3.83915750
  H  0.67471744 -2.88281706 -4.83546016
  H  0.62459665 -4.43615979 -3.93960756
  H -4.45242662 -0.38364754 -0.12979064
  H -5.65127208 -0.51836435  2.15378994
  H -4.76857923 -2.05124611  2.31148851
  H -6.00637774 -1.85771131  1.04266018
  H -2.47371738 -3.20696106 -0.27238799
  H -1.08805497 -3.68983051 -1.25193082
  H -2.40732866 -2.74663129 -1.99065257
