44
opt_min/./Product_5458_opt.xyz
  C -2.47638000 -1.18484200 -0.38004800
  C -2.37708997 -1.52097534  1.07737273
  C -1.23172319 -1.97996081  1.57226474
  N -0.10398093 -2.10853692  0.77994124
  C  1.07375993 -2.75402245  1.30626820
  C  0.11666187 -1.13993921 -0.25075241
  C -1.15934347 -0.60237574 -0.93093184
  C -1.23202273 -0.76133139 -2.45161658
  N -0.62913430 -1.83975053 -2.98372545
  O -1.85385003  0.03104081 -3.12723034
  C -0.99959803  0.93353529 -0.65969487
  C -1.82077498  1.88907076 -1.53420089
  O -3.11912041  1.72919231 -1.30759492
  C -3.97413715  2.53836439 -2.11044660
  O -1.32937224  2.73710264 -2.21896957
  O -1.25719717  1.15209345  0.73337685
  C -0.17348632  0.68075040  1.37020859
  O -0.04213593  0.62626503  2.55470835
  C  0.77162134  0.23876792  0.24441241
  C  2.25228015  0.23147391  0.43580944
  C  2.83943742  0.33375227  1.69135456
  C  4.21817556  0.31974243  1.81030183
  C  5.01740451  0.21424221  0.68436997
  C  4.43372233  0.13115084 -0.56892389
  C  3.05664729  0.13770532 -0.69546779
  O  0.36688995  1.12951671 -0.79136274
  H -2.69872160 -2.10269083 -0.93934402
  H -3.27746532 -0.47283022 -0.57489231
  H -3.25371958 -1.41646563  1.68925216
  H -1.12745069 -2.29406555  2.59966019
  H  1.52310684 -3.38493744  0.53390886
  H  1.82643275 -2.03704020  1.64698879
  H  0.78640650 -3.38630187  2.14213556
  H  0.82754979 -1.56644149 -0.96880477
  H -0.24275725 -2.58222771 -2.42859008
  H -0.71864906 -1.97763136 -3.97835536
  H -4.98945435  2.23616884 -1.86790802
  H -3.82227657  3.59497829 -1.88206451
  H -3.75115558  2.36151978 -3.16375624
  H  2.21810207  0.42345158  2.56870502
  H  4.66867391  0.39938951  2.78828122
  H  6.09269708  0.20638325  0.78119060
  H  5.05331330  0.06202451 -1.45054761
  H  2.59335794  0.09553198 -1.66942223
