42
opt_min/./Product_890_opt.xyz
  C  3.57007200 -0.51838900 -2.09996100
  O  2.35619332 -0.05924333 -1.51531466
  C  2.08864326 -0.49842163 -0.27992868
  O  2.82988256 -1.23038963  0.31844634
  C  0.79015627  0.08583372  0.25687212
  C -0.30604036  0.23537418 -0.84179943
  C -0.62302758  1.73830451 -0.82291461
  C -1.32699832  2.16414842  0.46887170
  C -0.21664538  2.03229006  1.53213354
  C  0.99057327  1.54395367  0.72239312
  C  0.77967180  2.30588285 -0.58896845
  C -1.38531390 -0.74778217 -0.34023257
  C -2.77185597 -0.69697066 -0.93136296
  C -2.82715170 -0.90370890 -2.41306747
  O -3.74311812 -0.58318178 -0.22815271
  N -1.28557940 -0.54854386  1.08954344
  C  0.08319536 -0.91480689  1.22920232
  C  0.49477228 -1.09493470  2.70344249
  C  1.90341044 -1.46793258  2.98473328
  O -0.35232182 -0.96666187  3.54728742
  O  0.19014197 -2.20388037  0.51605386
  C -0.65721355 -2.11780877 -0.50773936
  O -0.78631143 -2.91957195 -1.38154870
  H  3.47543874 -1.57209524 -2.36901862
  H  4.39451719 -0.40435840 -1.39283412
  H  3.72819670  0.09137745 -2.98603535
  H  0.05619561 -0.05455592 -1.82927382
  H -1.13755577  2.06050544 -1.72687041
  H -2.19456730  1.55234434  0.69679150
  H -1.65839479  3.19947750  0.37457847
  H -0.49440647  1.35240554  2.33044691
  H  0.02149054  2.99944700  1.97781097
  H  1.94629032  1.69283868  1.22529266
  H  0.77906342  3.38539950 -0.43974917
  H  1.49217376  2.04862934 -1.36856651
  H -2.76263161 -1.97997143 -2.58778253
  H -3.77695055 -0.54251583 -2.80381456
  H -1.99553094 -0.43045712 -2.92476803
  H -1.94007724 -1.08322026  1.65283350
  H  2.15028401 -2.35221635  2.39864387
  H  2.02426279 -1.65767549  4.04987981
  H  2.57695274 -0.67728677  2.66261445
