30
opt_min/./Product_3585_opt.xyz
  C  2.79625859 -0.67553784  0.46109190
  C  1.27816974 -0.77097155  0.38320932
  C  0.58162207 -0.18484435 -0.86874526
  C  1.35942430  0.95565315 -1.51346478
  C -0.76828641  0.30235245 -0.26348661
  C -1.82025255 -0.82853159 -0.31927312
  O -2.96189889 -0.43212296  0.22132779
  C -4.01121070 -1.39510483  0.24788321
  O -1.61239945 -1.91860657 -0.77127575
  C -1.45856457  1.48320338 -0.96105372
  C -1.97398773  2.53806281 -0.03668409
  O -1.57597190  1.51027583 -2.15774734
  N -0.52699013  0.55358727  1.13542173
  C  0.55701502 -0.01373674  1.48022872
  C  1.06201133  0.03970862  2.79692006
  N  1.52477609  0.06566690  3.84576675
  H  3.14555122 -1.14685040  1.37792952
  H  3.24881984 -1.19168534 -0.38195392
  H  3.13215894  0.35813753  0.46357407
  H  0.99171519 -1.82629778  0.48588352
  H  0.38968199 -0.96261762 -1.60930756
  H  0.81216827  1.34664828 -2.36631602
  H  2.32191001  0.59945633 -1.87067491
  H  1.52495447  1.76634490 -0.80505844
  H -4.86297211 -0.89983552  0.70571421
  H -3.71219249 -2.26569368  0.83414815
  H -4.25046346 -1.71671463 -0.76715055
  H -2.51858928  2.08250115  0.78426523
  H -2.59591378  3.24284971 -0.58106780
  H -1.11857368  3.06065204  0.39072836
