72
opt_min/./Product_2737_opt.xyz
  C -0.14584900 -1.64007900 -2.80658900
  C -0.23203275 -2.04764023 -1.32130982
  C -1.53216077 -2.86761050 -1.20504482
  C -0.28603489 -0.75140861 -0.50445927
  C  0.62282439  0.22400080 -0.33203478
  C  2.13440322  0.36777089 -0.48851739
  C  2.46948133  1.19847127 -1.73845974
  C  2.64043248  1.04855087  0.78515112
  C  2.34730002  0.44223300  2.00766739
  C  2.78576499  0.97978177  3.19977819
  C  3.53911620  2.14482776  3.20174584
  C  3.83345992  2.75413746  1.99787022
  C  3.38669530  2.21463533  0.80076794
  C  2.94904543 -0.94367881 -0.52459149
  C  2.90518816 -1.73661499 -1.83206009
  C  2.21956385 -3.08191336 -1.65045911
  C  0.88832284 -3.03957507 -0.89386086
  C -0.04723341  1.48211233  0.21527988
  C  0.04489328  2.65588547 -0.72919047
  C -0.44527696  2.55456834 -2.02569821
  C -0.39474732  3.64321058 -2.87684378
  C  0.14136798  4.84466136 -2.44277350
  C  0.61553511  4.95572447 -1.14647837
  C  0.56256235  3.86816978 -0.29230428
  N -1.43772103  1.12073093  0.44608496
  C -1.62460566 -0.30200653  0.12174259
  C -2.79477780 -0.35571465 -0.87641510
  C -4.12215843 -0.89512570 -0.41026151
  O -2.66696432  0.13107182 -1.97684782
  C -1.90477427 -0.95075223  1.47530824
  C -1.21044411 -2.04543185  1.96587249
  C -1.48116266 -2.55889024  3.22381216
  C -2.44347129 -1.97700673  4.02677668
  C -3.10837791 -0.85118561  3.57027964
  C -2.83284407 -0.34060473  2.31660581
  H  0.48421925 -0.77081925 -2.95340634
  H  0.22877553 -2.46098059 -3.41122880
  H -1.13746609 -1.37423597 -3.16828369
  H -2.39433962 -2.30114505 -1.53726871
  H -1.45310950 -3.73173434 -1.86443530
  H -1.71454231 -3.22567302 -0.19618804
  H  2.21745609  2.24464778 -1.59623997
  H  1.89762495  0.86167214 -2.59988453
  H  3.52938083  1.11686657 -1.97130275
  H  1.73011132 -0.44656786  2.02906231
  H  2.53477590  0.49440237  4.13146529
  H  3.88642176  2.57086229  4.13123979
  H  4.41571460  3.66475382  1.98027234
  H  3.65016610  2.72424751 -0.11381384
  H  3.98092226 -0.67513832 -0.29515168
  H  2.61177833 -1.57871798  0.28989151
  H  2.38547070 -1.17545406 -2.60021043
  H  3.91921453 -1.90406081 -2.20498853
  H  2.07525628 -3.54927933 -2.62601452
  H  2.88322043 -3.73473457 -1.07406791
  H  0.47949535 -4.05012801 -0.97396473
  H  1.10193416 -2.88935832  0.16502837
  H  0.38696490  1.77988804  1.17929225
  H -0.88277796  1.62555812 -2.36299625
  H -0.77495831  3.55419516 -3.88358568
  H  0.18463384  5.69301426 -3.11049809
  H  1.02471669  5.89315787 -0.79828603
  H  0.93892760  3.95146847  0.71766583
  H -2.05017627  1.71557994 -0.10592523
  H -4.60113283 -0.14576763  0.21746309
  H -4.75730134 -1.07103420 -1.27688714
  H -4.01213984 -1.80144221  0.17737200
  H -0.42828960 -2.49840994  1.38233744
  H -0.92745111 -3.41742952  3.57762754
  H -2.65863234 -2.37913401  5.00559560
  H -3.83893129 -0.36275161  4.19960469
  H -3.32279947  0.56423402  1.99436487
