74
opt_min/./Product_3040_opt.xyz
  C -3.64577824 -2.86147106  1.29466284
  C -3.00246549 -1.59526426  0.81581303
  O -3.68115968 -0.61401779  0.60350413
  C -1.49703368 -1.61629092  0.43098325
  C -1.82877313 -1.91441605 -1.05770807
  C -2.11566792 -0.74072339 -1.94390836
  O -1.99983076 -3.04797378 -1.43483021
  C -0.83421639 -0.28126127  0.71849959
  C  0.38120402  0.24515111  0.47610322
  C  1.58085436 -0.34036915 -0.26803054
  C  1.96664242  0.63795009 -1.38716536
  C  2.95108483  1.60775383 -1.23535793
  C  3.26375680  2.48459903 -2.25973779
  C  2.60692572  2.40976048 -3.47270706
  C  1.63422752  1.44259297 -3.64823107
  C  1.31830799  0.57322693 -2.61967028
  C  2.74018265 -0.58307477  0.69197671
  C  2.51814130 -0.86460156  2.03680970
  C  3.56506403 -1.18041507  2.88484906
  C  4.85829924 -1.24562456  2.39769014
  C  5.08640058 -1.02372388  1.05108081
  C  4.03690243 -0.71041778  0.20553524
  C  1.32884741 -1.72225729 -0.95226707
  C  1.51329224 -2.98791764 -0.10291014
  C  0.20896358 -3.64011932  0.33691786
  C -0.71957967 -2.74585422  1.16130272
  C  0.47049868  1.63798504  1.13694623
  C  0.19767463  2.85995965  0.19592438
  N -0.13982394  2.60626115 -1.07386351
  C -0.55870254  3.65867454 -1.96784489
  O  0.30471835  3.98201898  0.64253043
  C  1.72044115  2.03424483  1.92487419
  N -0.65564826  1.67210321  2.07560160
  C -1.61733022  0.67221583  1.63597392
  C -2.13513288 -0.05833667  2.76703425
  N -2.45675777 -0.66068118  3.68620209
  C -2.70693194  1.50228548  0.89347170
  C -3.76934410  2.05223479  1.78974292
  O -2.57336283  1.79374065 -0.26552347
  H -3.36961827 -3.06689940  2.32646207
  H -4.72447572 -2.72766757  1.24730213
  H -3.35321019 -3.69694899  0.66107934
  H -1.72126115  0.19352692 -1.56047736
  H -1.76873027 -0.94352396 -2.95468384
  H -3.20096793 -0.63544149 -1.99082202
  H  3.51609267  1.67416980 -0.31966741
  H  4.03258533  3.22637812 -2.10395858
  H  2.85317965  3.09068303 -4.27325101
  H  1.11544306  1.35822431 -4.59238215
  H  0.55264675 -0.16471115 -2.79680186
  H  1.51050447 -0.85642206  2.42773823
  H  3.36522311 -1.38573249  3.92650271
  H  5.67713105 -1.48735055  3.05825510
  H  6.08613339 -1.10458752  0.65134353
  H  4.23277973 -0.57066894 -0.84689109
  H  0.33384239 -1.74548247 -1.38564449
  H  2.04067192 -1.77378010 -1.77784765
  H  2.11809237 -2.78568770  0.77874261
  H  2.06137398 -3.72197956 -0.69695114
  H -0.32570082 -4.02757926 -0.52803885
  H  0.46433255 -4.49643454  0.96597762
  H -0.14304134 -2.28241380  1.96414043
  H -1.42919767 -3.41635885  1.63544141
  H -0.36401045  1.66523222 -1.35193916
  H -0.26021495  3.40258850 -2.98265683
  H -1.64132308  3.79562565 -1.92359308
  H -0.07090594  4.58013664 -1.65709321
  H  2.57644324  2.16580616  1.27597707
  H  1.50041847  2.99978054  2.37787377
  H  1.96598945  1.32175164  2.70491941
  H -0.34558340  1.50517596  3.02751772
  H -4.49713067  1.26675197  1.98992360
  H -4.27046430  2.88082259  1.29590891
  H -3.33842842  2.37629148  2.73347089
