60
opt_min/./Product_2787_opt.xyz
 Cl  1.70465300  3.27336900 -2.36711000
  C  1.64340674  1.60474457 -2.08070611
  C  2.57982683  0.73693191 -1.66630410
  C  3.97905593  0.89603332 -1.33233964
  C  4.57750556  0.04344261 -0.40134447
  C  5.90903171  0.19494402 -0.06429293
  C  6.66973389  1.18907926 -0.65745827
  C  6.08887079  2.03126890 -1.59155803
  C  4.75612147  1.89078337 -1.92728388
  C  1.79529181 -0.56983967 -1.51658435
  C  0.95705449 -0.43322894 -0.21601615
  C -0.04888463  0.65577422 -0.64170119
  C  0.34306080  0.81749813 -2.14356630
  O  0.80579260 -0.45563830 -2.51762925
  C -1.43481674  0.02297817 -0.40076808
  C -2.00728479  0.32556704  0.98350447
  C -3.33241883 -0.02958845  1.21674954
  C -3.90874851  0.16022810  2.45845007
  C -3.16746582  0.70847887  3.49198194
  C -1.84698381  1.05746662  3.27225225
  C -1.26773803  0.86579609  2.02815202
  C -2.43443359  0.44740944 -1.45259123
  C -2.82959360  1.77973234 -1.50662582
  C -3.73888461  2.19407953 -2.46162266
  C -4.26028663  1.28301357 -3.36624047
  C -3.86659269 -0.04247433 -3.31329388
  C -2.95444032 -0.46302220 -2.35959007
  O -1.19751484 -1.38332726 -0.48938576
  C  0.05671004 -1.65643388  0.08128998
  C  0.57592201 -2.98236253 -0.53485699
  C  1.89050969 -3.47416578  0.00316362
  O -0.08188435 -3.57459801 -1.33968864
  C -0.01868461 -1.94137679  1.59068182
  C -1.26817935 -2.62908480  2.05430781
  O  0.91964284 -1.70149128  2.31103514
  H  3.99048731 -0.73040528  0.06988728
  H  6.34887871 -0.46921715  0.66474145
  H  7.71039310  1.30278206 -0.39374879
  H  6.68373488  2.80097561 -2.06089331
  H  4.32051967  2.54472777 -2.66571152
  H  2.38346054 -1.47315227 -1.63542639
  H  1.56507122 -0.17351677  0.65232109
  H  0.07960834  1.60191414 -0.12072573
  H -0.43364135  1.17768403 -2.81078963
  H -3.91117222 -0.46353311  0.41494982
  H -4.93905286 -0.11936638  2.62147930
  H -3.61188065  0.86196937  4.46388591
  H -1.25517019  1.47803040  4.07118636
  H -0.23121818  1.13338398  1.89670477
  H -2.42656862  2.48807236 -0.79692396
  H -4.04264103  3.22989027 -2.50160201
  H -4.97149435  1.60803876 -4.11127638
  H -4.26871681 -0.75505712 -4.01792866
  H -2.62961640 -1.48986571 -2.31702920
  H  1.67460648 -4.28370243  0.70180732
  H  2.44392690 -2.70737034  0.53396309
  H  2.48211598 -3.89432341 -0.80757488
  H -1.95718687 -2.79372851  1.23235739
  H -0.98889026 -3.58166820  2.50392817
  H -1.74461646 -2.02845444  2.82641687
