52
opt_min/./Product_5783_opt.xyz
  C -1.08911000 -0.66127000 -1.29846700
  C -0.71750694 -0.34252483  0.14763621
  C  0.70144289 -0.79845269  0.54038835
  N  1.10606543 -2.02369041 -0.08358550
  C  2.38680677 -2.57307136  0.28005956
  C  0.36472155 -2.61845947 -1.04832841
  C -0.71926928 -2.07705706 -1.63472975
  C -1.58702358 -2.75916767 -2.58898997
  N -1.30203017 -4.08393298 -2.87118384
  O -2.58278472 -2.23358011 -3.06061590
  C  1.54961602  0.50479206  0.35828304
  C  2.09434064  0.72505529 -1.07850713
  C  2.68466373  2.07665984 -1.28835938
  O  2.00183409 -0.12117771 -1.92754282
  C  2.69602493  0.63951033  1.36850517
  O  2.61938312  1.23191816  2.40201998
  O  3.80107584  0.01586702  0.93300949
  C  4.96693204  0.08900842  1.75072921
  O  0.64350664  1.53312735  0.70612312
  C -0.70140139  1.17772487  0.44281045
  C -1.52011467  1.58821016  1.69098602
  N -2.74157280  0.99459076  1.78896662
  C -3.65293914  1.31512886  2.86485319
  O -1.12551624  2.39264707  2.49407262
  C -1.15822513  2.04823753 -0.76812377
  O -0.33955177  2.60430627 -1.46445779
  N -2.48246130  2.14251211 -0.96532010
  C -3.03851518  2.87909103 -2.07834686
  H -0.55771119  0.00341222 -1.98552032
  H -2.15931752 -0.52516743 -1.46361497
  H -1.42019870 -0.86704016  0.80309216
  H  0.69030230 -0.96699484  1.63449012
  H  2.38666153 -2.86686775  1.33695603
  H  3.18161201 -1.84638412  0.11770956
  H  2.58876145 -3.45143144 -0.32824912
  H  0.70082765 -3.61145698 -1.30875843
  H -1.92934072 -4.46523467 -3.56884727
  H -0.34795069 -4.36688388 -3.01812918
  H  1.84166736  2.76669628 -1.36434488
  H  3.29531150  2.39077587 -0.44709776
  H  3.24866764  2.09708551 -2.21769877
  H  5.76298328  0.54238344  1.16021040
  H  5.24958739 -0.92478535  2.03693607
  H  4.76127063  0.69275747  2.63579156
  H -3.01758969  0.25672036  1.16131040
  H -3.96114620  0.40957985  3.38871039
  H -3.12719566  1.97663189  3.55137650
  H -4.53854575  1.82691996  2.48151878
  H -3.13651162  1.70090129 -0.34085046
  H -3.65130893  2.22085171 -2.69612483
  H -3.64616893  3.71163942 -1.72115005
  H -2.20872500  3.26392329 -2.66839365
