38
opt_min/./Product_4881_opt.xyz
  O  0.45722700 -3.64370000  0.95535900
  C  0.27855930 -3.21331226 -0.08563190
  O  0.05776222 -2.80024961 -1.13220394
  C -0.00221953 -0.24551917  1.10977286
  C -1.31583685 -0.18838035  0.99224568
  C -2.80214610 -2.99047593  1.19964700
  O -3.11948774 -2.79086803  0.11786758
  O -2.48545624 -3.21854074  2.27331990
  C -1.69406927  0.37243429 -0.35283726
  C -2.38807045  1.73640403 -0.17910638
  C -1.97621039  2.80731035 -1.14083431
  O -3.24597024  1.88134740  0.65261255
  N -0.44296706  0.42579251 -1.11095753
  C  0.65835331  0.28546275 -0.14363556
  C  1.81274661 -0.60774819 -0.60996415
  C  2.27163224 -0.44538414 -2.03266273
  O  2.35970770 -1.36211382  0.15722373
  C  1.34441289  1.63229174  0.08757028
  C  1.52757823  2.49771374 -0.98490753
  C  2.15982076  3.71458440 -0.80419286
  C  2.62772437  4.07667729  0.44753446
  C  2.45612191  3.21467927  1.51621142
  C  1.82050541  1.99775263  1.33904983
  H  0.56305617 -0.64214496  1.93048261
  H -2.05724828 -0.46917609  1.71527989
  H -2.44088386 -0.25954090 -0.85028256
  H -2.36868302  2.55199115 -2.12399063
  H -0.89496630  2.85149598 -1.20858361
  H -2.38682090  3.76377583 -0.82911664
  H -0.42057041 -0.34611231 -1.76839482
  H  2.70548157 -1.38154154 -2.37658991
  H  1.47476644 -0.12928066 -2.69673396
  H  3.05591207  0.31096373 -2.04418957
  H  1.16648792  2.21883324 -1.96302895
  H  2.29019016  4.38005663 -1.64504549
  H  3.12567317  5.02424363  0.58804541
  H  2.81822431  3.48840060  2.49589493
  H  1.69506635  1.33530399  2.18011318
