41
opt_min/./Product_5142_opt.xyz
  C -0.46491549  1.18471493  0.73438244
  C  0.16114136  0.27609286 -0.31899614
  C -0.68065989 -0.98934001 -0.52720149
  N -2.08328576 -0.76759729 -0.58934987
  C -2.91392048 -1.86851398 -1.00617087
  C -2.63311341  0.39501606 -0.12505561
  C -1.93318504  1.37876028  0.46245549
  C -2.48076077  2.67240003  0.90707673
  N -3.79877308  2.91573143  0.66826705
  O -1.79412341  3.50221980  1.47450454
  C -0.18493383 -1.90465786  0.66310663
  C -0.31598044 -3.30662167  0.32057623
  N -0.39674759 -4.40193264  0.00306037
  C -0.98960299 -1.67985388  1.85951738
  N -1.64096433 -1.55448904  2.78784478
  N  1.20091172 -1.50833911  0.90255221
  C  1.50591779 -0.31278915  0.13193462
  C  2.43619210 -0.67832565 -1.03422797
  O  2.39369598  0.19429358 -2.02252718
  C  3.31886027  0.01774782 -3.09190843
  O  3.14509280 -1.65361338 -0.98789598
  C  2.37629491  0.69887882  0.92740055
  C  2.91923171  0.17980897  2.21795430
  O  2.62073863  1.77695862  0.46139418
  H -0.33975749  0.74688591  1.73057328
  H  0.02576549  2.15830001  0.74827557
  H  0.26502816  0.81793729 -1.26031959
  H -0.35608038 -1.49379275 -1.45218143
  H -3.87771477 -1.49396786 -1.34564934
  H -2.43774503 -2.40330631 -1.83006860
  H -3.08356291 -2.57828054 -0.18815463
  H -3.69847060  0.45294271 -0.29008766
  H -4.15855941  3.80849698  0.96052978
  H -4.39739589  2.31021518  0.14085579
  H  1.86598125 -2.24703739  0.68263240
  H  3.50241681  1.00681755 -3.50409306
  H  4.24413510 -0.42581820 -2.72144885
  H  2.88403174 -0.63617589 -3.85012174
  H  2.14523716 -0.33074138  2.78323843
  H  3.69901384 -0.54641769  1.98918669
  H  3.34792179  0.99704713  2.79127188
