40
opt_min/./Product_4799_opt.xyz
  C  1.53993604 -0.04098198 -1.82658797
  C  0.99069655 -1.32300273 -1.20519149
  C  0.30568999 -1.06981955  0.15559217
  N  1.04679087 -0.18537532  1.00424333
  C  0.87632694 -0.31125393  2.42811922
  C  1.95340114  0.68409952  0.49527990
  C  2.24409099  0.81302807 -0.81126326
  C  3.27399050  1.71059004 -1.33770145
  N  3.78287997  2.64329180 -0.45892920
  O  3.72237055  1.60829489 -2.46659287
  C -1.13624189 -0.62847916 -0.27380249
  C -1.48829618  0.85664393  0.00740967
  N -2.36092569  1.32381765 -0.88861782
  C -2.88411173  2.66748071 -0.82712506
  O -1.06804337  1.46812248  0.96557767
  C -2.33898913 -1.36354942  0.35831358
  C -2.28259381 -1.81632745  1.78781433
  O -3.33386530 -1.47844883 -0.31194584
  O -1.22160762 -0.85323882 -1.68225217
  C -0.21888239 -1.78882401 -2.02976503
  C -0.59665855 -3.14587375 -1.67029473
  N -0.88986827 -4.19781111 -1.33528037
  H  2.23812287 -0.27410804 -2.63216458
  H  0.71282783  0.53058336 -2.26440745
  H  1.76764217 -2.08328428 -1.11447328
  H  0.21414543 -2.03482290  0.67646189
  H  1.10217298 -1.33118056  2.75686096
  H  1.55385889  0.37216029  2.93263410
  H -0.14215823 -0.04498931  2.71724146
  H  2.46812552  1.27185711  1.23906258
  H  3.17681241  3.05438509  0.22918130
  H  4.43344806  3.28709895 -0.88607498
  H -2.68624205  0.68875222 -1.60219861
  H -3.83448319  2.71047142 -1.35145129
  H -3.02458842  2.94579573  0.21760306
  H -2.18765071  3.37735589 -1.28039726
  H -1.27761541 -1.90593268  2.17850854
  H -2.83321737 -1.09141015  2.38669759
  H -2.80137316 -2.76920627  1.86728071
  H -0.06589633 -1.72265961 -3.11131472
