53
opt_min/./Product_2552_opt.xyz
  C  2.52852200 -3.63778400 -0.66016800
  C  2.89705210 -2.19035740 -0.87981396
  O  3.71548466 -1.86422984 -1.71578025
  C  2.30806272 -1.18274680  0.01204754
  C  2.80415627  0.05891773  0.19913216
 Br  4.17887784  0.91664215 -0.69400413
  C  2.13031728  0.61425201  1.42981002
  C  0.65102094  0.97737365  1.16973950
  C  0.03546912 -0.41651185  0.93108173
  C  1.29005843 -1.32090359  1.13352552
  O  1.94058503 -0.58766505  2.17669578
  C -0.93403399 -0.22592712 -0.27104258
  C -0.60556772 -0.59865518 -1.73568099
  C  0.02284703 -1.94051555 -2.00104963
  O -1.00349054  0.09841681 -2.63050496
  C -2.18935991 -1.08515833 -0.17676826
  C -2.20834361 -2.27605173  0.53831627
  C -3.34653107 -3.06434559  0.55928839
  C -4.47560174 -2.68295765 -0.14295580
  C -4.45541597 -1.51106031 -0.88088609
  C -3.32071833 -0.72317075 -0.90592620
  N -1.20718516  1.22384559 -0.24196701
  C -2.25590114  1.63631536  0.68487602
  C  0.09274620  1.84960395  0.02094935
  C  0.02777884  3.30468820  0.47886609
  O  1.25023200  3.67017488  0.89692539
  C  1.40995040  5.01734746  1.32403641
  O -0.91268445  4.04854527  0.47123853
  C  0.93367666  1.86811305 -1.25946930
  H  1.73993582 -3.77652089  0.06861179
  H  3.42604620 -4.16054071 -0.32971220
  H  2.23694055 -4.07943532 -1.61179145
  H  2.70150019  1.35467944  1.98311699
  H  0.29484762  1.39258203  2.11704281
  H -0.62073829 -0.66132808  1.77492099
  H  1.07803589 -2.33052761  1.47469814
  H  1.10129447 -1.82659107 -2.06437872
  H -0.22200492 -2.65560711 -1.22243925
  H -0.32584862 -2.30016617 -2.96741871
  H -1.33762782 -2.60039213  1.08778131
  H -3.34670598 -3.98286793  1.12781611
  H -5.36143353 -3.29937959 -0.12333391
  H -5.32468541 -1.21206656 -1.44606769
  H -3.28805618  0.17843336 -1.49711381
  H -2.75685189  2.50755159  0.26714882
  H -1.86915162  1.90414586  1.67217433
  H -2.98107586  0.83742837  0.81014103
  H  2.45962724  5.26454266  1.18215985
  H  1.13705482  5.10707047  2.37751940
  H  0.77199967  5.67599082  0.73168520
  H  0.31398589  2.24349877 -2.07075259
  H  1.26695530  0.87137833 -1.53095019
  H  1.79953572  2.51230673 -1.13278058
