41
opt_min/./Product_4466_opt.xyz
  C  0.10593100 -0.70914400 -1.25189400
  O -0.45705851 -1.00136856 -2.28262240
  C -0.64866280 -0.50740422  0.08738822
  O -0.54103088 -1.60429126  0.94582315
  C -0.88394330 -2.86465472  0.40592434
  C  0.01145988  0.75288457  0.74318318
  O -0.67299188  1.03857559  1.93097293
  C -0.22135528  2.00949004  2.86209258
  C  1.51063878  0.55869266  0.91735199
  O  2.08399868  0.80642091  1.95670011
  C  2.24042092  0.00542031 -0.23007434
  C  3.72957840  0.08874609 -0.14319486
  C  1.58063907 -0.60978584 -1.22912235
  C  2.28355120 -1.23191029 -2.39472850
  N -0.34279700  1.63881874 -0.37595030
  C -0.08518579  3.05956992 -0.29018135
  O -1.76945622  1.44422209 -0.50058519
  C -2.08302432  0.07486419 -0.18802895
  C -2.87742927 -0.48831561 -1.37473669
  C -2.95168744 -0.01696447  1.08178924
  H -0.32308725 -3.08171362 -0.50837008
  H -0.62128546 -3.58791907  1.17677017
  H -1.95519613 -2.93262708  0.19685815
  H -0.02325349  2.97619890  2.39579983
  H -1.05704544  2.10944490  3.55611126
  H  0.66338559  1.67774118  3.40405737
  H  4.01765216  0.98720082  0.39796862
  H  4.10544033 -0.76495653  0.42325560
  H  4.18995117  0.08463549 -1.12627624
  H  2.93355617 -2.03978897 -2.06072274
  H  2.89794164 -0.49395556 -2.90855114
  H  1.55029449 -1.62495066 -3.09520197
  H -0.15668384  3.46379630 -1.30029857
  H -0.81002074  3.57751083  0.34568314
  H  0.92557595  3.20519041  0.08640167
  H -3.92263930 -0.21098349 -1.25550135
  H -2.51960282 -0.05921516 -2.30611242
  H -2.79833588 -1.56865347 -1.43066494
  H -3.85991381 -0.58214971  0.88752727
  H -3.22295866  0.98523599  1.40023009
  H -2.40384514 -0.49880726  1.88692396
