43
opt_min/./Product_4913_opt.xyz
  C -0.84529094 -0.54042252 -1.41505825
  C -2.10306419 -1.35642046 -1.35830370
  C -2.85840834 -1.35920256 -0.25912552
  N -2.54882386 -0.64940611  0.87359209
  C -3.32018853 -0.78623517  2.08186869
  C -1.28901103  0.01291821  0.98945371
  C -0.21487533 -0.44712854 -0.01692138
  C  0.37316235 -1.76968531  0.47411400
  N  0.25661633 -2.82591730 -0.35859821
  O  0.93888104 -1.87099943  1.54562289
  C  0.76329128  0.76807377  0.01953745
  C  1.68836208  0.70246568 -1.20916971
  N  2.58076712 -0.30709095 -1.13509941
  C  3.52719570 -0.55497246 -2.19915014
  O  1.64089991  1.46654176 -2.14697482
  C  1.62725930  0.91948115  1.28440407
  N -0.19348539  1.86060549 -0.11121834
  C  0.27619740  3.22427384 -0.10520213
  C -1.35613762  1.56739725  0.72221822
  C -2.57572590  1.92428937  0.00409351
  N -3.52821930  2.20802960 -0.55924577
  C -1.37758627  2.26942024  1.99219043
  N -1.36911853  2.81336645  2.99943569
  H -1.07655317  0.47623003 -1.75172268
  H -0.13566000 -0.94504656 -2.13839681
  H -2.40978874 -1.90309231 -2.23395537
  H -3.78007700 -1.91603668 -0.20005892
  H -4.31014813 -1.16380418  1.84111547
  H -2.83886119 -1.46912202  2.79196457
  H -3.43832554  0.18785188  2.56249386
  H -0.89794063 -0.15009750  2.00250799
  H -0.40388092 -2.82065321 -1.11717905
  H  0.55804628 -3.71851119  0.00094394
  H  2.58506239 -0.92488597 -0.34166653
  H  4.36963771 -1.12088465 -1.81227760
  H  3.06084097 -1.10802106 -3.01839354
  H  3.87157111  0.40064235 -2.59252251
  H  2.03335553 -0.02725595  1.62375337
  H  2.44536363  1.60710716  1.08363416
  H  1.03246803  1.32917061  2.09990347
  H -0.55100476  3.87344719 -0.39386567
  H  0.66517830  3.56085401  0.86576843
  H  1.05592286  3.30984331 -0.85816090
