46
opt_min/./Product_5193_opt.xyz
  C -3.29085600 -0.40250800  0.41703600
  C -3.62656155 -0.57980879 -1.02505829
  C -2.65721647 -0.92825848 -1.86107985
  N -1.33149609 -1.10079449 -1.44431205
  C -0.42909072 -1.39937445 -2.54118318
  C -0.89375410 -0.00133926 -0.57673336
  C -1.90855406  0.26064517  0.57401567
  C -2.09611264  1.78386632  0.67793488
  N -1.39101107  2.38399343  1.66417148
  O -2.83632112  2.39701870 -0.05294448
  C -1.18327787 -0.31979607  1.74752517
  N  0.02753857 -0.60643072  1.56945497
  C  0.44431675 -0.19471020  0.23168796
  C  1.18009044  1.13326611  0.42842482
  C  1.22236223  2.14876165 -0.51772985
  C  1.92469851  3.31669829 -0.26998148
  C  2.60523849  3.48835934  0.92145197
  C  2.59602338  2.46984277  1.85958138
  C  1.89616085  1.30343930  1.61148837
  C  1.46007338 -1.19436872 -0.28285246
  C  2.45420489 -0.82949543 -1.18348925
  C  3.38907482 -1.75720626 -1.60733026
  C  3.35193868 -3.05506641 -1.12674581
  C  2.37558048 -3.41989122 -0.21572468
  C  1.43759713 -2.49553722  0.20546699
  H -4.04552688  0.19069240  0.93426388
  H -3.24735511 -1.38888334  0.89245309
  H -4.64216744 -0.44731816 -1.34980392
  H -2.86112077 -1.12181855 -2.90443657
  H -0.98870293 -1.88038963 -3.34173084
  H  0.05032235 -0.49978349 -2.94726436
  H  0.34557230 -2.08989608 -2.21754413
  H -0.81697694  0.90198134 -1.19871261
  H -1.44038324  3.38897142  1.72217140
  H -0.66365946  1.91204777  2.17405468
  H -1.66714509 -0.51139911  2.69260394
  H  0.71970667  2.05107303 -1.46872423
  H  1.93829633  4.09365592 -1.01957789
  H  3.14878776  4.40126259  1.11137930
  H  3.13868401  2.58126010  2.78668494
  H  1.89787335  0.50652243  2.33875820
  H  2.50132655  0.18123945 -1.55921407
  H  4.15298365 -1.46322694 -2.31185280
  H  4.08543127 -3.77594895 -1.45751407
  H  2.34408795 -4.42809173  0.17020281
  H  0.67698121 -2.77259245  0.91930846
