38
opt_min/./Product_3506_opt.xyz
  C  3.90644600  0.11297000  0.43471600
  C  2.45111017 -0.10204200  0.13025470
  C  2.19214913 -0.49030009 -1.29763773
  C  1.53182413  0.05629185  1.07886244
  C  0.04257213 -0.09365180  0.99086896
  C -0.60431575  0.63494890 -0.21439781
  C -1.60558822  1.66467815  0.23461421
  C -1.03191197  3.00026844  0.62194701
  C -2.90344956  1.41104634  0.32310528
  C -1.20457259 -0.51823202 -0.99466993
  C -1.78955689 -0.30820236 -2.34549991
  N -1.12412707 -1.65079769 -0.44595348
  C -0.49707517 -1.56566032  0.85589702
  C  0.57947454 -2.64467881  0.97290781
  C -1.57207550 -1.83554342  1.91535534
  H  4.05198588  0.50654232  1.43689756
  H  4.44957754 -0.82830426  0.35139606
  H  4.34122435  0.80869954 -0.28238817
  H  2.95673586 -1.19328162 -1.62554631
  H  2.25966923  0.38333303 -1.94802748
  H  1.21749626 -0.94801346 -1.43030021
  H  1.88404829  0.33549075  2.06345943
  H -0.38162655  0.31575197  1.91114875
  H  0.15255158  1.13547860 -0.82448460
  H  0.05332231  2.96253597  0.66833670
  H -1.32131390  3.76068160 -0.10208741
  H -1.40999985  3.31193144  1.59423069
  H -3.60267431  2.14671514  0.68004366
  H -3.30511565  0.45183953  0.04382800
  H -0.99311972 -0.33599701 -3.08956978
  H -2.49600794 -1.10029713 -2.57734247
  H -2.27971302  0.66029916 -2.40245277
  H  1.30606825 -2.56799062  0.17156593
  H  1.09610895 -2.56252978  1.92542274
  H  0.10488709 -3.62083749  0.90913248
  H -1.12078539 -1.87279258  2.90349496
  H -2.05403974 -2.78753788  1.70958708
  H -2.32920497 -1.05429963  1.89801433
