39
opt_min/./Product_782_opt.xyz
  C  1.45201566 -4.25772266 -1.97741537
  N  1.29936253 -2.85388859 -1.67585240
  C  0.11000030 -2.25781492 -1.82797188
  O -0.88246711 -2.82654390 -2.24899888
  C  0.04723232 -0.80417602 -1.50841206
  C  0.84684988  0.13356081 -0.95728368
  C  2.09232816  0.01553202 -0.19523693
  O  2.60409739 -1.02456312  0.15099077
  O  2.59155589  1.22324953  0.09993683
  C  3.79424693  1.26413093  0.85652399
  C  0.14217129  1.45974786 -1.19811885
  C -1.06046468  1.63243545 -0.23198472
  C -1.91288065  0.42382360 -0.65194459
  C -1.17113909 -0.01314128 -1.95885955
  O -0.58119146  1.19698281 -2.39310018
  C -1.90146687 -0.51155234  0.58765021
  C -3.26496301 -0.95335008  0.87504537
  N -4.33337748 -1.30245851  1.07228095
  C -1.11142568 -1.74034385  0.55529254
  N -0.51473883 -2.68098910  0.81918991
  N -1.35795325  0.26780139  1.71054229
  C -0.90376894  1.58826145  1.28445335
  C -1.79810036  2.63634583  1.95762744
  H  0.72831186 -4.83337401 -1.39842707
  H  2.45951539 -4.57121956 -1.72458574
  H  1.25843561 -4.44058460 -3.03678345
  H  2.10419687 -2.33517991 -1.36056026
  H  4.35861392  0.33974287  0.72280844
  H  3.55600117  1.39056190  1.91449367
  H  4.36226630  2.11988595  0.49743611
  H  0.79140426  2.32536894 -1.28237631
  H -1.51936583  2.57392232 -0.54111195
  H -2.94346584  0.71386853 -0.86172708
  H -1.78702924 -0.47367569 -2.72449560
  H -0.66459697 -0.26389611  2.21945053
  H  0.13569857  1.76447794  1.58558116
  H -2.77028019  2.67283511  1.47408537
  H -1.33715094  3.61916532  1.91153801
  H -1.94807125  2.36547106  2.99892547
