39
opt_min/./Product_3829_opt.xyz
  C -0.31417401 -1.55270470  1.41739838
  C -0.91029017 -1.27145744  0.02630880
  C -0.80103088 -2.50771288 -0.86899809
  C -0.22812245 -0.04260340 -0.68463817
  C  1.18755531  0.20969792 -0.28329864
  C  2.18831868 -0.60952351 -0.59935712
  C  3.58314105 -0.41964366 -0.23507491
  C  3.96311506  0.74722975  0.62843201
  C  4.51062953 -1.26062391 -0.69464903
  N -1.18490494  1.04042761 -0.47714632
  C -0.99939590  2.26418589  0.10433458
  O  0.07811903  2.68238445  0.48577448
  N -2.12082828  3.04658870  0.17984948
  C -2.04824639  4.38207739  0.71927893
  N -2.42764244  0.38599073 -0.64080863
  N -2.27734745 -0.78218070  0.24330702
  C -3.40342434 -1.67134177  0.12487251
  H  0.38080128 -2.38628661  1.38546536
  H  0.21014364 -0.68011138  1.79484082
  H -1.11955860 -1.79200453  2.10742554
  H  0.23733617 -2.81683963 -0.93793101
  H -1.17190978 -2.29600367 -1.87000596
  H -1.36883828 -3.33888407 -0.45771371
  H -0.26054569 -0.24523140 -1.76763042
  H  1.36136063  1.12548098  0.25442261
  H  1.99249229 -1.49592638 -1.19083786
  H  4.89522041  0.54435711  1.14988186
  H  4.10011199  1.63422571  0.01073581
  H  3.19072169  0.96512785  1.35902076
  H  5.55455442 -1.13527962 -0.46223292
  H  4.26573508 -2.09760709 -1.32843573
  H -2.99125043  2.76910039 -0.23834870
  H -2.96101348  4.61006613  1.26910922
  H -1.90699969  5.12619527 -0.07080985
  H -1.19236609  4.42590731  1.39072574
  H -3.18615066  0.93397479 -0.22562622
  H -4.20766336 -1.29337850  0.76122008
  H -3.77447998 -1.75072760 -0.90452789
  H -3.12747020 -2.66034258  0.47887175
