42
opt_min/./Product_4677_opt.xyz
  C  0.94998060 -1.20976264 -2.07088540
  C  0.23832444 -0.14379368 -1.23995888
  C -1.28145469 -0.42555326 -1.18738668
  C -2.05195199  0.62083158 -1.98368464
  C -1.62893293 -0.54649440  0.32258220
  C -2.39009763 -1.76784453  0.56025332
  N -2.98887451 -2.72198840  0.75859307
  C -2.54987913  0.56665723  0.91398197
  C -3.96934848  0.59365077  0.39333349
  O -2.19638219  1.26319372  1.82093605
  N -0.35002011 -0.71374527  0.97491880
  C -0.30773526 -0.77584663  2.42317688
  C  0.71174570 -0.07460001  0.23829564
  C  0.99459756  1.40739262  0.63990047
  N  1.89627146  2.01358728 -0.15994486
  C  2.37540845  3.34657520  0.12343058
  O  0.46028758  1.96362072  1.57068673
  C  2.03024173 -0.83373500  0.42288395
  O  3.11365671 -0.38608716  0.12992180
  O  1.84472215 -2.05084478  0.90902444
  C  3.00221736 -2.85059748  1.11399254
  H  0.81001610 -2.19548096 -1.63237680
  H  2.01625978 -1.00682281 -2.14215415
  H  0.54003404 -1.21791042 -3.07906083
  H  0.40570552  0.82800078 -1.71233590
  H -1.46269466 -1.40702958 -1.63976151
  H -2.02466396  1.58766435 -1.48588296
  H -3.08483801  0.32814529 -2.14340571
  H -1.58699959  0.72815539 -2.96240804
  H -4.63961534  0.57226609  1.25149425
  H -4.19891546 -0.24159459 -0.26058660
  H -4.14462196  1.53396424 -0.12623663
  H -1.27934959 -1.11171839  2.78020083
  H -0.08338407  0.18843151  2.88125058
  H  0.43768025 -1.51359804  2.72593108
  H  2.38651163  1.48014987 -0.86036205
  H  2.52057661  3.89379625 -0.80723082
  H  1.62667454  3.84717709  0.73479722
  H  3.31866334  3.31648692  0.67445031
  H  3.44209698 -2.62193918  2.08643315
  H  3.74114099 -2.65529797  0.33440432
  H  2.67339374 -3.88664894  1.08622150
