39
opt_min/./Product_340_opt.xyz
  C -0.55465200  1.54264800  1.75432500
  C -0.20238405  0.55026146  0.71753548
  C  1.00818857  0.22255816  0.23559115
  C  2.26754174  0.89061026  0.64187831
  O  2.31412055  1.77720063  1.47815647
  N  3.39128128  0.46507873  0.01280723
  C  4.68567995  1.01082650  0.34042878
  C  0.91052450 -0.93240075 -0.75290330
  C  1.55252019 -2.19835365 -0.15668085
  C  1.49523043 -0.60233079 -2.13969593
  N -0.53146709 -1.20662949 -0.82419244
  C -1.25648564 -0.32751799  0.06981961
  C -2.28104842  0.48437064 -0.74500696
  O -2.96473930  1.34472991 -0.01609758
  C -3.96785193  2.11694790 -0.66716332
  O -2.42158770  0.29929406 -1.92882203
  C -2.09132722 -1.10079601  1.12089509
  C -2.25413550 -2.56908840  0.85551267
  O -2.58123315 -0.54332028  2.06509883
  H -0.69693624  1.02835294  2.70512062
  H  0.25241766  2.26005996  1.87206040
  H -1.48709078  2.04560646  1.51707327
  H  3.34513586 -0.27755722 -0.66128144
  H  4.55068204  2.04102982  0.66902258
  H  5.32962370  0.98811922 -0.53683472
  H  5.15836895  0.45151894  1.15322345
  H  1.06288433 -2.43169531  0.78428132
  H  2.61667256 -2.07710279  0.02306904
  H  1.40096442 -3.03155004 -0.83870941
  H  0.72573319 -0.69549169 -2.90408300
  H  2.29808597 -1.28558832 -2.40983192
  H  1.86508036  0.41976650 -2.18518277
  H -0.90056170 -1.08262472 -1.76364091
  H -3.88224786  3.13898517 -0.30187575
  H -3.82892858  2.08417047 -1.74905828
  H -4.94890097  1.71410332 -0.41117810
  H -1.81046999 -3.12104694  1.68213880
  H -1.78149128 -2.86070531 -0.07571440
  H -3.31650496 -2.80514989  0.83793570
