55
opt_min/./Product_5520_opt.xyz
  C -0.43320651 -2.50166189  0.15194111
  C  0.12897345 -1.07975597  0.19591215
  C  0.55066265 -0.71993937  1.61941325
  C -0.85752567 -0.08037047 -0.44905762
  C -2.12155764  0.18120907  0.30754557
  C -3.06110127  1.04236872 -0.08113967
  C -4.33473506  1.30469969  0.57165617
  C -4.90192667  0.30786383  1.54899331
  C -5.01367647  2.41727024  0.28087476
  C -0.00505615  1.13647489 -0.92945380
  C -0.46546645  1.54174535 -2.36029882
  C -0.03027409  2.37061208 -0.03464621
  C  0.47307902  3.57345774 -0.53515217
  C  0.48197598  4.72676985  0.22444251
  C -0.01598309  4.71545264  1.51630580
  C -0.50343470  3.53158004  2.03375567
  C -0.50306070  2.37486702  1.27050430
  N  1.36356619  0.57476148 -1.04405750
  C  2.51020200  1.38643707 -0.72062858
  C  1.34167250 -0.85266954 -0.76209687
  C  2.59618564 -1.53092834 -0.17285014
  N  2.68897296 -2.83592087 -0.50246942
  C  3.79225981 -3.63740977 -0.02102420
  O  3.38731150 -1.00082458  0.57591882
  C  1.09049537 -1.43871099 -2.07345401
  N  0.91442503 -1.82770630 -3.13789475
  H -1.49075140 -2.49262755  0.40770202
  H  0.07939908 -3.14890747  0.86031372
  H -0.34417792 -2.93575015 -0.84272548
  H  1.11135302  0.21045254  1.63841726
  H  1.18692700 -1.49959670  2.03361606
  H -0.31707662 -0.62111350  2.26755807
  H -1.16797199 -0.58830516 -1.37530347
  H -2.26358482 -0.42441170  1.19319382
  H -2.86977458  1.65974670 -0.94877276
  H -4.26415001 -0.56231967  1.65997219
  H -5.87900948 -0.03324072  1.21050770
  H -5.03297703  0.77356296  2.52428936
  H -4.61070447  3.16544626 -0.37898950
  H -5.98108842  2.60298027  0.71198505
  H -0.78792600  2.57741070 -2.40677219
  H -1.28998055  0.92547019 -2.70668180
  H  0.36035113  1.40498557 -3.05468084
  H  0.87980697  3.61136626 -1.53369482
  H  0.87979569  5.63921222 -0.19544122
  H -0.01656591  5.61686468  2.11090380
  H -0.88849815  3.49895993  3.04251465
  H -0.89175806  1.47821279  1.71830270
  H  2.67335555  2.11139901 -1.52271868
  H  2.40886299  1.92783003  0.22575466
  H  3.39342284  0.76097449 -0.65192832
  H  2.07808864 -3.24033873 -1.19311019
  H  4.71630601 -3.38992113 -0.54928016
  H  3.94354003 -3.43299187  1.03899400
  H  3.56233450 -4.68935691 -0.16585967
