40
opt_min/./Product_1635_opt.xyz
  C -4.97427400 -0.17955600 -0.41096000
  C -3.76466657 -1.00478229 -0.06098045
  O -3.76500942 -2.21308098 -0.09004236
  C -2.56066600 -0.26366436  0.35201810
  C -2.27790672  1.03023886  0.55219713
 Br -3.26179220  2.59198381  0.30878221
  C -0.81797544  1.08801435  0.96211092
  C -0.01928611  0.82835494 -0.34783648
  C -0.36497196 -0.64639546 -0.61977178
  C -1.22904924 -0.95688841  0.64537245
  O -0.65985181 -0.13085382  1.64399863
  C  1.02901139 -1.33282829 -0.68167709
  C  1.42234450 -1.61023820 -2.14305435
  C  1.10269332 -2.67914128  0.04206966
  O  0.19450335 -3.47040065  0.06109232
  O  2.30229060 -2.87942387  0.55269737
  C  2.54939356 -4.10905974  1.22526593
  N  1.97468574 -0.39749817 -0.14599997
  C  1.46128708  0.74818317 -0.01751682
  C  2.25898592  1.90578631  0.50413079
  N  1.71781810  3.11992001  0.21954944
  C  2.36277742  4.34918635  0.61474191
  O  3.30594904  1.77503597  1.09509007
  H -4.73008303  0.59017077 -1.14046669
  H -5.34319326  0.31173242  0.49010361
  H -5.75167469 -0.83098527 -0.80126011
  H -0.50885762  1.94022380  1.56065080
  H -0.23800992  1.52712485 -1.15463129
  H -0.95392527 -0.85375869 -1.51290547
  H -1.28455763 -1.99438565  0.95015380
  H  2.44331138 -1.98467169 -2.18048269
  H  0.74901066 -2.34958724 -2.57338509
  H  1.35940322 -0.69030721 -2.72140423
  H  1.68972111 -4.77387266  1.11922305
  H  2.72981600 -3.89361044  2.27971703
  H  3.43998003 -4.55595825  0.78462212
  H  0.87886145  3.19604991 -0.33163029
  H  1.74244539  4.90055844  1.32546318
  H  3.30613552  4.08305155  1.09039188
  H  2.55779875  4.97995154 -0.25435686
