53
opt_min/./Product_5331_opt.xyz
  C  6.49822800  0.02540400  1.19778600
  C  5.30194330 -0.02948294  0.29782699
  C  5.57982184  0.31584227 -1.13437513
  C  4.10133267 -0.38767104  0.76683508
  C  2.88583480 -0.51438501  0.00238271
  C  1.71082034 -0.83207389  0.54620534
  C  0.44314399 -1.00208241 -0.23880152
  C  0.46183145 -2.38594767 -0.91279559
  C -0.81783586 -0.85310175  0.63554771
  C -1.91121968 -0.31383330 -0.30338391
  C -2.79172490 -1.50275115 -0.77802102
  N -3.74426145 -1.86364720  0.11003224
  C -4.67689530 -2.93197844 -0.16122380
  O -2.60873921 -2.09780085 -1.81444151
  C -2.86954999  0.73545684  0.29875915
  O -3.56075487  1.43834792 -0.40350392
  N -2.94823799  0.78726646  1.65168484
  C -3.79161167  1.74635238  2.32822974
  N -1.19068437  0.31891388 -1.38455323
  C -1.77769567  0.52275675 -2.68079416
  C  0.23685945  0.06565021 -1.32733615
  C  0.78323191  1.48040145 -1.14412403
  C  0.73221951  2.13961172  0.21067680
  O  1.10832887  2.10590650 -2.12885055
  H  6.24503548 -0.26720202  2.21421553
  H  6.90964197  1.03532923  1.21959836
  H  7.27899517 -0.63875078  0.82290914
  H  5.91024385 -0.57264837 -1.67443630
  H  4.70227564  0.71244088 -1.63700211
  H  6.37730332  1.05513076 -1.19452247
  H  4.00682559 -0.61252200  1.82287125
  H  2.93932332 -0.33124455 -1.06154466
  H  1.64873144 -1.01927348  1.61344579
  H  0.52072066 -3.17031612 -0.16005753
  H -0.43524499 -2.53450669 -1.50530699
  H  1.32947914 -2.47459466 -1.56294947
  H -1.10116216 -1.80809160  1.08063220
  H -0.61337717 -0.14107288  1.43712592
  H -3.91967973 -1.29686788  0.92412579
  H -4.64763467 -3.67433770  0.63916563
  H -4.37623902 -3.39680693 -1.10025393
  H -5.69316907 -2.54537896 -0.25954348
  H -2.34762055  0.22113872  2.22808571
  H -3.20010660  2.37546387  2.99623892
  H -4.56857921  1.23912880  2.90677087
  H -4.25763317  2.36521794  1.56296148
  H -2.82039329  0.80441296 -2.55458648
  H -1.25103715  1.35141149 -3.16075055
  H -1.71612095 -0.36684111 -3.31726814
  H  0.61069154 -0.28927470 -2.29680165
  H  1.59780467  2.79412509  0.30457701
  H  0.72725987  1.43258538  1.02926899
  H -0.16238480  2.76260837  0.25121788
