59
opt_min/./Product_5949_opt.xyz
  C  1.13741312  0.34464964 -1.61090738
  O  0.78955397  0.85061911 -2.65408852
  C  1.71261032 -1.01415287 -1.58747626
  O  2.00789860 -1.40814397 -2.84160197
  C  2.26221881 -2.75957594 -3.15618432
  C  1.87854494 -1.71088674 -0.42139767
  O  2.47503489 -2.93175965 -0.47164505
  C  2.48856153 -3.79752585  0.64941510
  C  1.53517013 -1.08456474  0.87012069
  O  2.02931580 -1.46998077  1.90814326
  C  0.61639247  0.13324628  0.84920420
  C  0.72313319  0.79073120  2.22901216
  C  1.03765869  1.09165224 -0.28706747
  C  2.39782863  1.76128539 -0.10157220
  C -0.19442527  2.02691636 -0.37656925
  C -0.39392317  2.70457412 -1.64810973
  N -0.74200574  3.35155890 -2.52647278
  C -0.18976486  3.24044405  0.60587575
  O  0.77535757  3.94547303  0.78963695
  N -1.39575250  3.45946305  1.15211835
  C -1.66320354  4.56371791  2.03829266
  N -1.33467118  1.14034035 -0.09532367
  C -0.88433172 -0.13530721  0.47243232
  C -1.74424402 -0.47163590  1.71958561
  N -2.94204628  0.13855414  1.72984933
  C -3.92082275 -0.09943265  2.76178250
  O -1.38990598 -1.25221024  2.57559113
  C -1.06549932 -1.33565476 -0.45368177
  C -0.89493499 -2.61515845  0.07150351
  C -1.03656195 -3.73615475 -0.72368408
  C -1.34669493 -3.60294617 -2.06727524
  C -1.53108439 -2.33926018 -2.59689203
  C -1.39880646 -1.21523255 -1.79787597
  H  2.33304668 -2.78435638 -4.24288853
  H  3.19092834 -3.12113894 -2.71795427
  H  1.43003462 -3.39105042 -2.83058605
  H  2.79622076 -4.76209281  0.24517469
  H  1.50295141 -3.88797908  1.10702859
  H  3.20328264 -3.46631101  1.40334865
  H  0.46474707  0.06202339  2.99228048
  H  1.74619876  1.10699068  2.40915142
  H  0.06318396  1.64695618  2.31782108
  H  3.15784333  1.00497884  0.08505945
  H  2.65908510  2.30521670 -1.00808367
  H  2.38475435  2.47314569  0.71744453
  H -2.13719912  2.80653309  0.94916868
  H -0.74652140  5.14462472  2.12609938
  H -1.96227217  4.20130718  3.02349286
  H -2.45235283  5.19742027  1.63120958
  H -1.90270379  1.00938720 -0.92624682
  H -3.19332574  0.73084776  0.95539571
  H -3.44250507 -0.69411156  3.53771055
  H -4.77720628 -0.65198011  2.36868544
  H -4.26450705  0.84656875  3.18077691
  H -0.66751517 -2.73026631  1.12056237
  H -0.90261928 -4.71724444 -0.29229172
  H -1.44730465 -4.47692934 -2.69368230
  H -1.77394640 -2.21569614 -3.64126657
  H -1.53546745 -0.25395784 -2.27244326
