25
opt_min/./Product_3713_opt.xyz
  O  3.44607600  1.98910800  0.03335200
  C  4.05610625  1.43215367  0.82565036
  O  4.67551354  0.88102275  1.61136909
  C  2.59274708 -1.31998172  0.23986453
  C  1.68449957 -0.79624508  1.08437833
  C  0.41619068 -3.59429379  1.28143669
  O  1.01000009 -3.84853551  2.22399616
  O -0.17219010 -3.36037152  0.32767045
  C  0.75489646 -0.02186152  0.21891568
  C  0.65887530  1.49032762  0.56861331
  C  0.26406853  2.36350063 -0.57729725
  O  0.87807136  1.86699385  1.68165583
  C -0.72594834 -0.46710338  0.36058444
  C -1.51343629 -0.46624936 -0.90961753
  O -1.15246976 -0.78969390  1.43081217
  N  1.28597559 -0.22011707 -1.10645130
  N  2.30039535 -0.93555002 -1.06317020
  H  3.44570750 -1.94186245  0.42767364
  H  1.58390584 -0.89823534  2.14484951
  H -0.81794578  2.48908777 -0.55994302
  H  0.56517272  1.93013204 -1.52550661
  H  0.71899671  3.34212527 -0.44098733
  H -0.92336238 -0.14162705 -1.75874749
  H -2.39622564  0.15837123 -0.78296967
  H -1.86161577 -1.48562590 -1.07548532
