41
opt_min/./Product_1949_opt.xyz
  N -2.14118501  5.18629096 -2.60413607
  C -2.30425641  4.23918006 -1.97733205
  C -2.50215780  3.10364857 -1.19167454
  C -3.51210725  2.21862667 -1.15358128
 Br -5.01094819  2.06014062 -2.23892496
  C -3.11951148  1.20580936 -0.09515065
  C -1.98740762  0.37776591 -0.78207381
  C -0.81747055  1.37713968 -0.73426388
  C -1.53351764  2.61027117 -0.11878703
  O -2.40784807  2.00649386  0.82047339
  C  0.22201944  0.67977149  0.20753651
  C  0.58046002  1.50053207  1.47234574
  C  0.57303586  0.76463548  2.77452557
  O  0.90140698  2.65629784  1.36994181
  C  1.57719324  0.48816283 -0.45616758
  C  2.18210782  1.55107142 -1.11467595
  C  3.42250901  1.38234943 -1.70267338
  C  4.06752071  0.15835536 -1.63360327
  C  3.47111746 -0.89667326 -0.96462209
  C  2.23228926 -0.73262440 -0.37069270
  N -0.34401921 -0.58093708  0.58633059
  C -1.49399847 -0.74425641  0.08592271
  C -2.34832321 -1.93247371  0.33961402
  O -1.73743295 -2.83967354  1.08843544
  C -2.46656492 -4.02129331  1.40038244
  O -3.47020479 -2.02871236 -0.09657575
  H -3.90962755  0.62759123  0.37272903
  H -2.29489120  0.02416410 -1.76617663
  H -0.37630252  1.59352298 -1.70477425
  H -0.90207416  3.36788304  0.33355309
  H  1.60747211  0.61303479  3.08173430
  H  0.07684568 -0.19619519  2.68671344
  H  0.09350032  1.38701957  3.52662042
  H  1.69691157  2.51484761 -1.14747396
  H  3.89152763  2.20931074 -2.21401970
  H  5.03501678  0.03031488 -2.09504061
  H  3.97290839 -1.85071094 -0.90084113
  H  1.75869274 -1.54715646  0.15531183
  H -1.74147064 -4.82739790  1.48385267
  H -2.98615361 -3.88759505  2.35108092
  H -3.19600699 -4.23274725  0.61631084
