23
opt_min/./Product_4_opt.xyz
  C  0.72965800 -1.81729100  0.05301700
  C  0.16798934 -0.43914778  0.08594103
  C -1.17352635 -0.11317582  0.19051972
  C -2.36992014 -0.98272054  0.33593796
  N -1.25160552  1.24233966  0.17201667
  C -2.41404012  2.07381942  0.29794285
  N -0.06688549  1.80243123  0.06091356
  C  0.82926350  0.81954386  0.00274323
  C  2.24830562  1.19264476 -0.11849288
  C  3.25771130  0.07494536  0.04565676
  O  2.59780103  2.32844831 -0.34200651
  H -0.07005964 -2.54331089 -0.07083156
  H  1.25837998 -2.04637833  0.97692920
  H  1.42520308 -1.93433530 -0.77513218
  H -2.16518979 -1.97008749 -0.06963444
  H -2.63679990 -1.09457126  1.38743822
  H -3.22758508 -0.56550274 -0.18656599
  H -3.24919662  1.65934114 -0.26428794
  H -2.70721229  2.17591930  1.34528913
  H -2.15801075  3.05585845 -0.09391476
  H  4.25110537  0.51204046  0.09945255
  H  3.20822082 -0.58473972 -0.81766232
  H  3.05700298 -0.50961621  0.93749731
