60
opt_min/./Product_5940_opt.xyz
  C -1.14156700 -1.08247700  1.08637900
  O -1.41187383 -1.43067996  2.22005377
  C -1.58405202 -1.84178624 -0.08150164
  O -2.04049696 -3.11004461 -0.01584286
  C -2.06386533 -3.84267248  1.19312841
  C -1.58942793 -1.29028440 -1.34270961
  O -1.99123431 -2.13004056 -2.32762294
  C -2.51594838 -1.62539201 -3.54429748
  C -1.06381994  0.05060519 -1.61907829
  O -0.82900252  0.39867415 -2.75789693
  C -0.93073495  0.98329505 -0.40851109
  C -2.35117550  1.54534346 -0.22574102
  C -0.37373885  0.21024652  0.81666498
  C -0.39689034  1.03018911  2.11745365
  C  1.11133314 -0.00124227  0.35752377
  C  2.07998902 -0.07234918  1.53826222
  O  1.98468084 -0.81125792  2.47849227
  O  3.12389854  0.76261821  1.36309672
  C  4.15322904  0.73070855  2.34552763
  C  1.34051342 -1.31498283 -0.39428890
  C  1.24314885 -2.53647638  0.26370524
  C  1.40386996 -3.71989410 -0.43331395
  C  1.66719203 -3.69806671 -1.79262949
  C  1.79523160 -2.48552128 -2.44413200
  C  1.64160030 -1.29872431 -1.74838419
  N  1.35833515  1.12522763 -0.52718253
  C  0.21593254  2.01351858 -0.63008657
  C  0.16155629  3.19042191  0.37348543
  N  1.33241044  3.49902510  0.97599298
  C  1.43595285  4.62939780  1.87051062
  O -0.82462845  3.88552011  0.51265533
  C  0.25602060  2.75307565 -1.97571926
  H -2.45949431 -4.81899465  0.91455529
  H -1.05849834 -3.95853886  1.60587214
  H -2.70350909 -3.38303328  1.94637251
  H -2.87431979 -2.50378182 -4.07854061
  H -3.35351546 -0.94781981 -3.35685578
  H -1.75827904 -1.11288325 -4.13545510
  H -3.05431566  1.02851205 -0.87651122
  H -2.36788660  2.60363310 -0.46549237
  H -2.69480663  1.42131824  0.79664190
  H  0.52447581  1.58099989  2.27444058
  H -0.51960749  0.34595814  2.95537139
  H -1.21815458  1.74054301  2.13339223
  H  4.10710892 -0.20819407  2.89882376
  H  5.10197884  0.82087771  1.82033836
  H  4.02176590  1.56549692  3.03639465
  H  1.05851317 -2.55877274  1.32720301
  H  1.32085401 -4.66213435  0.08794138
  H  1.77863033 -4.62313017 -2.33749909
  H  2.01252702 -2.45560777 -3.50129336
  H  1.73567721 -0.35157896 -2.25450653
  H  2.25364157  1.56917450 -0.39656174
  H  2.12935587  2.88841270  0.89747406
  H  0.85394832  5.45291369  1.45728214
  H  1.03198959  4.39043070  2.85865666
  H  2.47782983  4.92459326  1.96752233
  H  0.96607449  3.57635490 -1.91192373
  H  0.55880535  2.08659478 -2.77377335
  H -0.72424150  3.15784783 -2.20792666
