33
opt_min/./Product_3571_opt.xyz
  C -0.30624200 -2.10381800  0.49851000
  C -0.32307252 -0.94869341 -0.51799350
  C -1.72218033 -0.33284342 -0.74939751
  C -2.15443235 -0.38475607 -2.21999322
  N -1.58849842  1.03149292 -0.26763932
  C -2.49342972  2.04410619 -0.25123631
  C -3.93359381  1.66049252 -0.51222056
  O -2.14729378  3.18125005  0.00343125
  N -0.26091253  1.35847894  0.10744821
  N  0.47631684  0.16061119 -0.05663518
  C  1.83499899  0.16965169  0.11172445
  C  2.62076202 -0.93792073 -0.23172665
  C  3.98918789 -0.89551944 -0.05734804
  C  4.61151999  0.23228174  0.45056657
  C  3.83718825  1.32695167  0.79897638
  C  2.46701841  1.30369806  0.63870726
  H  0.33131501 -1.83567333  1.33688546
  H  0.08324478 -3.01442230  0.05583947
  H -1.30025685 -2.30996178  0.88309999
  H  0.07926629 -1.30548399 -1.47509172
  H -2.46422939 -0.85022634 -0.13389655
  H -1.74726726  0.46762196 -2.75942086
  H -3.23442425 -0.36662056 -2.31527240
  H -1.79228242 -1.29283763 -2.69277120
  H -4.17440131  0.67356731 -0.13286669
  H -4.13561636  1.69358764 -1.57979724
  H -4.56132668  2.40295185 -0.02777830
  H  0.09283802  2.08147380 -0.53998118
  H  2.16487502 -1.83279014 -0.62634023
  H  4.57892640 -1.76023228 -0.32746959
  H  5.68193838  0.25235719  0.57930366
  H  4.30588277  2.21151654  1.20429553
  H  1.87296931  2.15220867  0.93682516
