54
opt_min/./Product_5602_opt.xyz
  C -0.64761668 -0.36087034 -2.29929907
  C  0.03960026  0.26760271 -1.08137426
  C  0.15993892  1.77141859 -1.39739261
  C  1.47653421 -0.34243547 -0.77330433
  C  2.61004633  0.61765327 -1.17054473
  C  1.79869231 -1.64701236 -1.52980248
  C  1.44619841 -0.57870486  0.78605482
  C  2.60424127 -0.03197381  1.67082045
  N  3.84300038 -0.43022720  1.33641861
  C  4.97818207 -0.19548000  2.19776239
  O  2.35104987  0.57382765  2.69069541
  C  1.48150158 -1.98236128  1.18481710
  N  1.54787342 -3.04050998  1.61729012
  N  0.23319972 -0.00868188  1.27558656
  C -0.79275626  0.12719669  0.27588833
  C -1.69094175 -1.10597338  0.47505026
  C -2.86098020 -0.98895353  1.22767723
  C -3.63815720 -2.08965881  1.52802734
  C -3.26733965 -3.35455607  1.10527880
  C -2.08745324 -3.49698571  0.40277621
  C -1.31297911 -2.38859062  0.10508988
  C -1.66350757  1.36118868  0.46793591
  C -1.38624383  2.36920951  1.37759073
  C -2.22523426  3.46772146  1.49693899
  C -3.35265634  3.58006423  0.70860557
  C -3.64192440  2.58063376 -0.20956988
  C -2.80801645  1.48716528 -0.32428302
  H -1.15258426 -1.29241787 -2.06533942
  H -1.39384458  0.32710860 -2.68878895
  H  0.07265394 -0.54024931 -3.09287904
  H  0.77783857  1.93760179 -2.27464343
  H  0.57600743  2.32978839 -0.56247385
  H -0.81749897  2.18742208 -1.62115692
  H  2.48310325  0.92754775 -2.20475502
  H  2.65116948  1.50226611 -0.54127424
  H  3.57629523  0.12082406 -1.12950565
  H  0.93962235 -2.28720644 -1.68530674
  H  2.21248612 -1.41786674 -2.51030518
  H  2.54348460 -2.22209484 -0.98057196
  H  4.00836524 -0.88603780  0.45618485
  H  5.46785220  0.75348415  1.96457035
  H  4.62342000 -0.15993046  3.22715741
  H  5.69186213 -1.00877493  2.08462716
  H  0.31400522  0.65409081  2.02875084
  H -3.17658905 -0.02771951  1.60117664
  H -4.53986721 -1.95991883  2.10888432
  H -3.87611427 -4.21541312  1.33835409
  H -1.75355372 -4.47636105  0.08877980
  H -0.38312744 -2.56069336 -0.40355564
  H -0.51155486  2.33673832  2.01239512
  H -1.98635544  4.23801272  2.21683433
  H -4.00414413  4.43580466  0.80474700
  H -4.52062480  2.65586863 -0.83228607
  H -3.04801535  0.70651417 -1.03070018
