41
opt_min/./Product_4197_opt.xyz
  C -2.54313623 -1.70036006 -0.75941300
  C -1.64179933 -1.74695427  0.43831686
  C -1.89854302 -2.86193777  1.40435089
  C -0.66166791 -0.87410458  0.65069919
  C -0.32808080  0.27522659 -0.23372838
  C -0.12573416  1.63438068  0.50156700
  C -1.43326218  2.29758706  0.84422858
  C -1.80890871  2.35207618  2.29756295
  C -2.24053631  2.77893958 -0.09096553
  N  0.72517421  2.40489851 -0.38585288
  N  1.66434892  1.46836166 -0.89374111
  C  2.31349028  1.95122333 -2.09010032
  C  0.99363777  0.13358218 -1.03757604
  C  1.99611275 -0.90874217 -0.50232551
  N  2.40277515 -0.64848793  0.75476255
  C  3.44302194 -1.41847496  1.39302095
  O  2.38052773 -1.84690103 -1.16323364
  C  0.63856741 -0.23261508 -2.39105656
  N  0.28212865 -0.48613024 -3.44815946
  H -3.20923632 -2.55762112 -0.76397887
  H -1.96512367 -1.71114379 -1.68097156
  H -3.15134129 -0.79584893 -0.74900210
  H -1.76673323 -3.81883625  0.90120489
  H -1.22139128 -2.81991303  2.25326293
  H -2.92428335 -2.81450935  1.76880910
  H -0.04078190 -0.98195339  1.52945503
  H -1.13154407  0.43129729 -0.96237058
  H  0.44781356  1.46526637  1.42100193
  H -2.04940960  3.37249866  2.58433961
  H -2.68890067  1.73762402  2.48242946
  H -1.00708350  1.99541229  2.93697578
  H -2.00085268  2.73154667 -1.13960821
  H -3.17297955  3.24495880  0.16070446
  H  0.16285857  2.80638466 -1.14569970
  H  1.61309276  2.14926235 -2.91336960
  H  3.03906071  1.20865130 -2.41656884
  H  2.83372114  2.87281598 -1.83424013
  H  2.20104682  0.26381737  1.13577786
  H  4.37664986 -0.85385476  1.42964150
  H  3.59323969 -2.32319147  0.80784640
  H  3.14416884 -1.68777404  2.40620116
