61
opt_min/./Product_5962_opt.xyz
  C  0.67980600 -1.98141600 -0.29392700
  O  0.40716050 -3.10943968 -0.68384339
  C  1.59549481 -1.73049254  0.80122123
  O  2.25609275 -2.71160919  1.46671709
  C  2.25059660 -4.05245826  1.02090990
  C  1.76042033 -0.46980123  1.34321486
  O  2.50232444 -0.43703861  2.46389330
  C  2.77647984  0.76387589  3.16083029
  C  1.15894237  0.72801973  0.74085640
  O  1.13809384  1.79025968  1.31817407
  C  0.70920628  0.57227490 -0.72440612
  C  2.01381210  0.70235212 -1.51476457
  C -0.01550497 -0.78245026 -0.93233983
  C -0.30067131 -1.10910554 -2.40994721
  C -1.35331962 -0.45317144 -0.20157682
  C -2.63167832 -1.25374370 -0.61194016
  N -2.42228080 -2.55168777 -0.87984553
  C -3.51905155 -3.42962646 -1.21618782
  O -3.70935309 -0.71432235 -0.63915613
  C -1.26289371 -0.65829193  1.31879736
  O -1.29264971  0.21918511  2.13340121
  O -1.16771669 -1.96298386  1.62136911
  C -1.11756303 -2.30860201  3.00392556
  O -1.58833367  0.90494087 -0.45201625
  C -0.45814860  1.57275869 -1.00518294
  C -0.79328459  1.82689521 -2.50676609
  C  0.10329073  2.72163414 -3.32433893
  O -1.81860737  1.40304086 -2.96676982
  C -0.40502847  2.97732962 -0.41152781
  C -1.53868372  3.45110340  0.23735051
  C -1.58026383  4.74138511  0.73380881
  C -0.49526146  5.58525562  0.58196392
  C  0.63567372  5.12229994 -0.06795860
  C  0.67989289  3.83405087 -0.56679193
  H  2.98138567 -4.55610635  1.65382251
  H  2.54565021 -4.14228257 -0.02520071
  H  1.26979957 -4.51619428  1.14977050
  H  3.50186339  0.47808636  3.92206719
  H  3.19988098  1.53181161  2.51177260
  H  1.87455828  1.16251675  3.62855280
  H  2.70206594 -0.07809863 -1.19046782
  H  2.48400274  1.66126030 -1.31595272
  H  1.86355917  0.59567305 -2.58420106
  H  0.44657514 -0.67568525 -3.06775125
  H -0.28085255 -2.18653314 -2.55645271
  H -1.27431639 -0.73779148 -2.71268504
  H -1.50164350 -2.96435612 -0.82100631
  H -3.81099696 -4.03715624 -0.35606141
  H -3.22667331 -4.08560675 -2.03445389
  H -4.36632742 -2.81606375 -1.51791080
  H -2.08636705 -2.70872644  3.30377072
  H -0.34263585 -3.06340673  3.12274709
  H -0.88458858 -1.42460397  3.59906579
  H  0.00015376  2.44361159 -4.37134288
  H -0.26544757  3.74092916 -3.21672541
  H  1.14306741  2.70010029 -3.02985778
  H -2.38263961  2.79224612  0.35578700
  H -2.46848350  5.08623901  1.24149007
  H -0.52633652  6.59302232  0.96854682
  H  1.49525945  5.76584648 -0.18845435
  H  1.58789931  3.50743380 -1.04786396
