60
opt_min/./Product_2763_opt.xyz
  C -3.68845361 -0.59065938 -1.91450843
  C -2.43821347 -0.08083313 -1.25247007
  O -2.12971789  1.07931617 -1.35136415
  C -1.48521409 -1.05844196 -0.49659257
  C -2.15534692 -2.07263016  0.44292983
  C -3.20414203 -3.01268135 -0.08143544
  O -1.79603534 -2.13727043  1.59315823
  C -0.65764713 -0.15142888  0.38529830
  C  0.66498198  0.01542495  0.65499785
  C  1.82706797 -0.93544815  0.58993080
 Cl  2.55333539 -0.82548853  2.27621553
  C  2.91672300 -0.60429121 -0.40423095
  C  4.20071903 -1.11293366 -0.21863148
  C  5.18737416 -0.87851261 -1.15296609
  C  4.90928882 -0.15127688 -2.29940537
  C  3.63462264  0.34022800 -2.50018517
  C  2.64132267  0.11080147 -1.56144400
  C  1.43159141 -2.42771265  0.50395572
  C  1.31676401 -3.04722260 -0.88789766
  C -0.10379064 -3.09570854 -1.42616989
  C -0.71060817 -1.71414496 -1.66767322
  C  0.76363882  1.36831019  1.32690491
  C  0.95240407  2.54820751  0.25023768
  N  1.04560605  3.73626862  0.84636353
  C  1.07208477  4.96401582  0.08606905
  O  0.92340046  2.34976158 -0.93179971
  C  1.69875339  1.65427148  2.38695083
  N  2.35412367  2.08606197  3.22156735
  N -0.57518879  1.73552409  1.70417455
  C -1.35914966  0.90542076  1.11262951
  C -2.82677860  0.98668110  1.32022076
  O -3.61253675  0.14187089  0.94784729
  O -3.16262584  2.09133218  1.95711622
  C -4.54131246  2.32195421  2.21527378
  H -3.57145196 -1.55838707 -2.38579491
  H -4.46297184 -0.65035795 -1.15298018
  H -3.99924524  0.14323873 -2.65577786
  H -4.17606167 -2.54806540  0.07201240
  H -3.08069049 -3.26029031 -1.12831687
  H -3.17982946 -3.91908783  0.52196533
  H  4.42381377 -1.68863698  0.66650226
  H  6.18347099 -1.26092141 -0.98765120
  H  5.68355748  0.02868464 -3.02856254
  H  3.40005909  0.89816508 -3.39381072
  H  1.64785702  0.49341226 -1.74100533
  H  2.21438525 -2.97308535  1.03191806
  H  0.50854337 -2.57658121  1.06498223
  H  1.96008948 -2.52245521 -1.59614512
  H  1.68139840 -4.07552805 -0.82660608
  H -0.07737808 -3.62119801 -2.38626744
  H -0.71966489 -3.68673480 -0.74818562
  H -1.39368562 -1.79101849 -2.51751040
  H  0.08102585 -1.02693673 -1.96823260
  H  0.91872983  3.80039311  1.84531699
  H  1.76363632  5.66249923  0.55451226
  H  1.40621102  4.73497332 -0.92474865
  H  0.07819382  5.41382982  0.03537406
  H -4.84176821  3.22870993  1.68840612
  H -4.66384649  2.46031643  3.28989411
  H -5.13770213  1.47411971  1.87372046
