43
opt_min/./Product_4911_opt.xyz
  C  1.43094372  0.31163858  0.95462771
  C  0.88825365 -0.91311616  0.21754867
  C  0.14773587 -0.55121822 -1.08302742
  N  0.76952216  0.50899112 -1.82343036
  C  0.56954872  0.51494181 -3.25127888
  C  1.79336026  1.21450486 -1.29680120
  C  2.20681948  1.15876912 -0.01214904
  C  3.38782230  1.92747835  0.36162138
  N  3.87181899  1.71330013  1.64273838
  O  3.98364611  2.65813466 -0.41223869
  C -1.32493986 -0.36709173 -0.59668458
  C -1.51120161  0.98504856  0.12987163
  N -2.25315962  0.90514541  1.24714174
  C -2.49885181  2.04378751  2.09736657
  O -1.10009511  2.02359214 -0.34105311
  C -2.35371928 -0.35009432 -1.72427317
  N -1.50651882 -1.47820731  0.34630308
  C -2.09230376 -2.70686490 -0.15082323
  C -0.21306651 -1.65965274  1.03325967
  C -0.34923671 -1.14474713  2.39409127
  N -0.50213037 -0.79210440  3.46960330
  C  0.17908616 -3.04897380  1.21096025
  N  0.53373838 -4.12231053  1.37820034
  H  0.59827733  0.90450405  1.34785389
  H  2.04462051 -0.01715410  1.79463399
  H  1.72345484 -1.58519658 -0.00249170
  H  0.13466665 -1.44443282 -1.73331870
  H  1.05932969 -0.34698809 -3.72296263
  H  0.98869347  1.42671575 -3.66793516
  H -0.49110389  0.48765339 -3.49294083
  H  2.31836877  1.86727732 -1.97751226
  H  3.21149576  1.70899330  2.40333045
  H  4.69607443  2.26714421  1.83611066
  H -2.54961811 -0.00566889  1.56407290
  H -1.76221544  2.09749901  2.90329961
  H -2.42206712  2.94249202  1.48736896
  H -3.49381863  1.97026924  2.53106736
  H -3.35839762 -0.43278174 -1.31452346
  H -2.19076933 -1.15561621 -2.43745492
  H -2.28432075  0.60457904 -2.23948930
  H -2.21446204 -3.39291977  0.68749817
  H -3.07956292 -2.49537464 -0.55147637
  H -1.49258050 -3.20601218 -0.92263639
