30
opt_min/./Product_628_opt.xyz
 Cl -1.80984000  3.88135500 -0.56768100
  C -2.05960117  2.20781783 -0.44263851
  C -2.85350215  1.50066147  0.36326451
 Br -4.03405325  2.06114473  1.69248398
  C -2.52210706  0.04660202  0.07935346
  C -1.13966734 -0.23152094  0.72780945
  C -0.21883397  0.66987276 -0.11556083
  C -1.24522515  1.15756760 -1.19105323
  O -2.17491470  0.09671698 -1.29143862
  C  0.89051031 -0.29901566 -0.61071551
  C  1.33726185 -0.14637481 -2.06561167
  C  2.18029228 -0.17932293  0.23633727
  C  2.79819798  1.19017461  0.36816573
  O  2.72060915 -1.15115243  0.68950011
  N  0.36900128 -1.63054393 -0.40185282
  C -0.65132865 -1.61825702  0.33516834
  C -1.38847817 -2.84327548  0.73190212
  H -3.30746053 -0.67546440  0.28233766
  H -1.11096707 -0.08006968  1.80458706
  H  0.17223420  1.54283818  0.40210702
  H -0.85702986  1.43910426 -2.16242838
  H  1.77853760  0.83262810 -2.23679526
  H  0.49145227 -0.28741219 -2.73385200
  H  2.06988131 -0.91940927 -2.28193655
  H  3.64040935  1.22983914 -0.32271001
  H  3.20042523  1.30009764  1.37264722
  H  2.12627772  2.01077483  0.14216516
  H -1.98264599 -3.19042486 -0.11223372
  H -2.04734608 -2.64908355  1.57445424
  H -0.68199846 -3.62930662  0.98501744
