47
opt_min/./Product_5764_opt.xyz
  C  0.60314900 -1.39444500 -0.55910800
  O  0.55468886 -2.52085732 -1.02062972
  C  1.70061365 -0.94520153  0.29281256
  O  2.51195329 -1.80891746  0.92243120
  C  2.03088119 -3.08911841  1.29678731
  C  2.07853388  0.38306419  0.32839766
  O  3.20855227  0.63037974  1.01640201
  C  3.86294670  1.88364739  0.96352656
  C  1.24405630  1.42833676 -0.23012223
  O  1.50428251  2.61575422 -0.11853967
  C -0.10071581  1.07897706 -0.89661093
  C -0.15803421  1.75303052 -2.26734725
  C -0.51737411 -0.40699732 -0.83592781
  C -1.30948410 -0.88185799 -2.05803047
  C -1.38799837 -0.38495713  0.50225170
  C -1.41076796 -1.63625286  1.37998686
  N -1.92340716 -2.72112537  0.78068203
  C -2.02723653 -3.99086009  1.46014077
  O -0.98451488 -1.62055535  2.51152395
  O -0.90347212  0.74014694  1.20812777
  C -1.08344900  1.66302825  0.17669916
  C -0.88479878  3.12891529  0.59512669
  O -0.70583647  3.47650412  1.72411380
  O -1.01266959  3.92323756 -0.45135979
  C -0.82012526  5.31187388 -0.19798845
  O -2.44324403  1.47654095 -0.24127004
  C -2.71473959  0.18057555 -0.02483515
  O -3.73928681 -0.37804205 -0.25522281
  H  2.79537241 -3.49547335  1.95757645
  H  1.90393170 -3.73769730  0.42745782
  H  1.08753702 -3.00589711  1.84042005
  H  4.79916714  1.72798520  1.50010735
  H  3.28200412  2.66578844  1.45402161
  H  4.07167835  2.17588950 -0.06851119
  H  0.54601939  2.58159422 -2.28702839
  H -1.15094990  2.15914541 -2.44913390
  H  0.10310831  1.04972965 -3.05233183
  H -0.62347125 -1.30674245 -2.78867882
  H -1.86972041 -0.07340182 -2.52047774
  H -2.02805925 -1.65506191 -1.79724101
  H -2.28703053 -2.67540146 -0.15595467
  H -1.43531751 -4.74495011  0.93851954
  H -1.64400980 -3.86313616  2.47127547
  H -3.06892647 -4.31006970  1.50165218
  H  0.19718123  5.47868766  0.16045918
  H -0.98334595  5.81327239 -1.14784449
  H -1.52752592  5.66096801  0.55679743
