68
opt_min/./Product_2985_opt.xyz
  C -2.51548100 -2.32425500  1.24418900
  O -1.15653384 -2.16006911  0.91870426
  C -0.82409102 -1.20200673 -0.05131246
  C  0.73823297 -1.24950602 -0.33113279
  C  1.46719233 -2.10272195  0.71134830
  F  1.55544720 -1.52722796  1.91483395
  F  2.73456056 -2.36222403  0.31103637
  F  0.96986365 -3.32153227  0.95621405
  C  0.76816962 -1.86140964 -1.75780319
  C  0.21784769 -3.29320249 -1.79945839
  C -1.30166113 -3.09168588 -1.65301198
  C -1.42393876 -1.57311267 -1.43979267
  C -0.36781699 -1.08066771 -2.42138174
  C  1.25039469  0.26716892 -0.31735799
  C  2.22901873  0.72500736  0.80159207
  C  3.54048823  0.27043373  0.92526300
  C  4.40022888  0.78573293  1.87809216
  C  3.99098031  1.79690558  2.72663576
  C  2.70623414  2.28612087  2.59755284
  C  1.84838488  1.76548588  1.64486199
  C  2.00028610  0.69300611 -1.58967793
  C  1.67775581  1.87329711 -2.25263682
  C  2.38715014  2.29937323 -3.36285396
  C  3.45670356  1.56406715 -3.83696369
  C  3.81803373  0.40890152 -3.16777171
  C  3.10958865 -0.01136336 -2.05626999
  N -0.00436019  0.97049788 -0.21217290
  C -1.11765256  0.27403367  0.36584669
  C -1.05450429  0.58790535  1.88607653
  O -0.83957271 -0.43074521  2.69245854
  C -0.56937321 -0.16019246  4.06176861
  O -1.12974531  1.73846592  2.25204813
  C -2.43674848  0.85275744 -0.13387806
  C -3.54775437  0.93459777  0.69861799
  C -4.73668436  1.48168053  0.25014585
  C -4.83824335  1.97052084 -1.03990199
  C -3.73463869  1.91680418 -1.87206383
  C -2.54675985  1.37009023 -1.42073020
  H -2.53283981 -3.15335068  1.94992447
  H -3.13026710 -2.57271968  0.37333343
  H -2.93476046 -1.44064537  1.72587557
  H  1.72606283 -1.77643248 -2.26064907
  H  0.60410945 -3.92775058 -1.01160741
  H  0.48007496 -3.75668604 -2.75086515
  H -1.83024160 -3.35870313 -2.56796280
  H -1.69700509 -3.68456254 -0.83387105
  H -2.44040215 -1.21093408 -1.57868772
  H -0.19404464 -0.01167507 -2.39917352
  H -0.55948216 -1.39686067 -3.44408225
  H  3.92798851 -0.51266148  0.30144299
  H  5.40360608  0.39184900  1.94617606
  H  4.66470748  2.20119181  3.46765344
  H  2.35989573  3.08742165  3.23357130
  H  0.86666188  2.19744522  1.57582722
  H  0.85764746  2.49339862 -1.92637234
  H  2.09993030  3.21826366 -3.85230368
  H  4.00611700  1.89111212 -4.70646323
  H  4.66203060 -0.17379748 -3.50612350
  H  3.45163073 -0.90284387 -1.55646937
  H -0.07639939  1.95485001 -0.37821993
  H -1.38616547 -0.55942768  4.66421007
  H -0.47726847  0.91588989  4.21825863
  H  0.36290360 -0.66497358  4.30991964
  H -3.49634437  0.57749366  1.71643307
  H -5.58387089  1.53225371  0.91769051
  H -5.76600829  2.39766378 -1.39008774
  H -3.79358838  2.30695041 -2.87739319
  H -1.69648128  1.35170903 -2.08258033
