41
opt_min/./Product_1551_opt.xyz
  C  2.25894000  2.34804600 -0.23053000
  O  2.03487693  1.04931515 -0.75713503
  C  1.33386048  0.10753006 -0.01826233
  C  1.93288668 -0.37573301  1.33723140
 Br  3.75622663  0.17712922  1.79813578
  C  1.97916606 -1.92268524  1.10044351
  C  3.17504164 -2.13209322  0.19153511
  C  2.79174833 -1.65450667 -0.98289168
  C  1.34798516 -1.24645016 -0.80060775
  O  0.89812408 -2.13141387  0.21721519
  C  0.99517032  0.15041125  2.40722689
  O -0.23332732  0.46383260  1.80293897
  C -0.15881670  0.47342316  0.37731645
  C -0.63178416  1.84072992 -0.16489844
  O -0.51526326  2.16823445 -1.32740766
  N -1.27113800  2.57883957  0.76122113
  C -1.88957761  3.84263205  0.44369687
  C -1.20375611 -0.49859121 -0.17132934
  C -1.88527723 -1.34902502  0.68922621
  C -2.84896779 -2.21149951  0.20001445
  C -3.15181343 -2.22907106 -1.14820397
  C -2.49028766 -1.37088678 -2.00825396
  C -1.52476739 -0.50663734 -1.52446166
  H  1.36279759  2.77586761  0.21755708
  H  3.07026051  2.36214729  0.50013661
  H  2.54588182  2.93960864 -1.09826392
  H  1.88327473 -2.52746554  1.99813004
  H  4.11885269 -2.52670965  0.50943488
  H  3.33690095 -1.53714733 -1.89619358
  H  0.71968328 -1.27118610 -1.67989812
  H  1.41369874  1.06121553  2.86275967
  H  0.81138052 -0.58184422  3.20287143
  H -1.33559359  2.22089134  1.70297450
  H -2.82796637  3.94348745  0.98617823
  H -1.23092932  4.67891968  0.69630947
  H -2.08181726  3.86562085 -0.62995250
  H -1.65533155 -1.34073419  1.74262546
  H -3.36336919 -2.87281912  0.88281159
  H -3.90361894 -2.90533736 -1.52858514
  H -2.72393460 -1.36759902 -3.06298427
  H -1.03293873  0.18017118 -2.19727602
