35
opt_min/./Product_553_opt.xyz
  F -0.21314709 -1.90948394  2.47604005
  C -1.14236188 -1.55596132  1.57436379
  F -2.16688889 -1.06787448  2.29258162
  F -1.60473368 -2.69149851  1.02194238
  C -0.63530796 -0.57436663  0.53557971
  C -1.75671194 -0.13575050 -0.42466253
  C -1.48812261  1.41585681 -0.45460177
  C -2.21061979  1.86789810  0.80061878
  C -1.44483352  1.44758893  1.79715697
  C -0.23352694  0.81275816  1.13292592
  O -0.13501946  1.55200278 -0.06585745
  C -1.57593469 -0.97563508 -1.69311821
  C -1.91389685 -0.22829423 -2.89070510
  N -2.24214765  0.35141845 -3.81877431
  N -0.20480286 -1.43136794 -1.68424552
  C  0.46727195 -1.16149486 -0.42427607
  C  1.56789333 -0.09837121 -0.80001903
  N  2.46704401  0.16416124  0.17351116
  C  3.53843806  1.11254720 -0.02870914
  O  1.64666592  0.34846815 -1.91604039
  C  1.18282168 -2.42256688  0.06356422
  H -2.75996986 -0.28835769 -0.01826295
  H -1.67689883  1.91131787 -1.39986004
  H -3.15740608  2.36759500  0.81726893
  H -1.60062827  1.49150079  2.85609539
  H  0.68224114  0.82906726  1.71571351
  H -2.28678453 -1.82441647 -1.64021261
  H -0.10105405 -2.38258415 -2.00710324
  H  2.39101510 -0.25839123  1.08358258
  H  4.49298738  0.59671459 -0.16113868
  H  3.30831329  1.67565331 -0.93138984
  H  3.61061621  1.79104803  0.82113055
  H  1.68254532 -2.28184443  1.01892874
  H  0.48895445 -3.25648109  0.16622084
  H  1.93465795 -2.69260293 -0.67666738
