61
opt_min/./Product_2871_opt.xyz
  C  1.81177000  1.35663900 -1.54191000
  C  1.61809891  0.23828684 -0.50145891
  C  2.14587942  0.62311597  0.88858195
  C  1.78469580 -0.14469890  1.99240386
  C  2.28476509  0.13465868  3.25051980
  C  3.17606401  1.17773019  3.43244052
  C  3.56655902  1.92771562  2.33723547
  C  3.05566292  1.65442685  1.07950615
  C  0.14752199 -0.02386730 -0.28224509
  C -0.64422999 -1.11059822 -0.22337989
  C -0.46157101 -2.50252924 -0.74401337
 Cl -2.05653980 -3.34376101 -0.77264400
 Cl  0.51627641 -3.46319040  0.43124237
  C  0.05682499 -2.65150900 -2.18413593
  C  1.55938492 -2.78559148 -2.40695522
  C  2.31910527 -1.47105248 -2.33508441
  C  2.49457995 -0.96408589 -0.89967059
  C -1.91035272 -0.76060538  0.58407947
  C -3.22054765 -0.64836013 -0.20755223
  C -1.99223681 -1.69986270  1.81088713
  O -1.15137840 -1.70613324  2.66710654
  O -3.06826095 -2.47746768  1.82501214
  C -3.17669955 -3.36187464  2.93439995
  O -1.59108840  0.50228542  1.15864670
  C -0.68137797  1.12600765  0.29305627
  C -0.02664668  2.30880908  1.02058386
  O -0.29209441  2.27828098  2.30593079
  C  0.14647186  3.38575020  3.08319005
  O  0.56953778  3.19023403  0.45506592
  C -1.52485363  1.83076100 -0.81554572
  O -2.40908768  2.59783481 -0.56182614
  O -1.21213620  1.43093559 -2.04524457
  C -1.94993214  2.04072384 -3.10318278
  H  2.75807410  1.23371452 -2.06175282
  H  1.79096104  2.33786638 -1.08126781
  H  1.00765771  1.33381618 -2.27075718
  H  1.08974232 -0.96231520  1.88762862
  H  1.96632205 -0.46523769  4.08927986
  H  3.56910506  1.39867589  4.41408579
  H  4.27869700  2.73206378  2.45424247
  H  3.40515148  2.24784423  0.25015651
  H -0.38842984 -3.56957085 -2.57424501
  H -0.33973411 -1.81285163 -2.75927279
  H  1.97235108 -3.49538724 -1.69067077
  H  1.69525933 -3.21038829 -3.40463452
  H  3.30936888 -1.65186153 -2.76088986
  H  1.82076611 -0.72717741 -2.95308413
  H  3.51924269 -0.59642172 -0.79169263
  H  2.37390377 -1.77954054 -0.19138811
  H -3.76631128  0.20669161  0.18629410
  H -3.01813248 -0.47937614 -1.26306116
  H -3.83467984 -1.53491730 -0.10141920
  H -3.21062292 -2.79386185  3.86557107
  H -2.31829770 -4.03591450  2.96219929
  H -4.09768129 -3.91900562  2.78496852
  H  1.16711369  3.20711137  3.42564826
  H -0.52985241  3.45284052  3.93181967
  H  0.11950323  4.29892780  2.48582950
  H -3.02092120  1.91124960 -2.93749189
  H -1.72314928  3.10655902 -3.14874208
  H -1.63787525  1.54126009 -4.01684228
