51
opt_min/./Product_2599_opt.xyz
 Br  1.53224100 -2.07223800  2.38679000
  C  1.41226939 -0.42960928  1.51799179
  C  1.65758157 -0.05101149  0.24849356
  C  2.32902359 -0.70769309 -0.85818025
  C  2.60201704 -2.07848783 -0.84041167
  C  3.30172206 -2.67450998 -1.87208328
  C  3.74034972 -1.92465900 -2.94902396
  C  3.47928096 -0.56624211 -2.98095679
  C  2.78284803  0.03722272 -1.95317059
  C  1.25528473  1.42655286  0.27990947
  C -0.28754746  1.50807964  0.37702166
  C -0.50464912  1.19879003  1.88244920
  C  0.94674424  0.78712307  2.27657892
  O  1.64237853  1.81912183  1.58929342
  N -1.65096633  0.34284370  1.91519616
  C -2.23165589 -0.39203405  2.90419682
  C -1.43215164 -0.40415802  4.19161216
  O -3.29782412 -0.93515549  2.76830676
  O -2.29962684  0.44805878  0.66667291
  C -1.26692857  0.52882418 -0.31565029
  C -0.76460964 -0.92450847 -0.57762257
  N -0.31546788 -1.12426909 -1.83634189
  C -0.13912843 -2.46301482 -2.35989801
  O -0.83179487 -1.79186650  0.25964003
  C -1.91805545  1.03388510 -1.58093372
  C -1.42731445  2.10193101 -2.31776044
  C -2.07926205  2.50829473 -3.47173131
  C -3.22826108  1.86216340 -3.89116648
  C -3.72495715  0.79986593 -3.15398732
  C -3.07200502  0.38436909 -2.00949656
  H  2.27267340 -2.68759190 -0.01727552
  H  3.50052987 -3.73519347 -1.83293656
  H  4.28302353 -2.39423673 -3.75487835
  H  3.82605742  0.03204430 -3.81115085
  H  2.60919844  1.10049422 -2.00013114
  H  1.71222668  2.08928522 -0.44637494
  H -0.65592696  2.51573287  0.16201770
  H -0.68363249  2.13322084  2.44203697
  H  1.18303603  0.79256929  3.33758808
  H -1.93223988 -1.07432363  4.88825406
  H -1.39533048  0.59639533  4.62061991
  H -0.42185554 -0.75996407  4.02259837
  H -0.28929450 -0.35600707 -2.48872928
  H  0.29536810 -3.08924469 -1.58306204
  H  0.51720921 -2.43070677 -3.22557184
  H -1.10283168 -2.89461089 -2.64913588
  H -0.52467781  2.61597828 -2.02247257
  H -1.68660121  3.33851115 -4.03996345
  H -3.73678663  2.18709963 -4.78706104
  H -4.62531157  0.29504227 -3.47121495
  H -3.46595552 -0.42784243 -1.41820906
