56
opt_min/./Product_1788_opt.xyz
  C  1.48580688 -2.83629214 -1.23743699
  C  0.49824030 -2.60485846 -0.07265833
  C  0.38798428 -1.12622104  0.19721327
  C -0.59359054 -0.26181499  0.45580689
  C -2.08996312 -0.46555088  0.50228455
  C -2.83149324  0.78769153  0.58656140
  N -3.52986367  1.68968919  0.65231214
  C -2.55196136 -0.96739366 -0.78226793
  N -2.93343916 -1.28147542 -1.81273384
  C -2.59242868 -1.33294992  1.68786457
  C -1.72498616 -2.56180468  1.92906278
  C -1.82812560 -3.54456879  0.75920597
  C -0.77093149 -3.41968592 -0.35365114
  C -0.05874899  1.10989351  0.83447033
  C -0.41813641  1.42369091  2.29705427
  C -0.53429639  2.16272503 -0.15094456
  C -0.79619801  3.47482361  0.22417247
  C -1.20035443  4.40733012 -0.71383740
  C -1.34527598  4.04720892 -2.04187099
  C -1.07132981  2.74820091 -2.43049463
  C -0.66388496  1.81747692 -1.49349743
  N  1.39946525  0.92451250  0.80109236
  C  2.21548163  1.98706253  0.27778564
  C  1.71230089 -0.39608358  0.29368972
  C  2.65918227 -1.06375704  1.29970334
  N  3.96628054 -0.93026153  0.99390684
  C  5.01808368 -1.42312326  1.85047523
  O  2.26592195 -1.62994360  2.29789277
  H  2.50667685 -2.92787275 -0.87286223
  H  1.44532775 -2.02191515 -1.95774948
  H  1.23807688 -3.74925506 -1.77251019
  H  0.95679749 -3.01405026  0.83849297
  H -3.61554795 -1.64637921  1.46084559
  H -2.62711994 -0.70868032  2.58419950
  H -2.06337433 -3.04569983  2.84668969
  H -0.69627939 -2.24811599  2.09784343
  H -2.81122595 -3.40774344  0.29720882
  H -1.81557102 -4.56420472  1.14782493
  H -0.41306812 -4.42813287 -0.57216464
  H -1.23374604 -3.04702769 -1.26742532
  H -0.17032874  0.55923990  2.90921119
  H  0.18545981  2.25749245  2.64568578
  H -1.46936439  1.67311542  2.41478852
  H -0.69740781  3.77654213  1.25471342
  H -1.40897418  5.42038476 -0.40213561
  H -1.66907455  4.77561548 -2.76983009
  H -1.18167563  2.45442835 -3.46363829
  H -0.45247769  0.80456164 -1.81022069
  H  1.84865156  2.94089517  0.65071650
  H  3.23837911  1.85159329  0.63486632
  H  2.22748255  2.02740736 -0.82420768
  H  2.19655504 -0.33467627 -0.69856049
  H  4.23733699 -0.45060049  0.15077124
  H  5.72252946 -2.02826157  1.27908066
  H  4.55077530 -2.03380525  2.62148995
  H  5.55538580 -0.59871959  2.32553807
