31
opt_min/./Product_4120_opt.xyz
  O  1.65535100  2.99477000 -0.15462100
  C  2.64404863  2.67703964 -0.63041193
  O  3.63051817  2.37967419 -1.12715963
  C  2.43595681 -0.18242817  0.47653760
  C  1.34394105  0.01440773  1.22771125
  C  1.95892589 -1.95412476  3.53879396
  O  0.87003588 -2.00423675  3.88180038
  O  3.05516974 -1.86160072  3.22938005
  C  0.15986170 -0.39016107  0.39904359
  C -0.30918273 -1.76592346  0.97178351
  C -1.73823368 -1.83751361  1.39098234
  O  0.46784542 -2.67548386  1.04808449
  C -0.94653401  0.66727346  0.38670623
  O -1.40610900  1.13716578  1.40570532
  N -1.33009245  0.99338265 -0.85436821
  C -2.31051012  2.01355666 -1.12745992
  N  0.69236236 -0.67783628 -0.90904498
  C  1.97616183 -0.61442760 -0.83486187
  C  2.87622961 -0.91994155 -1.97150293
  H  3.46228888 -0.00208106  0.73486831
  H  1.25284754  0.33443192  2.24644411
  H -2.38435879 -1.62294710  0.54176588
  H -1.92443570 -1.08049768  2.15104722
  H -1.95271515 -2.82689891  1.78625656
  H -0.85266765  0.53286107 -1.61795823
  H -1.83413094  2.92696875 -1.49066922
  H -3.02329597  1.65937244 -1.87161628
  H -2.82912480  2.23491852 -0.19588794
  H  3.52437781 -0.06884243 -2.17639649
  H  2.29645304 -1.16521400 -2.85645308
  H  3.50704214 -1.76845366 -1.71073679
