34
opt_min/./Product_3599_opt.xyz
  C  0.88998400  2.79897300  0.51016200
  C -0.53359676  2.32518495  0.53167692
  C -1.52359358  3.40672295  0.85762550
  C -0.94347493  1.08012810  0.32478273
  C -0.10558644 -0.12639687 -0.00736284
  C  1.08668269 -0.40043759  0.93443155
  C  2.46504050 -0.50670974  0.31493339
  C  3.47832879 -1.12901570  1.22678644
  C  2.78358716 -0.05698726 -0.88768840
  O  0.76250815 -1.66505662  1.57964233
  N -0.37058076 -2.17886262  1.06718329
  C -0.88693364 -1.40347498  0.19701923
  C -2.12366830 -1.75741240 -0.53179989
  N -2.63974108 -2.94657696 -0.15750854
  C -3.83611991 -3.49699730 -0.73645745
  O -2.61460767 -1.03977686 -1.38423128
  H  0.95714014  3.72437552 -0.05836045
  H  1.22404640  3.02070879  1.52440535
  H  1.56658402  2.07503097  0.06935791
  H -1.43570444  4.22690596  0.14779808
  H -2.54200130  3.03094026  0.83630732
  H -1.32075415  3.80792625  1.85050658
  H -2.00443895  0.87850537  0.33258278
  H  0.20750029 -0.07751845 -1.05505443
  H  1.12309112  0.34260254  1.74096852
  H  3.65153943 -0.48033652  2.08438066
  H  4.41762216 -1.29898142  0.71139585
  H  3.09578217 -2.07363214  1.60776491
  H  3.79101949 -0.14199143 -1.25787190
  H  2.08729984  0.40826835 -1.56477303
  H -2.15216873 -3.46040007  0.55992153
  H -4.20703663 -2.77550876 -1.46180444
  H -3.62213276 -4.44274860 -1.23930253
  H -4.59573366 -3.66734136  0.02877523
