41
opt_min/./Product_4486_opt.xyz
  C -2.32735900  0.86835900  0.31793800
  C -1.44396637 -0.12554225  1.06644605
  C -1.96852080 -0.32891388  2.48413284
  C  0.05673586  0.26793074  1.07853144
  C  0.35606572  1.71367379  1.33647574
  O -0.18629997  2.67434197  0.87056868
  C  0.58885457 -0.23625096 -0.30418915
  C  0.63341151  0.87811800 -1.38618377
  N  1.64097046  1.75698440 -1.27735227
  C  1.78854619  2.85754428 -2.20238772
  O -0.19308101  0.91255393 -2.27036052
  C  1.99950178 -0.86205831 -0.27075622
  O  2.33024620 -1.70053439 -1.07401456
  N  2.84615535 -0.37464170  0.67099687
  C  4.20901616 -0.84323859  0.78310512
  N -0.34421235 -1.25369742 -0.73693740
  C -1.35271235 -1.46345658  0.27508883
  C -2.67814341 -2.03321595 -0.20833389
  C -2.67127901 -2.79117901 -1.50738308
  O -3.67397867 -1.94947974  0.46831245
  H -1.96826586  1.02936118 -0.69522825
  H -3.34161979  0.47948069  0.27240972
  H -2.35553524  1.82669505  0.82983624
  H -2.08132515  0.62925380  2.98793516
  H -1.29719536 -0.95456082  3.07077768
  H -2.93972114 -0.81414402  2.43968761
  H  0.53811266 -0.32497472  1.86447154
  H  1.18793575  1.85795293  2.06991446
  H  2.33126417  1.65889765 -0.55138870
  H  2.17770177  3.72795469 -1.67736833
  H  2.45959169  2.59357913 -3.02284652
  H  0.80533563  3.08504273 -2.61200963
  H  2.53703941  0.30942508  1.34148779
  H  4.91601462 -0.05811026  0.50539506
  H  4.32058340 -1.68311980  0.09937031
  H  4.41696018 -1.17085822  1.80194216
  H -0.72695085 -0.99486440 -1.64404707
  H -0.98120053 -2.24404931  0.96584772
  H -3.49665685 -2.44029818 -2.12435717
  H -1.73434616 -2.71442161 -2.04510187
  H -2.86198632 -3.83962668 -1.28066026
