58
opt_min/./Product_3190_opt.xyz
  F -2.04468000 -3.33004100 -2.05503800
  C -1.79538342 -2.15070738 -1.46577889
  F -0.94629014 -1.52025359 -2.28356407
  F -2.95843672 -1.49887960 -1.50294170
  C -1.19206865 -2.31092327 -0.03783042
  C -2.35322113 -2.44116737  0.97184148
  F -3.11458762 -1.35802659  1.13408491
  F -1.89827295 -2.77146793  2.18256238
  F -3.19390021 -3.42103687  0.61005859
  C -0.30925906 -1.10845614  0.27059500
  C  1.02810292 -0.92951441  0.45975316
  C  2.22145196 -1.79239111  0.73674976
 Br  3.54860723 -1.58331043 -0.70143903
 Br  3.07225002 -1.02902387  2.40494018
  C  2.12962907 -3.27221447  1.08456115
  C  1.90385943 -4.22360883 -0.08893154
  C  0.68940953 -3.83569160 -0.91777794
  C -0.53192683 -3.70682015 -0.00608225
  C  1.23693663  0.55037916  0.52432544
  C  2.47152645  1.35457991  0.47488945
  C  3.10764025  1.54981916 -0.74674271
  C  4.20874103  2.38245785 -0.83010261
  C  4.66749778  3.04404331  0.29550196
  C  4.00206422  2.89563790  1.50107003
  C  2.89969260  2.06723020  1.58961775
  N  0.14081372  1.19537345  0.52899590
  C -0.95940772  0.28297928  0.43130729
  C -1.43576996  0.41741550  1.89725741
  O -2.23059053  1.44813703  2.06161356
  C -2.60843661  1.78030916  3.39563355
  O -1.00191541 -0.28941574  2.76718960
  C -1.85943104  0.83910966 -0.66230246
  C -3.22436077  1.05125633 -0.53436661
  C -3.94546556  1.59065016 -1.58614677
  C -3.32016810  1.93277175 -2.77025250
  C -1.95583851  1.73879423 -2.89878870
  C -1.23239953  1.20103673 -1.85267216
  H  1.35965717 -3.37695678  1.85191506
  H  3.07599582 -3.56227346  1.54713648
  H  1.76734822 -5.22604736  0.32025778
  H  2.79242220 -4.24081543 -0.72111055
  H  0.89232238 -2.90708746 -1.45205458
  H  0.50862381 -4.59790982 -1.67572823
  H -1.28640813 -4.43719388 -0.30255944
  H -0.27380173 -3.93332265  1.02600930
  H  2.73475925  1.06254721 -1.63602812
  H  4.70520084  2.51387890 -1.77940583
  H  5.53299724  3.68617247  0.23010115
  H  4.33964107  3.42973971  2.37632036
  H  2.37344138  1.95522399  2.52543040
  H -2.28159647  1.00147681  4.08599864
  H -3.69327741  1.87539270  3.41570638
  H -2.14420375  2.73204457  3.65434039
  H -3.74136223  0.79244443  0.37287265
  H -5.00883446  1.73653920 -1.47088413
  H -3.88995193  2.35097015 -3.58651938
  H -1.45134074  2.00752789 -3.81433476
  H -0.16833111  1.05807943 -1.96267009
