52
opt_min/./Product_5504_opt.xyz
  C  4.30641200 -1.46322300 -0.07031500
  C  4.16072805 -0.06955469 -0.61230472
  C  5.35574712  0.46270387 -1.33616882
  C  3.04971351  0.66173611 -0.47071373
  C  1.84005724  0.24664539  0.19717493
  C  0.77040255  1.03415562  0.30489064
  C -0.50325248  0.69270202  1.03376257
  C -0.31300671  1.08337032  2.50315625
  C -0.94618242 -0.77631116  0.85369420
  C -2.28493688 -0.64207387  0.07062512
  C -2.83253432 -1.94141955 -0.44815449
  C -3.31638794 -2.83323874  0.50665763
  C -3.81793971 -4.06455093  0.12906822
  C -3.83692480 -4.42634931 -1.20635041
  C -3.36298831 -3.54326909 -2.15835064
  C -2.86294685 -2.30598876 -1.78533038
  O -3.24045133 -0.11479462  1.02668834
  C -2.89585784  1.14793736  1.23114078
  O -3.38084364  1.87141858  2.05938775
  C -1.71292669  1.42104277  0.30712578
  C -1.53564580  2.89031829 -0.05452057
  N -1.49801169  3.69188902  1.03028520
  C -1.43917071  5.12868890  0.88286890
  O -1.39719661  3.29170661 -1.19157500
  N -2.08567494  0.51538476 -0.77959486
  C -1.21612736  0.44043922 -1.93582198
  H  3.93898835 -1.53616852  0.95110769
  H  3.74269029 -2.16707384 -0.68613399
  H  5.34993751 -1.77102475 -0.08997808
  H  5.15030023  1.42916059 -1.79214651
  H  5.67309059 -0.23305937 -2.11348064
  H  6.18957201  0.58339023 -0.64107014
  H  3.02364808  1.65800724 -0.89367356
  H  1.82656496 -0.75318631  0.60866359
  H  0.81632637  2.04352995 -0.08043129
  H  0.29475457  1.98435299  2.57639218
  H  0.21551155  0.28391673  3.02130300
  H -1.25748954  1.24971537  3.01447372
  H -1.10215759 -1.29847301  1.79643346
  H -0.24125603 -1.33984331  0.24454403
  H -3.31380078 -2.54342641  1.54596805
  H -4.19457336 -4.74137654  0.88225103
  H -4.22571295 -5.38984651 -1.50375784
  H -3.38180767 -3.81162587 -3.20491903
  H -2.51642218 -1.62769163 -2.54356652
  H -1.86829173  3.33972841  1.90349919
  H -0.94116315  5.55992465  1.75079683
  H -2.43823411  5.56252225  0.79020939
  H -0.87431834  5.35428782 -0.02111241
  H -0.48063793 -0.36888357 -1.86948599
  H -1.82861987  0.29856856 -2.82792849
  H -0.69443884  1.38679665 -2.04165918
