30
opt_min/./Product_3785_opt.xyz
  C -1.87962969 -1.07638336 -1.16399143
  C -1.10840327  0.13320903 -1.67188051
  C -0.43474631  0.64062926 -0.38582760
  C -0.10876037  2.14076515 -0.43606331
  C -0.09963289  2.82442020  0.89276305
  O  0.16008007  2.66874270 -1.48387621
  C  0.89330758 -0.06540907 -0.13447589
  C  1.08641164 -0.84088691  0.99875911
  C  2.29468501 -1.48563059  1.20522100
  C  3.32064067 -1.34623355  0.28715272
  C  3.13476947 -0.55858498 -0.83737326
  C  1.92905574  0.08151312 -1.05197529
  O -1.37112073  0.38934888  0.65618233
  C -2.31699126 -0.59194510  0.24015426
  C -3.64787710  0.01304106  0.17771577
  N -4.67461087  0.50638851  0.10871795
  C -2.36025438 -1.69033598  1.19883274
  N -2.34611359 -2.54913563  1.95027095
  H -2.73367579 -1.34471974 -1.78457321
  H -1.21855612 -1.94091870 -1.05857691
  H -0.38626483 -0.11619937 -2.44444948
  H -1.78750052  0.89787570 -2.05441015
  H -1.08395737  2.72692103  1.34869057
  H  0.61391022  2.32703466  1.54912818
  H  0.16145188  3.87217293  0.77557590
  H  0.29278491 -0.94611747  1.72366882
  H  2.42866009 -2.09554079  2.08578731
  H  4.26378603 -1.84589479  0.44914988
  H  3.93589762 -0.43900905 -1.55191940
  H  1.79009181  0.70387118 -1.92424681
