54
opt_min/./Product_2662_opt.xyz
 Cl -0.49006100 -4.20274100 -2.74839900
  C -0.82946643 -2.58749204 -2.37538308
  C -1.97891168 -1.90968188 -2.38710309
 Cl -3.57155447 -2.42179499 -2.68440340
  C -1.62149930 -0.53025460 -1.85389844
  C -1.39428363 -0.79221956 -0.32687648
  C  0.01351032 -1.40939926 -0.36433895
  C  0.21242477 -1.58807854 -1.89758973
  O -0.31760015 -0.36024081 -2.37447366
  C  0.95982400 -0.33058534  0.23924062
  C  1.96347937  0.16253091 -0.84183133
  N  1.68405338  1.36106784 -1.39970740
  C  2.49254551  1.87903820 -2.48098351
  O  2.95253968 -0.48003134 -1.12447928
  C  1.80783691 -0.90644612  1.36101022
  C  1.96994297 -0.19977693  2.54582140
  C  2.76791536 -0.70211708  3.55659200
  C  3.42546260 -1.91001731  3.39134780
  C  3.27694645 -2.61172253  2.20855710
  C  2.47092138 -2.11458871  1.19900721
  N  0.10096841  0.72376672  0.71856393
  C -1.30207077  0.43545089  0.60106412
  C -1.79998693  0.04813695  2.02008818
  O -1.19691126  0.29145500  3.02542716
  O -3.00762864 -0.52163727  1.99019004
  C -3.57681599 -0.84872149  3.25339804
  C -2.18800461  1.60745933  0.23324821
  C -1.79122165  2.91718846  0.48688328
  C -2.62425999  3.97801438  0.17857233
  C -3.87708624  3.74874801 -0.36285500
  C -4.30326560  2.44726199 -0.56203025
  C -3.47155766  1.38483775 -0.25763312
  H -2.27007650  0.29078674 -2.13754395
  H -2.17036200 -1.46738080  0.02998990
  H  0.09010083 -2.35187468  0.17406189
  H  1.23179879 -1.74999536 -2.23053097
  H  0.72176141  1.66573747 -1.39272239
  H  1.90455463  1.96862475 -3.39375367
  H  3.31818106  1.18916544 -2.64718938
  H  2.89285569  2.85658418 -2.20615260
  H  1.44471859  0.73080703  2.68487348
  H  2.87829393 -0.14550599  4.47552363
  H  4.04899624 -2.30114343  4.18209299
  H  3.79013552 -3.55167459  2.06723093
  H  2.37566850 -2.66610021  0.27600906
  H  0.39845644  1.66359024  0.52774370
  H -4.61595712 -1.10271100  3.06232052
  H -3.50309091  0.00427965  3.92979429
  H -3.05075387 -1.69753690  3.69396542
  H -0.84037803  3.11487320  0.95733622
  H -2.29207449  4.98703596  0.37264882
  H -4.52444492  4.57672941 -0.60845395
  H -5.29297327  2.25535789 -0.94896844
  H -3.82912108  0.37494236 -0.38617901
