56
opt_min/./Product_2309_opt.xyz
  C -3.42085700 -0.79979500 -2.33027700
  O -2.22977776 -0.70249449 -1.57529357
  C -2.08469301  0.23126040 -0.51693275
  C -2.80950974  1.54747659 -0.88080800
  F -4.14253678  1.36717489 -0.96075284
  F -2.44439643  2.07744563 -2.04897407
  F -2.66971711  2.51334874  0.03841312
  C -0.57714285  0.35999979 -0.37214694
  C  0.27296159 -0.67100450 -0.41768315
  C  0.14320717 -2.17423539 -0.35854462
  F  0.76122216 -2.57442390  0.81192185
  F  0.95921891 -2.67859810 -1.34389056
  C -1.15054627 -2.97868419 -0.45296172
  C -2.23884349 -2.72441265  0.60108022
  C -2.08856078 -1.45380071  1.43972755
  C -2.76478158 -0.25202295  0.78973039
  C  1.70088635 -0.16922255 -0.54065821
  C  2.75597818 -0.84952916  0.29420881
  C  3.69348975 -1.68824177 -0.29094187
  C  4.67017852 -2.28966918  0.48356585
  C  4.72653167 -2.04809551  1.84479398
  C  3.79403599 -1.20957669  2.43313037
  C  2.81395152 -0.61452106  1.66211489
  N  1.56192423  1.20815211 -0.16663948
  C  2.69401173  2.08976432 -0.25132207
  C  0.18953105  1.67755741 -0.25115697
  C  0.09520527  2.47237978 -1.57820293
  C -0.16569298  3.95580858 -1.56022061
  O  0.37000144  1.89851162 -2.60325880
  C -0.12666818  2.41931358  1.06503547
  H -3.23742052 -1.63700113 -3.00195903
  H -3.61552833  0.09177744 -2.93056918
  H -4.29463240 -1.02038803 -1.70846780
  H -1.52926217 -2.86555373 -1.46602480
  H -0.79887268 -4.00874855 -0.35578060
  H -3.20442742 -2.68518818  0.09827326
  H -2.27313684 -3.58215674  1.27456499
  H -1.04106110 -1.23607056  1.63599769
  H -2.56450632 -1.61498521  2.40962114
  H -2.80204912  0.58151304  1.49446181
  H -3.79513243 -0.51926272  0.54122073
  H  1.96247795 -0.29239588 -1.61421777
  H  3.64891056 -1.88179807 -1.35299960
  H  5.39137588 -2.94733727  0.01993561
  H  5.49252149 -2.51402938  2.44717864
  H  3.83000196 -1.02268254  3.49660412
  H  2.07710603  0.03188903  2.11568489
  H  2.50547508  2.95062407 -0.89886724
  H  3.53677207  1.54055722 -0.66886099
  H  2.99215105  2.45790226  0.73755508
  H  0.78857237  4.46835124 -1.43341923
  H -0.57463554  4.23894972 -2.52752816
  H -0.83603707  4.27168218 -0.77055760
  H -0.59792293  1.73664395  1.76721357
  H  0.81114832  2.75188924  1.49977749
  H -0.76792794  3.28305623  0.94835377
