41
opt_min/./Product_2618_opt.xyz
 Br -1.28838251 -0.83416657  1.66692418
  C -0.57338187 -0.28553028 -0.10120283
  C -0.53265247  1.23378388 -0.07504644
  C  0.59507716  2.01277793 -0.28892530
  C  0.50601402  3.39596457 -0.26886544
  C -0.70185575  4.02251904 -0.03417085
  C -1.83448869  3.25323562  0.17546760
  C -1.75176813  1.87626845  0.15454512
  C  0.72290655 -1.05355667 -0.45082507
 Br  0.56065159 -2.96398706  0.17620603
  C  2.03859946 -0.56830182  0.07530006
  C  2.17595158 -0.28232840  1.43302456
  C  3.38948558  0.14098831  1.93821075
  C  4.48852303  0.26780838  1.10462463
  C  4.36727154 -0.04524135 -0.23716901
  C  3.15353860 -0.46684588 -0.75196762
  C  0.56422772 -1.16758835 -1.98953531
  C  1.38621304 -2.20107024 -2.60911306
  N  2.03125464 -2.99142532 -3.12063935
  C  0.87776716  0.08875963 -2.68034916
  N  1.08839270  1.04067004 -3.27460218
  O -0.80475396 -1.49021061 -2.16562933
  C -1.54771997 -0.73291561 -1.24077637
  C -2.75645748 -1.54059239 -0.74236110
  O -2.45672764 -2.81120547 -0.58559386
  C -3.48388305 -3.67641367 -0.11363981
  O -3.81698145 -1.02104641 -0.52366071
  H  1.55640979  1.57130648 -0.48485971
  H  1.39874189  3.97680215 -0.44088455
  H -0.76455719  5.09961579 -0.01767662
  H -2.78840333  3.72351359  0.35851290
  H -2.64451183  1.29049769  0.32191485
  H  1.33709532 -0.39336599  2.10082532
  H  3.47523670  0.36555407  2.98997084
  H  5.43676201  0.59642402  1.50095771
  H  5.21903136  0.03290238 -0.89499406
  H  3.09199901 -0.70979619 -1.80269545
  H -1.95458154  0.16382417 -1.73685802
  H -4.18421923 -3.12252403  0.51344394
  H -4.01207829 -4.10312384 -0.96780685
  H -2.98862429 -4.46021967  0.45528287
