60
opt_min/./Product_2610_opt.xyz
  C -3.30443000  0.00712500 -2.22455200
  C -3.18777863 -1.16216596 -1.28590816
  O -4.00039853 -2.04625191 -1.27858125
  C -2.07919449 -1.07646389 -0.21768337
  C -2.09463884 -2.43238036  0.51579476
  C -3.26640533 -2.69215526  1.40943388
  O -1.17350822 -3.20087205  0.43424670
  C -0.68726377 -0.65127685 -0.64834914
  C  0.08151046  0.36522664 -0.15713959
  C -0.27517474  1.72549225  0.52589586
  F -1.01619627  2.42188483 -0.40511029
 Cl  1.22193996  2.76756802  0.65575159
  C -0.97428294  1.93798496  1.93001139
  C -2.53092096  1.95831699  2.04147762
  C -3.22877357  0.58618711  1.87824537
  C -2.37289491  0.09402961  0.72886194
  C  1.53837081  0.03086608 -0.48850710
  C  2.18830877 -0.60192601  0.78529101
  N  2.44581034  0.21212918  1.82863322
  C  3.02469921 -0.32051621  3.04440140
  O  2.44807782 -1.78147993  0.82047939
  C  2.36018051  1.12483715 -1.19468615
  O  1.91900009  1.67592604 -2.18123505
  N  3.61339834  1.31534734 -0.73849165
  C  4.53329845  2.21350671 -1.39596252
  N  1.45499695 -1.07717347 -1.42832591
  C  0.07522811 -1.39716971 -1.72306019
  C -0.32150774 -0.83292060 -3.10839751
  C -0.18195966 -2.92573851 -1.78616978
  C  0.95192886 -3.78824467 -1.34056342
  O -1.19273989 -3.33330194 -2.30106373
  H -3.30706932 -0.36397370 -3.24664204
  H -2.51965488  0.74459492 -2.10459100
  H -4.27231913  0.47719583 -2.05295515
  H -3.91487817 -1.83970064  1.55518340
  H -3.84242662 -3.49875629  0.95377622
  H -2.93480069 -3.07489955  2.37365487
  H -0.53147475  1.24218803  2.64710027
  H -0.67309975  2.93898753  2.24920001
  H -2.79971659  2.45060965  2.97572418
  H -2.86816318  2.59576938  1.21999692
  H -3.13350197 -0.01137759  2.78470721
  H -4.28698327  0.72867724  1.65866157
  H -1.42771556  0.06039130  1.25832349
  H -2.40658137  0.92393811  0.02969543
  H  2.22272806  1.19479835  1.78983787
  H  2.45083438 -1.18644092  3.37563972
  H  3.01577136  0.44720589  3.81181260
  H  4.05103784 -0.64865456  2.86944612
  H  3.94457776  0.83242110  0.08017209
  H  3.97101461  2.77014342 -2.14374586
  H  4.96872257  2.90352050 -0.67326165
  H  5.33221889  1.65793745 -1.89069227
  H  2.00102166 -0.92894884 -2.26571600
  H -1.17104660 -1.37441024 -3.51143488
  H  0.52059351 -0.96569069 -3.78658249
  H -0.53026064  0.23215467 -3.05364733
  H  1.53605244 -3.28954059 -0.57517178
  H  1.58852030 -3.97918736 -2.20293680
  H  0.56410337 -4.73478085 -0.97885070
