29
opt_min/./Product_3351_opt.xyz
  C -1.68544538 -1.30982945  0.96941320
  C -0.76322056 -0.38463037  0.18418837
  C -1.31741310 -0.11669000 -1.21569239
  C -0.52948204  0.96505155  0.91568731
  C -1.65056392  1.93874876  0.70307107
  O -1.57491391  3.02585320  0.21247464
  C  0.86855018  1.41264466  0.42553658
  C  0.91647599  2.57118700 -0.45623828
  N  1.11378025  3.46418189 -1.14142578
  N  1.43389980  0.26343763 -0.28245808
  C  2.86468549  0.16145254 -0.14489720
  C  0.68243270 -0.91814071  0.10882577
  C  0.90092066 -2.06457194 -0.87859877
  H -1.82516429 -2.24458680  0.43268604
  H -1.26807448 -1.53887763  1.94754849
  H -2.66238732 -0.85426886  1.10891454
  H -1.45682039 -1.04467446 -1.76175518
  H -2.27968612  0.38675933 -1.15426632
  H -0.63216451  0.51357548 -1.77668856
  H -0.48594639  0.77558262  1.99315358
  H -2.61717349  1.54933789  1.08648168
  H  1.48232728  1.68270971  1.30740440
  H  3.32114152  1.07429998 -0.52267802
  H  3.22371984 -0.67527218 -0.73922647
  H  3.17771373  0.00978597  0.90217129
  H  0.98486925 -1.25445547  1.12023023
  H  1.65553380 -2.75313351 -0.51056646
  H  1.22360267 -1.66559874 -1.83533525
  H -0.01559099 -2.62525356 -1.03208460
