59
opt_min/./Product_2351_opt.xyz
  C  0.27432600 -1.36994400 -2.11551400
  C  0.68048832 -0.76007255 -0.77518025
  C -0.29525064  0.27237196 -0.09799791
  C -1.53187560  0.71074224 -0.85019608
  C -2.74390613  0.88007144 -0.18589063
  C -3.87078302  1.33038566 -0.85208662
  C -3.81262447  1.63789196 -2.19875164
  C -2.60596806  1.51235241 -2.86389694
  C -1.47990465  1.06334521 -2.19745565
  C -0.66570466 -0.53362692  1.20591804
  C -1.55448525 -1.67745763  0.75578863
  C -0.72714366 -2.54313326  0.19485739
  C  0.64114146 -1.90150796  0.31088179
  O  0.54093339 -1.18891009  1.52055525
  C  0.60288590  1.51090263  0.25327419
  C  0.30261845  2.67746271 -0.73605251
  N -0.71898569  3.49041815 -0.41815377
  C -1.16394595  4.53606191 -1.30870035
  O  0.98345240  2.84369676 -1.72885282
  C  0.41467906  1.93305613  1.71944855
  O  1.26738413  1.89406269  2.55414552
  O -0.84728263  2.36262194  1.98900108
  C -1.13961017  2.70991529  3.34136018
  N  1.95542805  1.03275260  0.12283271
  C  3.02779883  2.00005048  0.18791069
  C  2.08146373 -0.08393910 -0.78541405
  C  2.59598008  0.32510385 -2.18221358
  C  3.16626266 -1.03181750 -0.24983565
  O  3.86119336 -0.85586940  0.70779975
  O  3.29390556 -2.10324324 -1.06408438
  C  4.30247716 -3.04716135 -0.73049583
  H  0.48269709 -0.72356016 -2.95829782
  H  0.83190559 -2.29313803 -2.25530421
  H -0.78867056 -1.60007920 -2.11944073
  H -2.81856900  0.67872181  0.86998916
  H -4.79851123  1.44551811 -0.30981606
  H -4.69207014  1.98827615 -2.71847411
  H -2.53274007  1.77332984 -3.90918232
  H -0.54905358  1.02445060 -2.73312725
  H -1.01659001  0.04355474  2.05325290
  H -2.61730068 -1.72656513  0.87920121
  H -0.92350018 -3.47922044 -0.28858290
  H  1.48056535 -2.58671802  0.30956212
  H -1.31412030  3.24849594  0.35754778
  H -1.18473783  5.49323812 -0.78637980
  H -2.16058901  4.31282895 -1.69515319
  H -0.45838326  4.58884294 -2.13631344
  H -1.95018208  2.07137701  3.69369828
  H -1.45058497  3.75424234  3.36813683
  H -0.25094375  2.56423278  3.95680760
  H  3.96779738  1.45839992  0.26153374
  H  2.91339699  2.58280063  1.09872495
  H  3.05874962  2.67621568 -0.67257446
  H  1.95815471  1.09778693 -2.60273795
  H  3.59707575  0.73689507 -2.07746491
  H  2.65384938 -0.53636110 -2.83884553
  H  5.19508666 -2.84997597 -1.32720428
  H  3.91182207 -4.03630898 -0.96255493
  H  4.54878608 -2.96721619  0.32992861
