34
opt_min/./Product_3724_opt.xyz
  C -0.78897562 -1.85656801 -1.18527824
  C  6.16953965  4.72875117 -0.72041161
  C  1.93820985  23.68622015 -23.27260176
  C -21.48825567 -6.53465363  13.78865854
  C  6.10961797 -6.86429231 -3.84150175
  C  7.04250019 -28.25717207  7.65570807
  C -10.64190056 -28.42958221 -21.36354020
  C -11.64236162 -22.07651247 -1.60451196
  C  3.34580866 -20.99380292 -10.80602513
  C -28.51257986 -5.60347667  15.88410148
  C  26.12048884  8.27561541  19.19887503
  C -31.25389098  5.87373273  2.59163311
  O  8.35711326  2.69533292 -9.27434376
  N  43.91115607  48.61193237  15.64347094
  N  39.79903808  11.71871611 -9.65148691
  C -17.52389532 -5.62917668  10.34107662
  N -37.98060544 -19.17246932  20.62268234
  H  15.53035671 -20.71125055  4.60764997
  H  16.08647613 -15.73981684 -3.94729910
  H -13.61444320 -6.75568820 -0.28635043
  H -18.43124835 -2.46869318 -11.74993915
  H -11.20871794 -24.12475360 -25.31522629
  H  43.44234203 -37.31820196  28.15879172
  H -25.02688156 -29.94090036  7.33964225
  H  8.44317449  22.90492812  10.55586709
  H -10.96598156 -18.79754930 -12.03040804
  H -2.39628131 -11.48676952 -1.27619329
  H  1.46968528 -9.78163011 -12.09060083
  H  6.69225308 -14.77895565 -4.56750184
  H -21.26204479 -1.51417442 -2.14004346
  H -34.01315627 -4.51712390  39.97718749
  H -12.60357863 -18.75597239 -4.82105511
  H -8.41414626  3.07058440 -8.93164099
  H  36.69673103 -25.28358364  20.82698664
