52
opt_min/./Product_2683_opt.xyz
  C -3.30329780 -2.10124612  1.92694022
  O -2.44044860 -1.18345249  1.25659322
  C -2.98321614 -0.06475078  0.79998783
  O -4.14423217  0.21974274  0.84399124
  C -1.90463909  0.87895564  0.21766678
  F -2.08973426  2.05690253  0.95430317
  C -0.50756590  0.42477794  0.48290696
  C  0.31961265 -0.47534595 -0.06338285
  C  0.02775130 -1.66867004 -0.90147881
 Cl  1.33079221 -1.90205795 -2.11126367
 Cl  0.13356713 -3.07708281  0.24358503
  C -1.28456472 -1.86576638 -1.65354892
  C -1.68546397 -0.81917177 -2.69695152
  C -2.65907865  0.25942651 -2.22764049
  C -2.17267971  1.30312708 -1.23548603
  C  1.70442095 -0.26037237  0.55655005
  C  2.50247623 -1.52307391  1.01697737
  N  3.41411751 -1.97083478  0.13827088
  C  4.24199035 -3.11088410  0.47060593
  O  2.30973320 -2.01736046  2.09719124
  C  2.63004608  0.68780309 -0.26341782
  C  2.23830405  1.08608630 -1.65554063
  O  3.62349317  1.10505094  0.27209716
  O  1.42982287  0.42897039  1.76816460
  C  0.24276716  1.16372722  1.58090289
  C -0.51247409  1.17581024  2.82406187
  N -1.11532305  1.15838637  3.79232932
  C  0.58575328  2.61798556  1.14514831
  O  0.52136424  2.98264101  0.00101300
  O  0.99090520  3.31699288  2.17639857
  C  1.44276927  4.65118929  1.95608589
  H -4.27128256 -2.14617860  1.42478515
  H -3.44564775 -1.77573466  2.95800591
  H -2.80062028 -3.06461085  1.90072881
  H -2.09577355 -2.01916943 -0.94434889
  H -1.13513910 -2.80931890 -2.18534808
  H -0.80437471 -0.38635566 -3.17024224
  H -2.23680651 -1.36860394 -3.46386740
  H -3.55364532 -0.22329797 -1.82869711
  H -2.95704650  0.81650178 -3.11867924
  H -1.28231877  1.81700088 -1.60238835
  H -2.97241363  2.04403421 -1.14905765
  H  3.57594954 -1.50181356 -0.73649489
  H  4.90207930 -2.86941929  1.30579112
  H  3.60760710 -3.94637551  0.76918097
  H  4.83392774 -3.38827987 -0.39615510
  H  2.55213909  0.31897913 -2.36162149
  H  2.74564377  2.01509392 -1.90333293
  H  1.16366904  1.21396392 -1.74444483
  H  0.87653779  5.30235888  2.62028552
  H  2.50294637  4.69222865  2.20553288
  H  1.28372069  4.93414752  0.91474031
