40
opt_min/./Product_1358_opt.xyz
  F  1.23717100 -0.72474100 -2.67156500
  C  1.30321777 -0.35456225 -1.34277417
  C  0.23989683  0.72177972 -0.96962706
 Br -0.80301199  1.28085465 -2.52051616
  C  1.12103035  1.91079844 -0.53800951
  C  1.81682578  1.59473378  0.79241908
  C  2.87408885  0.54451061  0.40130780
  C  2.64025888  0.36276359 -1.10100233
  C  2.28260189  1.78804431 -1.52810111
  C -0.64770753  0.03757867  0.09655141
  C -1.96760449 -0.46745554 -0.54265919
  O -2.97333396  0.19237328 -0.56771771
  O -1.87685575 -1.70011683 -1.02099283
  C -3.04949473 -2.21866585 -1.64173375
  C -1.18152643  0.99687204  1.17647368
  O -1.44804449  0.67180630  2.30300528
  O -1.40616467  2.19741053  0.67394846
  C -2.07426840  3.12677527  1.51916939
  N  0.22291913 -0.99438164  0.63153284
  C -0.33885768 -1.97618667  1.53381671
  C  0.97449768 -1.55912572 -0.47151807
  H  0.58916895  2.85851460 -0.54764907
  H  2.27998554  2.49964411  1.18534325
  H  1.13052752  1.21300933  1.54582080
  H  3.88300600  0.92038042  0.56859248
  H  2.75696084 -0.37626434  0.96571877
  H  3.45636192 -0.11676023 -1.63719670
  H  3.07897588  2.50112563 -1.32929229
  H  1.97600505  1.85853504 -2.57058400
  H -2.72652954 -3.06379720 -2.24350021
  H -3.76090258 -2.53729956 -0.87818215
  H -3.50852354 -1.44886920 -2.26404878
  H -1.41939496  3.42358070  2.34101867
  H -2.32144676  3.97851292  0.89206406
  H -2.97951181  2.67423523  1.92647301
  H -0.90308383 -1.46499030  2.30790364
  H  0.49038684 -2.51047962  1.99629294
  H -0.98344414 -2.70121927  1.02172295
  H  0.38685435 -2.27519859 -1.06606881
  H  1.86312685 -2.07042240 -0.09735677
