64
opt_min/./Product_3117_opt.xyz
  N  0.49410891 -1.27769732 -3.85007283
  C -0.08085468 -1.70163885 -2.95816157
  C -0.83877503 -2.40020658 -1.94338461
 Br -2.40225172 -3.05938800 -3.10765984
  C -1.37814897 -1.52129394 -0.86058685
  C -0.90031579 -0.38721134 -0.30935362
  C  0.53745499  0.10239509 -0.25463308
  C  0.70845505  1.20529331  0.80558993
  C  1.11772589  2.48638105  0.46390186
  C  1.36893542  3.43824127  1.43660338
  C  1.23939968  3.12411266  2.77548282
  C  0.82636469  1.85305275  3.13264661
  C  0.55161972  0.90974851  2.15925754
  C  1.03934314  0.63841221 -1.58698147
  C  0.17988930  1.32587027 -2.43494663
  C  0.63633573  1.87315041 -3.62038851
  C  1.96667302  1.75630855 -3.97730760
  C  2.83790581  1.09942473 -3.12760631
  C  2.38294059  0.55537863 -1.94033245
  C  1.44798297 -1.04402904  0.29490438
  C  1.80583777 -2.25361300 -0.57614390
  C  0.86610387 -3.45105085 -0.37002257
  C -0.08947840 -3.67848084 -1.53600445
  C -2.09781240  0.25586108  0.40612353
  C -2.01339519  1.38848339  1.44231238
  N -2.37221726  1.02205254  2.68569338
  C -2.48248121  2.00621789  3.73892715
  O -1.81868784  2.53577906  1.10697106
  C -3.02905009  0.87579665 -0.68464209
  O -2.84103313  0.83240115 -1.86816111
  O -4.12876900  1.33648950 -0.10772116
  C -5.13170904  1.84222907 -0.98624524
  N -2.79935483 -0.92454336  0.90174196
  C -2.73459761 -1.86885337 -0.22203138
  C -3.93803422 -1.71540764 -1.03304089
  N -4.98009285 -1.49003445 -1.44784866
  C -2.68402965 -3.23266590  0.28991687
  N -2.58587553 -4.28675831  0.71646363
  H  1.23382707  2.75709026 -0.57283279
  H  1.67484964  4.42993424  1.13997241
  H  1.45135623  3.86244905  3.53469937
  H  0.72157436  1.58708315  4.17519096
  H  0.21281793 -0.06720054  2.47204082
  H -0.86136767  1.42663244 -2.18502302
  H -0.05751660  2.39153551 -4.26449189
  H  2.32258992  2.17698715 -4.90562201
  H  3.88320045  1.00841527 -3.38431956
  H  3.09563833  0.07181944 -1.29200045
  H  2.37398628 -0.55536509  0.60294686
  H  0.98751624 -1.42880487  1.20422332
  H  1.84799226 -1.98149137 -1.62938977
  H  2.81070032 -2.55993959 -0.27921490
  H  1.44955949 -4.36698820 -0.26276959
  H  0.29458344 -3.32471585  0.55188259
  H  0.48434825 -4.00495710 -2.40864423
  H -0.79811997 -4.46653925 -1.27943235
  H -2.43558681  0.04439816  2.91773163
  H -3.32577331  2.66880728  3.53750162
  H -1.57590195  2.61274780  3.77464391
  H -2.63143279  1.50370427  4.68990688
  H -5.32732886  1.11810570 -1.77953054
  H -4.79693772  2.78350641 -1.42368577
  H -6.01646930  1.99631916 -0.37471238
  H -3.75773075 -0.71980196  1.17661390
