54
opt_min/./Product_2304_opt.xyz
  C  4.55595529 -0.64419701 -2.78364588
  O  4.09172055 -0.27450412 -1.49404129
  C  2.93931252  0.38638005 -1.45130269
  O  2.33747463  0.79096764 -2.41595253
  C  2.53279599  0.64025403 -0.05434669
  C  1.90264008  1.73034924  0.42536312
  C  1.42503500  2.80780013 -0.32583981
  N  1.03896523  3.66991048 -0.97729220
  C  1.91454748  1.55500959  1.93735456
  C  0.89884160  0.46358722  2.36482306
  C  1.55456503 -0.79847417  1.75618941
  C  2.86545815 -0.18427571  1.16224811
  O  3.12684297  0.83592856  2.12258628
  C  0.46620196 -1.49397108  0.89780380
  C  0.75755822 -1.47029582 -0.61616088
  N -0.28163330 -1.18813909 -1.41240702
  C -0.17714113 -1.16211886 -2.85468242
  O  1.85278656 -1.78784449 -1.05434911
  C  0.40751354 -2.97518894  1.27251878
  C  1.48011471 -3.80886965  0.98406267
  C  1.44225312 -5.14642684  1.33571715
  C  0.33680282 -5.66650399  1.98675876
  C -0.72961395 -4.83719285  2.28718065
  C -0.69566753 -3.50013427  1.93268188
  N -0.74654943 -0.82800945  1.32536026
  C -0.56290338  0.47512662  1.90800101
  C -1.52127407  0.61587352  3.10721550
  C -0.90838809  1.66734067  1.00481159
  O -0.81649366  2.81095253  1.36782080
  O -1.44109841  1.28110365 -0.15502645
  C -1.87971650  2.30738484 -1.04370754
  H  3.98046634 -1.50050956 -3.14097262
  H  4.43860818  0.18672436 -3.48299374
  H  5.60373297 -0.90957723 -2.66861363
  H  1.89148419  2.47332691  2.51769326
  H  0.93882581  0.42485361  3.45566032
  H  1.86777483 -1.48556730  2.54461649
  H  3.69638823 -0.87337844  1.06049310
  H -1.19762475 -1.04711392 -1.02349873
  H -0.32044741 -2.16170556 -3.27458921
  H -0.93039777 -0.48793644 -3.25359503
  H  0.81012362 -0.79962198 -3.12910265
  H  2.34060864 -3.41009519  0.46908685
  H  2.28285562 -5.78293459  1.10224687
  H  0.30765236 -6.71042153  2.26110933
  H -1.59260399 -5.23090272  2.80344820
  H -1.52232702 -2.85480715  2.18430333
  H -1.57267096 -0.93712804  0.75973387
  H -1.41612717  1.60075558  3.55379957
  H -1.30033516 -0.14589590  3.85004752
  H -2.54879689  0.48536560  2.77425287
  H -1.04311440  2.64420596 -1.65778045
  H -2.26210360  3.15346854 -0.47140724
  H -2.66071339  1.86977424 -1.66154300
