26
opt_min/./Product_303_opt.xyz
  C -2.48826206  0.78212483 -1.42361297
  C -1.22900705  0.23054116 -0.88662162
  C -0.66263089  0.25326620  0.32519090
  C -1.10509895  0.87604378  1.59979098
  F -1.20469437 -0.00083850  2.60004006
  F -2.29395268  1.48151081  1.48298118
  F -0.23514011  1.82579712  2.00943679
  C  0.57444855 -0.65589856  0.20547630
  C  1.70256455 -0.55771772  1.26300140
  N  2.35736445  0.60740299  1.15342435
  C  3.43495934  0.94184543  2.06305530
  O  1.92407008 -1.43180228  2.05543723
  O  0.02774851 -1.99617808  0.11001325
  C -0.56237642 -2.06751519 -1.07385352
  O -1.18352430 -2.95654691 -1.54564794
  C -0.26889343 -0.63712473 -1.71230625
  C -0.29901905 -0.51988663 -3.13777992
  N -0.34744329 -0.40191975 -4.27246756
  O  0.99059424 -0.39411147 -1.09936350
  H -2.49212905  0.74994079 -2.51077819
  H -2.62682759  1.80821382 -1.08480463
  H -3.33273064  0.19989625 -1.05086161
  H  2.12642549  1.26037974  0.42135528
  H  3.03525906  1.39950659  2.97036424
  H  4.12023154  1.63016584  1.57721237
  H  3.95738087  0.02430325  2.33482287
