51
opt_min/./Product_1655_opt.xyz
  C -2.88496443  0.98425997 -1.53730701
  C -2.53154142  0.57260116 -0.09474204
  C -2.78769371  1.68138353  0.81940603
  N -3.04836312  2.45112024  1.62332880
  C -0.97893309  0.38518523 -0.01441805
  C -0.05959093 -0.57302039  0.25009520
  C -0.25977187 -2.05860263  0.44777092
  C -1.75203364 -2.05985826  0.19663660
  C -2.99193866 -2.92111175  0.25406163
  C -4.00449960 -1.81353038 -0.15078298
  C -3.69459432 -0.40080310  0.42759016
  C  1.32857666  0.01710343  0.28491593
  C  2.27231875 -0.64389371 -0.73354208
  N  2.76462622  0.18329871 -1.65216353
  C  3.62006710 -0.24541004 -2.73034239
  O  2.53818822 -1.83640980 -0.66044241
  C  1.87111530 -0.13392832  1.74276229
  O  1.70817517  0.76140501  2.54079842
  N  2.45344404 -1.30916751  1.99343376
  C  3.00416785 -1.62953197  3.28975594
  O  1.16000165  1.39941712  0.03172123
  C -0.16939119  1.63999246 -0.41401658
  C -0.09570290  1.67425469 -1.87586518
  N  0.11430375  1.64717269 -3.00009632
  C -0.62998758  3.02552299  0.11101673
  C -0.04546960  3.40344573  1.42724941
  O -1.33318561  3.72519295 -0.56978336
  H -2.44987788  1.94659870 -1.79669772
  H -2.52451516  0.23527618 -2.24013125
  H -3.96321568  1.07401851 -1.65059550
  H  0.01821032 -2.36492389  1.45738260
  H  0.35450277 -2.61006320 -0.26674915
  H -2.00643861 -1.33731967  0.95996739
  H -1.82085337 -1.62253696 -0.80192457
  H -3.19865814 -3.30272761  1.25397085
  H -3.02183136 -3.74920543 -0.45388584
  H -4.03627183 -1.74868769 -1.23924871
  H -5.00800862 -2.07146228  0.19217519
  H -4.59612123  0.19358136  0.24173947
  H -3.62017813 -0.48586026  1.51694324
  H  2.48943861  1.15533517 -1.61421074
  H  3.82984613 -1.30473340 -2.59098522
  H  3.12083303 -0.09445568 -3.68887235
  H  4.55315015  0.31843387 -2.71677245
  H  2.58516231 -1.96405637  1.22820371
  H  3.98404434 -2.08901457  3.17099698
  H  3.09355254 -0.70757299  3.86297704
  H  2.34986464 -2.31764059  3.83188580
  H  0.18773975  2.53488930  2.03750217
  H  0.89422122  3.92376620  1.23008542
  H -0.71857008  4.08386900  1.94150198
