38
opt_min/./Product_4405_opt.xyz
  C -1.73421500  0.01743100  0.40915500
  C -0.59172488  0.10739322 -0.61116700
  C  0.52320612 -0.91561179 -0.33613132
  N  0.07114936 -2.21471255  0.06563945
  C  0.91765398 -3.33535011 -0.25806891
  C -1.20166385 -2.39764251  0.48505576
  C -2.09919834 -1.41253960  0.68568583
  C -3.41102585 -1.79306342  1.22291441
  N -4.24773946 -0.77548527  1.56722493
  O -3.74853159 -2.95458299  1.39049113
  C  1.37517756 -0.17393961  0.74800131
  C  2.86812134 -0.29554151  0.45164580
  O  3.48464346  0.87825871  0.47367230
  C  4.88668756  0.86531604  0.23444218
  O  3.41887029 -1.34604728  0.23383647
  O  0.95264399  1.17147611  0.76936022
  C  0.18598765  1.41314682 -0.40465958
  C -0.66121398  2.67331717 -0.25608285
  C -0.04003953  3.73944321  0.59503580
  O -1.71354230  2.79358017 -0.82754219
  H -1.42195496  0.51567933  1.33407288
  H -2.58046837  0.57089804 -0.00240104
  H -0.98080368  0.00675021 -1.62375121
  H  1.13768303 -1.03522630 -1.23681786
  H  0.51142254 -4.23361081  0.19870674
  H  0.98002113 -3.49078925 -1.34035078
  H  1.92388521 -3.16298196  0.12439148
  H -1.49939050 -3.41464604  0.69186919
  H -5.14948108 -1.01713837  1.93806546
  H -4.01268653  0.19188164  1.45604923
  H  1.19957469 -0.62255447  1.73429580
  H  5.11752488  0.22287744 -0.61718826
  H  5.41197783  0.48932546  1.11434198
  H  5.17509553  1.89337942  0.03362038
  H  0.86590775  1.59055446 -1.25786374
  H -0.77447643  4.49796811  0.84903994
  H  0.38795656  3.29012241  1.48526308
  H  0.76421555  4.20593040  0.03015050
