65
opt_min/./Product_5934_opt.xyz
  C -3.52059200  2.23823700  0.94496500
  C -2.54213567  1.69315559 -0.05257787
  C -2.56492870  2.39262439 -1.37852850
  C -1.71564968  0.70397885  0.26666879
  C -0.67062651  0.12176913 -0.64699443
  C  0.58581178  1.01032267 -0.56853128
  C  1.32543039  1.31388689 -1.84721044
  C  2.12817178  2.58025187 -1.77056853
  C  1.24208686  0.63321703 -2.97788016
  C  1.41598924  0.33049431  0.57019295
  C  1.13596629  1.15404286  1.85249193
  C  0.96435867  0.40471602  3.14182773
  O  1.03929669  2.35577142  1.81039442
  C  2.91192207  0.33198006  0.29431921
  C  3.81562827  0.99823234  1.11513213
  C  5.17164598  0.97279578  0.84097503
  C  5.65045257  0.27222486 -0.25150509
  C  4.76247921 -0.40542633 -1.06682177
  C  3.40599904 -0.37755886 -0.79830507
  N  0.88150677 -1.02400091  0.72724351
  C  1.79653378 -2.09182687  1.07133225
  C -0.21847483 -1.28450803 -0.18039382
  C  0.13452600 -2.22226930 -1.34610041
  O -0.68134622 -2.04066012 -2.40054101
  C -0.51783533 -2.95677176 -3.47586177
  O  0.96448122 -3.09207861 -1.33134428
  C -1.37581394 -2.02826278  0.49851383
  C -1.31966293 -2.39162698  1.83697661
  C -2.38281306 -3.04303175  2.43867355
  C -3.52372450 -3.33527017  1.71435219
  C -3.59654528 -2.96121194  0.38466870
  C -2.53322817 -2.31349167 -0.21747494
  H -4.52478236  2.26271552  0.52260986
  H -3.53362049  1.63644737  1.85016496
  H -3.25063772  3.25598563  1.21217273
  H -1.95689232  1.89520915 -2.12632406
  H -3.58400014  2.47401497 -1.74635844
  H -2.17864205  3.40609873 -1.25395771
  H -1.74527653  0.30423640  1.26774137
  H -1.05422506  0.08101791 -1.66353234
  H  0.28313735  1.99044970 -0.19135254
  H  2.66619504  2.64346895 -0.82856376
  H  2.83790579  2.64511326 -2.59047856
  H  1.45607888  3.43707087 -1.82387350
  H  0.64131214 -0.24861060 -3.09702046
  H  1.78543580  0.94858218 -3.85353559
  H  1.65382774 -0.42509684  3.23782316
  H  1.08005524  1.09389721  3.97486881
  H -0.05286076  0.01683119  3.15861879
  H  3.46493694  1.55296584  1.97221146
  H  5.85626095  1.50169627  1.48795033
  H  6.70943539  0.25085892 -0.46266217
  H  5.12463983 -0.96089420 -1.91936386
  H  2.72804429 -0.90478571 -1.44945672
  H  2.38749665 -1.78848566  1.93671363
  H  1.22138121 -2.98003426  1.32480745
  H  2.49792254 -2.36920020  0.27970977
  H -1.14767399 -2.59357484 -4.28369330
  H  0.52744978 -2.99628133 -3.78735990
  H -0.82980925 -3.95542553 -3.16372924
  H -0.44783281 -2.14905584  2.42076804
  H -2.31779776 -3.31602341  3.48214113
  H -4.35361810 -3.84269617  2.18391336
  H -4.48941361 -3.17034052 -0.18716936
  H -2.61107623 -2.01841462 -1.25190317
