64
opt_min/./Product_2809_opt.xyz
  C  3.42443272  0.02066772  3.28877162
  O  2.83059609 -0.22017069  2.02073468
  C  3.46381521  0.29085362  0.96495058
  O  4.49717586  0.90127758  1.04606945
  C  2.71337198 -0.08903426 -0.32905125
  C  3.27480760  0.64253621 -1.56446471
  C  4.75249670  0.61775869 -1.82264022
  O  2.52566709  1.20422688 -2.32404667
  C  1.27634674  0.47418661 -0.08937137
  C -0.03241653  0.03780944 -0.00917283
  C -0.61508638 -1.25815119 -0.57493501
  C -1.11379119 -2.23843756  0.47295556
  O -1.84518461 -3.16311438  0.24419823
  O -0.58129848 -1.98476895  1.66883553
  C -0.91183760 -2.88914030  2.71358498
  C -1.71260011 -1.07708781 -1.62565364
  O -2.70979619 -0.42332437 -1.49671345
  O -1.41030019 -1.77618548 -2.71416607
  C -2.35784144 -1.75346796 -3.77604856
  C  0.70433285 -1.78313461 -1.14216553
  C  1.35495512 -3.06734318 -1.59287636
  C  2.81442533 -2.54249820 -1.61991379
  C  3.17974593 -1.61175510 -0.42856073
  N -0.83815546  0.97750558  0.56962255
  C -2.22916211  1.15510683  0.62418455
  C -2.81597884  2.21663874 -0.06169020
  C -4.17623368  2.42960862  0.03605679
  C -4.95931984  1.59459163  0.81598793
  C -4.37490799  0.54589362  1.50374440
  C -3.01153767  0.32963865  1.42087544
  N -0.01210022  2.07192950  0.96954971
  C  1.17014731  2.00589199  0.10920422
  C  2.26600992  2.86218969  0.73051852
  C  0.79168762  2.59516298 -1.18861771
  N  0.24112496  3.08028566 -2.06906996
  H  4.41236108 -0.44220706  3.34009548
  H  2.75654365 -0.41977246  4.02430259
  H  3.53107358  1.09263319  3.46388850
  H  5.18236563 -0.37600469 -1.79410230
  H  4.93853177  1.06884156 -2.79438776
  H  5.23497735  1.21988306 -1.05234043
  H -1.98603698 -3.08429478  2.72105052
  H -0.59780087 -2.41245811  3.63780333
  H -0.38400639 -3.83460810  2.57363009
  H -3.12184370 -2.51356991 -3.60198200
  H -2.83392038 -0.77316878 -3.83596815
  H -1.80892323 -1.97281469 -4.68913336
  H  0.98883726 -1.04461085 -1.89358184
  H  1.25099571 -1.64175331 -0.22830285
  H  1.03998999 -3.43321551 -2.56618163
  H  1.23936055 -3.86659742 -0.85889999
  H  2.97065538 -2.00077910 -2.55416860
  H  3.52046324 -3.37479691 -1.59741740
  H  4.27139827 -1.54138495 -0.42743727
  H  2.92023088 -2.11917849  0.50355644
  H -2.20834942  2.84764481 -0.69576497
  H -4.63002962  3.24299279 -0.51014960
  H -6.02414804  1.75983668  0.88230466
  H -4.98117007 -0.10605904  2.11536081
  H -2.55456927 -0.47932004  1.96618442
  H -0.51156678  2.95555116  0.88640138
  H  1.90270880  3.88662710  0.79013485
  H  3.16541020  2.84960015  0.12058939
  H  2.50170786  2.52808663  1.73576181
