31
opt_min/./Product_145_opt.xyz
  C -1.10799900  2.65018700  0.46843200
  O -0.74200334  1.60400329 -0.42933651
  C -0.77827582  0.27776711  0.03707802
  O -1.95555553 -0.03890783  0.69574549
  C -3.12794968  0.03597576 -0.10273094
  C  0.43916265 -0.06115583  0.96347647
  F  0.13269204 -1.11008853  1.77797348
  F  0.78694174  0.93182479  1.80767378
  N  1.47099977 -0.39195525  0.05462391
  C  2.70846627 -0.94349447  0.41518947
  O  3.07943047 -0.98779422  1.55910899
  N  3.41498983 -1.36081235 -0.65719394
  C  4.71873368 -1.95910743 -0.52380546
  N  1.03722200 -0.35108591 -1.30486218
  C -0.40351062 -0.58307551 -1.20939482
  C -0.67954832 -2.07308982 -1.00482795
  H -1.10230354  3.54603107 -0.14493027
  H -2.10681111  2.48516210  0.87597767
  H -0.39398084  2.75999085  1.28407328
  H -3.95865112 -0.00506853  0.59634170
  H -3.18706019 -0.80339750 -0.79969342
  H -3.16062274  0.97135935 -0.66659592
  H  2.97114295 -1.32342840 -1.56003878
  H  4.75629423 -2.91451752 -1.04542976
  H  4.90636641 -2.11462402  0.53604515
  H  5.49102397 -1.30037975 -0.92804021
  H  1.19128313  0.59740900 -1.66203528
  H -0.89182445 -0.18697527 -2.09885776
  H -1.11087938 -2.51119600 -1.89927978
  H  0.25350971 -2.58306815 -0.78267738
  H -1.35151836 -2.22891050 -0.16504436
