61
opt_min/./Product_2581_opt.xyz
  C -2.10182500  2.98672500 -3.23816100
  N -1.88754635  2.39312554 -1.93982364
  C -2.01151452  1.06805602 -1.72631313
  O -2.29218411  0.27802844 -2.59954623
  C -1.69725802  0.61095046 -0.29106183
  C -2.09880739  1.57438230  0.79143766
  C -3.27333651  2.31352399  0.66805096
  C -3.68327904  3.15617354  1.68509452
  C -2.93657140  3.26154217  2.84676966
  C -1.80082559  2.48691064  3.00019255
  C -1.39515240  1.63745185  1.98697943
  C -0.22804316  0.18619046 -0.29496216
  C  0.27655899 -1.04893774 -0.09692318
  C -0.23162315 -2.44513670  0.35726376
  F -0.11736494 -2.43882243  1.73779927
  F  0.74432201 -3.34699011 -0.01150382
  C -1.54551866 -3.23730328 -0.00231034
  C -2.96880286 -2.88496946  0.52099288
  C -3.56471666 -1.52835268  0.05735412
  C -2.25874054 -0.78430351 -0.03216296
  C  1.78685738 -0.97207020 -0.25574185
  C  2.35244454 -1.90427089 -1.35192051
  N  3.30080735 -2.76174326 -0.92557117
  C  3.87557613 -3.73586432 -1.82542263
  O  2.01107611 -1.80326527 -2.50657633
  O  2.06687440  0.34557806 -0.67404226
  C  0.89449551  1.13922097 -0.65270198
  C  1.05014795  2.30180078  0.30398215
  C  1.63211256  2.10129341  1.54977984
  C  1.76597144  3.15036257  2.44023870
  C  1.31811702  4.41460029  2.09764315
  C  0.76824387  4.63015847  0.84637677
  C  0.64623042  3.58205141 -0.04820695
  H -2.02300801  2.19764921 -3.98340104
  H -3.09550956  3.43712547 -3.30465981
  H -1.35013005  3.75120511 -3.43193434
  H -1.67386181  3.00036217 -1.16427579
  H -3.87329970  2.22123697 -0.22561501
  H -4.59259204  3.72737029  1.57284609
  H -3.25055098  3.92701035  3.63578231
  H -1.22840916  2.53484724  3.91430147
  H -0.52980956  1.00906622  2.13115838
  H -1.32291338 -4.22134008  0.42597023
  H -1.54494899 -3.35527531 -1.08684413
  H -3.61336481 -3.71530574  0.22440414
  H -2.92605994 -2.88187662  1.61297682
  H -4.06020989 -1.60116632 -0.90843798
  H -4.26461809 -1.14664068  0.79950307
  H -1.80380977 -1.01081951  0.93423633
  H -1.79476058 -1.30600054 -0.86236926
  H  2.27991547 -1.17511294  0.71170864
  H  3.46052883 -2.88888222  0.05980136
  H  3.19385630 -4.57503461 -1.98647099
  H  4.05426478 -3.25213174 -2.78463476
  H  4.81261036 -4.09986281 -1.41289648
  H  0.72935749  1.53180134 -1.66885103
  H  1.98838498  1.11783686  1.81768890
  H  2.21846327  2.97997033  3.40591556
  H  1.41125020  5.23119280  2.79675971
  H  0.44238794  5.61967907  0.56038703
  H  0.25741586  3.76608951 -1.03899706
