45
opt_min/./Product_5088_opt.xyz
  C  4.53274500  0.90870300  0.30567600
  C  4.17594190 -0.51718991  0.60693192
  C  5.32964603 -1.46156154  0.71868460
  C  2.91484443 -0.93379378  0.76693045
  C  1.74296917 -0.09519225  0.67843107
  C  0.50365592 -0.56223678  0.81875620
  C -0.76192869  0.24050720  0.77103671
  C -1.24590592  0.54398862  2.18876501
  C -0.72609490  1.52800292 -0.08079094
  C -1.83906607  1.24603748 -1.12049512
  C -2.44373480  2.46356955 -1.80334042
  O -1.75815629  3.35548441 -2.24908099
  N -3.78540022  2.42775823 -1.85361153
  C -4.54584964  3.49021917 -2.47056273
  C -1.16740903  0.18684730 -2.01373270
  O -0.66760246  0.28129001 -3.08773814
  O -1.22737734 -0.94144779 -1.27843941
  C -1.85496831 -0.55376830 -0.02847161
  C -2.51823063 -1.75336965  0.66120725
  N -2.25147293 -2.92402574  0.06428741
  C -2.80279256 -4.16808768  0.54485484
  O -3.20175133 -1.62089059  1.65089840
  O -2.76884189  0.42334574 -0.41926535
  H  5.61030226  1.02099068  0.20945983
  H  4.18571179  1.57276640  1.09818610
  H  4.07190957  1.23522125 -0.62836153
  H  5.99806994 -1.13639424  1.51875233
  H  4.99678771 -2.47475067  0.93474199
  H  5.90487228 -1.46637355 -0.20815809
  H  2.72673689 -1.97979563  0.97572610
  H  1.91556772  0.95391996  0.49105467
  H  0.34512511 -1.61239796  1.03118300
  H -0.53488857  1.20810646  2.67928653
  H -2.22534237  1.01863454  2.15784775
  H -1.33505172 -0.37091978  2.77134476
  H  0.22557192  1.69490324 -0.58195325
  H -0.97556601  2.41085097  0.50789784
  H -4.26713555  1.65195858 -1.42681719
  H -4.16161579  3.68003929 -3.47442004
  H -4.45240642  4.41169321 -1.88928456
  H -5.59176337  3.20016713 -2.52935272
  H -1.69825254 -2.92834409 -0.78009235
  H -3.70589674 -4.43695040 -0.01044222
  H -3.06273545 -4.04070862  1.59546927
  H -2.06424288 -4.96202072  0.43834770
