41
opt_min/./Product_4894_opt.xyz
  C -0.53264800  0.65292700  0.95867700
  O  0.14530074  1.36578884  1.64899016
  C -2.01366460  0.78735320  0.87691376
  O -2.39428192  2.06955407  1.03675063
  C -3.75005854  2.39709283  1.26936349
  C -2.77813558 -0.33369463  0.75247429
  O -4.14080468 -0.25132662  0.70259735
  C -4.89364985 -1.43036639  0.49471221
  C -2.08742576 -1.63597369  0.85273502
  O -2.58138741 -2.59639669  1.40480918
  C -0.73838526 -1.73866378  0.15872223
  C -1.01809567 -2.49203205 -1.15826317
  C  0.03646500 -0.40666542  0.01440718
  C -0.01905104  0.20674620 -1.39014048
  N  1.39668025 -0.78052479  0.45217049
  C  2.43191018  0.10111006  0.77929448
  C  3.15769768 -0.11826959  1.94989553
  C  4.22889234  0.68983257  2.27359743
  C  4.59034916  1.74070516  1.44847515
  C  3.87879216  1.95768630  0.28119427
  C  2.81741885  1.14180694 -0.06275731
  N  1.38364058 -1.96973097  1.08064709
  C  0.26129620 -2.54608247  0.96207675
  H -4.14593078  1.87523780  2.14168020
  H -4.36883425  2.16711697  0.39923151
  H -3.75431215  3.47138710  1.45187512
  H -5.91396986 -1.08657785  0.33481616
  H -4.54808382 -1.97730315 -0.38655589
  H -4.85596476 -2.09247970  1.36160005
  H -0.09570611 -2.63474079 -1.71486466
  H -1.43030304 -3.46983101 -0.91737143
  H -1.73357468 -1.96017333 -1.78229797
  H -1.03575991  0.17048600 -1.77215585
  H  0.28103293  1.25098161 -1.35740193
  H  0.64163603 -0.33105409 -2.06574734
  H  2.86712747 -0.92969077  2.59766603
  H  4.77749932  0.50326353  3.18508922
  H  5.41981085  2.38132428  1.70775729
  H  4.15499929  2.76798232 -0.37750073
  H  2.30751202  1.31955134 -0.99374221
  H  0.06596085 -3.52174359  1.35760605
