51
opt_min/./Product_2511_opt.xyz
  C -4.17000764 -1.21151257  1.10810203
  C -2.68802986 -1.34418843  0.93957849
  O -1.99344202 -2.01173300  1.65772105
  C -2.07882072 -0.45482453 -0.14795462
 Br -2.87312023 -0.95171521 -1.88315238
  C -0.56264031 -0.50709963 -0.16113077
  C  0.29043231  0.45112448  0.28346431
  C  0.22297983  1.96191927  0.68189920
  F  1.38592658  2.49383695  0.18696032
  F  0.35346437  1.99473620  2.04578515
  C -0.79539329  3.11863713  0.31264476
  C -2.26329298  3.20770486  0.80972069
  C -3.23791424  2.13201365  0.25602616
  C -2.23297430  1.01220248  0.18726393
  C  1.65280669 -0.19057363  0.50657221
  C  2.84811047  0.50078994 -0.19736922
  O  2.78248409  0.20479791 -1.50066829
  C  3.80215168  0.72990588 -2.34213164
  O  3.70867632  1.15112914  0.31230589
  C  1.90117960 -0.27910612  2.05719174
  C  1.00991295 -1.24982625  2.78037773
  O  2.77252562  0.33075767  2.60178003
  N  1.51392258 -1.50073528 -0.06730386
  C  2.41115604 -2.57388463  0.26290942
  C  0.19779295 -1.73963894 -0.60870601
  C  0.27402951 -1.79412234 -2.16763067
  C -0.37720304 -3.01152841 -0.19337047
  N -0.78179564 -4.05930439  0.02028039
  H -4.34663879 -0.45510747  1.87311840
  H -4.57418390 -2.15126116  1.47743632
  H -4.67632386 -0.91524409  0.19569461
  H -0.28411361  3.97946082  0.75685931
  H -0.74336572  3.24985380 -0.76992134
  H -2.61562817  4.20968322  0.56363061
  H -2.24843944  3.12279615  1.89838070
  H -3.62930424  2.39264442 -0.72622756
  H -4.06478057  1.98982240  0.94832184
  H -1.78042423  1.03190739  1.18110698
  H -1.57126977  1.41539207 -0.57262545
  H  4.29672157 -0.10535351 -2.83784677
  H  3.33651057  1.37943444 -3.08327827
  H  4.51970967  1.29623605 -1.74587825
  H  0.14233396 -1.56502408  2.21124439
  H  1.59573184 -2.12999418  3.03929060
  H  0.69262722 -0.79094222  3.71368878
  H  3.24923184 -2.17013922  0.82725378
  H  2.80225700 -3.03562806 -0.64887998
  H  1.92788759 -3.35461614  0.86050536
  H -0.03740373 -0.84969529 -2.60320740
  H  1.30934904 -1.96682146 -2.44469854
  H -0.34270215 -2.59210134 -2.57384226
