40
opt_min/./Product_1666_opt.xyz
  C  0.30954135  3.08671449 -0.56806144
  C -0.70336195  2.07302432 -0.13385046
  O -1.83860299  2.35967371  0.11842056
  C -0.18947019  0.62104013  0.12227427
  C  0.10840590  0.70249140  1.64400859
  F -1.01431517  0.82367062  2.36899575
  F  0.81815344  1.78298153  1.96887252
  F  0.74875507 -0.36715403  2.11392609
  C -1.21741978 -0.52945354 -0.19516287
  C -2.09912441 -0.94742263  1.04441470
  C -3.34624489 -0.16054987  1.29765687
  O -1.80104951 -1.89185283  1.71504498
  C -2.18670472 -0.18278509 -1.35546935
  F -2.98057963 -1.23468321 -1.60891085
  F -3.03744427  0.83162699 -1.24108517
  F -1.48609004  0.09062467 -2.47842317
  C -0.31568146 -1.70246318 -0.77900455
  C  0.12111181 -2.82314483  0.18113390
  C -0.86418867 -2.42075934 -1.92698762
  N -1.14636769 -3.02177081 -2.85596802
  N  0.87390497 -1.04044269 -1.28924676
  C  1.07114243  0.27115111 -0.73396628
  C  2.47562936  0.29303503 -0.07108253
  O  3.26440103 -0.51430604 -0.76135159
  C  4.62437447 -0.62869744 -0.35083050
  O  2.82361956  0.99114138  0.83855314
  H  0.28897764  3.16875631 -1.65519078
  H -0.00287589  4.05032442 -0.16848491
  H  1.31420643  2.85860528 -0.22732914
  H -3.31205104  0.86487912  0.95063797
  H -3.53332155 -0.17908212  2.36959693
  H -4.17349596 -0.68200292  0.81277555
  H  0.52609423 -2.42119199  1.10248368
  H -0.69898934 -3.49661788  0.40723340
  H  0.90675373 -3.37719735 -0.33033628
  H  0.95073447 -1.07916789 -2.29606726
  H  1.17243940  1.01231621 -1.53952182
  H  5.24981385 -0.46472766 -1.22732475
  H  4.78335209 -1.63561787  0.03505095
  H  4.84916015  0.10772517  0.42236839
