64
opt_min/./Product_2993_opt.xyz
  C -2.83194305  3.11893694 -1.18602602
  C -2.06000285  2.33748225 -0.16184657
  O -1.45064790  2.87519957  0.72460130
  C -2.16393727  0.78615521 -0.18689347
  C -2.90128528  0.32652544 -1.46109515
  C -4.40847473  0.38739867 -1.45549838
  O -2.29233558 -0.04094756 -2.43302656
  C -0.77413076  0.18519139 -0.28404480
  C -0.38718472 -1.09918491 -0.26335865
  C -1.13926452 -2.25348734  0.35757608
 Cl -2.84505221 -2.32567952 -0.21646685
  C -0.67278496 -3.66555455 -0.04500441
  F  0.61056742 -3.92814232  0.25066741
  F -1.37850933 -4.60137174  0.61374069
  F -0.83883464 -3.94592886 -1.33869592
  C -1.04927939 -2.17676205  1.89917173
  C -2.08618235 -1.34029248  2.64531844
  C -2.12584078  0.15781145  2.33826798
  C -2.97127008  0.49766915  1.10821670
  C  1.01734093 -1.25829210 -0.84063268
  C  2.00873429 -1.81377258  0.19428393
  O  3.02278112 -2.44169783 -0.37420709
  C  4.03397695 -2.95031705  0.48726387
  O  1.91339640 -1.62103153  1.38208406
  C  1.03833649 -2.05729064 -2.15551471
  N  1.38527236  0.10946859 -1.18338399
  C  2.76692576  0.51050647 -1.18812644
  C  0.38478039  1.06631713 -0.73956394
  C  0.00449169  1.81976760 -1.92760431
  N -0.24941351  2.39050384 -2.88474047
  C  0.91931489  1.99470014  0.35005106
  C  1.21190635  3.32585321  0.07782971
  C  1.75891215  4.13319315  1.05835719
  C  2.03314385  3.61948081  2.31352566
  C  1.76688560  2.28843229  2.58053946
  C  1.21774757  1.47758399  1.60379137
  H -2.71569657  2.69815146 -2.18033538
  H -2.47770540  4.14732447 -1.17828133
  H -3.88872266  3.11983128 -0.92623665
  H -4.74515329  0.69287171 -2.44365367
  H -4.79149215 -0.61748474 -1.28361215
  H -4.81261598  1.04640793 -0.69665507
  H -0.04826537 -1.80844222  2.13461631
  H -1.12493816 -3.19057817  2.29880035
  H -1.84289879 -1.46148155  3.70349410
  H -3.07938745 -1.76521070  2.49219170
  H -1.12204511  0.56253712  2.24094206
  H -2.58406651  0.64863274  3.19912802
  H -3.55496320  1.39508075  1.33063198
  H -3.68082402 -0.30627362  0.93653902
  H  4.17805718 -2.28031933  1.33670077
  H  3.73584738 -3.93487382  0.85135309
  H  4.94135600 -3.02551064 -0.10714030
  H  0.10487090 -1.90377974 -2.69182871
  H  1.21067255 -3.11622553 -2.00389917
  H  1.84391504 -1.67057901 -2.77379522
  H  3.35302435 -0.25884762 -1.68792486
  H  3.18424577  0.68109778 -0.18462825
  H  2.85416815  1.43552357 -1.75928232
  H  1.00192143  3.73677804 -0.89864457
  H  1.97233906  5.16837250  0.83702769
  H  2.45726704  4.25292575  3.07852994
  H  1.98923867  1.87277379  3.55239072
  H  1.04228753  0.43453783  1.81524497
