50
opt_min/./Product_2705_opt.xyz
  C -1.31130500 -1.27962300 -2.42053200
  C -1.96128385 -0.22223634 -1.56874189
  O -2.80403487  0.50396121 -2.03380566
  C -1.43196788 -0.10212075 -0.12177062
  C -1.97221426  1.10558261  0.66729444
  C -1.19958661  1.63110998  1.70107553
  C -1.67207157  2.66067578  2.49282949
  C -2.93796289  3.17862346  2.28034416
  C -3.72955940  2.63574172  1.28515802
  C -3.26034993  1.59842566  0.49667182
  C  0.05408235  0.10843037 -0.27841176
  C  1.23839901 -0.56671843  0.02391100
  C  2.25795535  0.39336904 -0.22008277
  C  3.70594496  0.39300590  0.13414294
  O  4.11923398 -0.01819197  1.19960969
  N  4.47340354  0.96514316 -0.81208246
  C  5.89157732  1.15100622 -0.64477929
  N  1.74417307  1.50586199 -0.70204130
  N  0.43451443  1.33717946 -0.73952815
  C -0.32607219  2.45027406 -1.24500586
  C  1.58738503 -1.94448529  0.44745637
 Br  2.04913457 -1.93328913  2.38037320
 Br  3.28772043 -2.45125159 -0.56811922
  C  0.72475218 -3.17354861  0.16687736
  C -0.56454336 -3.41325213  0.94487037
  C -1.84598719 -2.74454103  0.46620227
  C -2.00947051 -1.25315192  0.74473077
  H -0.99148426 -0.82105081 -3.35570144
  H -2.05806862 -2.02988665 -2.67811533
  H -0.46367048 -1.74818941 -1.93779669
  H -0.21620698  1.23030553  1.90227175
  H -1.04909143  3.05266720  3.28291476
  H -3.30681464  3.98556605  2.89487689
  H -4.72920320  3.01080782  1.12271848
  H -3.90759817  1.19251708 -0.26257990
  H  4.02454800  1.35211677 -1.62572123
  H  6.44837742  0.52430299 -1.34512340
  H  6.16195728  2.19560231 -0.80361092
  H  6.14268260  0.85779645  0.37337335
  H -0.45977459  3.19930651 -0.46289740
  H  0.25171201  2.88939564 -2.05739899
  H -1.29913127  2.14447479 -1.61388739
  H  0.53629624 -3.23996590 -0.90814998
  H  1.36491184 -4.02222174  0.42673260
  H -0.74924386 -4.48719620  0.85506864
  H -0.40540411 -3.19318866  2.00110983
  H -2.63463241 -3.20890423  1.06602272
  H -2.04983269 -2.99079843 -0.57436346
  H -1.69423385 -1.07494109  1.77617622
  H -3.08694427 -1.06687635  0.69824865
