31
opt_min/./Product_62_opt.xyz
  C -0.97990100 -1.42764300 -0.05329200
  C  0.29327821 -1.22511371  0.24228347
  C  1.42104958 -2.19102909  0.20956491
  C  0.46257456  0.21107044  0.69717562
  C  1.35675773  0.96831584 -0.30383743
  O  2.64734022  0.66348175 -0.13136531
  C  3.56673719  1.32171113 -1.00299472
  O  0.95694828  1.73980939 -1.13286279
  C  1.02910697  0.34349347  2.10975958
  O -0.83998994  0.77191105  0.63774928
  C -1.79152063 -0.19146139  0.18886882
  C -2.86548426 -0.40466498  1.26333975
  C -2.49920053  0.24224653 -1.11840722
  C -2.16634095  1.60893752 -1.61459095
  O -3.25963973 -0.51723774 -1.66358781
  H -1.44266795 -2.33197058 -0.40674418
  H  2.30131233 -1.73407132 -0.23886196
  H  1.68970573 -2.49706523  1.22139205
  H  1.13775908 -3.07810460 -0.35285450
  H  3.37822973  2.39600814 -0.99428055
  H  3.45028090  0.95389798 -2.02404450
  H  4.56035413  1.08857476 -0.62611503
  H  0.37739144 -0.18110938  2.80542190
  H  1.04784723  1.39349186  2.39330111
  H  2.03375253 -0.06407717  2.15595967
  H -3.72885765 -0.89559946  0.82044516
  H -3.16292407  0.56751220  1.65032649
  H -2.48133538 -1.01816854  2.07420628
  H -2.52937928  1.73641901 -2.63040933
  H -1.09881598  1.79700820 -1.53442716
  H -2.65741871  2.32380714 -0.95350939
