49
opt_min/./Product_5425_opt.xyz
  C  5.27569899 -0.53186707  0.52313903
  C  4.75127887  0.49857296 -0.43611035
  C  5.75537880  1.49253292 -0.92582514
  C  3.47554180  0.53839888 -0.84000492
  C  2.43960769 -0.37866349 -0.43474863
  C  1.18089443 -0.28684084 -0.87139518
  C  0.07980077 -1.26786927 -0.59416604
  C  0.01624605 -2.14683843 -1.85595768
  C  0.31197843 -2.14886027  0.64063390
  C -1.09536655 -2.70052710  0.95094208
  C -1.29346932 -3.99821680  0.31332219
  N -1.47910342 -5.00976380 -0.18629320
  C -1.28162638 -2.92508129  2.38256431
  N -1.42101048 -3.12579769  3.49837085
  N -2.01710166 -1.68367742  0.47844980
  C -1.31945026 -0.63437774 -0.26622594
  C -2.10193306 -0.34284748 -1.54605301
  O -2.06439085  0.94887140 -1.85665055
  C -2.73875291  1.37466070 -3.03414733
  O -2.67161572 -1.18969135 -2.18500848
  C -1.36306842  0.60786092  0.62237754
  C -0.30581723  1.45574850  0.91178375
  C -0.49197441  2.56138543  1.72628992
  C -1.73043550  2.84397417  2.27004123
  C -2.79185202  1.99612616  2.00006290
  C -2.60584101  0.89652474  1.18608109
  H  4.73000142 -0.49946824  1.46520338
  H  5.17084082 -1.53417185  0.10907881
  H  6.32793076 -0.35864683  0.73155708
  H  6.23286961  1.99157830 -0.08263234
  H  5.29511299  2.24263283 -1.56383546
  H  6.53729434  0.98614982 -1.49252201
  H  3.17046042  1.30981303 -1.53629413
  H  2.71889144 -1.14536369  0.27203592
  H  0.92956922  0.46395378 -1.61179356
  H -0.80508237 -2.85937971 -1.82391906
  H  0.95069117 -2.69798374 -1.94819561
  H -0.10236158 -1.53599308 -2.74784175
  H  0.67925191 -1.55834406  1.48087648
  H  1.00585736 -2.96492568  0.43719936
  H -2.84007708 -2.05508943  0.01949946
  H -3.20298705  0.52116845 -3.53249798
  H -3.49980614  2.10051698 -2.74900764
  H -2.00920906  1.84308615 -3.69516367
  H  0.68205084  1.26038500  0.53270320
  H  0.34906696  3.20789743  1.93279300
  H -1.86726332  3.71040869  2.89900150
  H -3.76501538  2.18941535  2.42544183
  H -3.44599016  0.24976046  0.97927157
