47
opt_min/./Product_1259_opt.xyz
  C  2.47929805  2.07309107 -2.46500888
  O  1.62129338  1.26476325 -1.66665176
  C  1.56842116  1.55753861 -0.35125846
  O  2.21587711  2.41974452  0.16406891
  C  0.51915068  0.67691011  0.31643621
  C -0.87433530  0.99266569 -0.32316167
  C -0.84131184  2.17102208 -1.16217445
  N -0.80876627  3.07215159 -1.86637593
  C -1.78581374  1.21144504  0.90894347
  C -1.48796579  2.60260228  1.47718990
  C -0.06333944  2.43805322  2.03943021
  C  0.25459942  0.95361745  1.80540712
  C -1.13238302  0.32106485  1.96315008
  C -1.19338211 -0.21469009 -1.24082021
  C -2.67500168 -0.60890997 -1.24453784
  C -2.99946688 -2.06999784 -1.09554150
  O -3.52755823  0.22419704 -1.41543655
  N -0.30189083 -1.28707034 -0.85286600
  C  0.79953291 -0.82421359 -0.03010653
  C  0.96852917 -1.75888121  1.20307722
  C  0.28734255 -3.09609591  1.07815029
  O  1.66980835 -1.47448374  2.13267196
  C  2.21655522 -0.98225474 -0.63517516
  C  2.35426893 -1.83663849 -1.87115461
  O  3.16510375 -0.49206092 -0.08526694
  H  1.90121397  2.90562403 -2.86989409
  H  3.30024770  2.45327490 -1.85642986
  H  2.85676690  1.44313614 -3.26770504
  H -2.83726816  1.04606389  0.69092563
  H -2.20244752  2.83320306  2.26804124
  H -1.55785696  3.38708227  0.72620814
  H  0.65587812  3.09278752  1.55635960
  H -0.03402423  2.64498281  3.10816410
  H  1.04614188  0.58822481  2.45167838
  H -1.16316014 -0.73608042  1.71011567
  H -1.55343284  0.47082456  2.95437558
  H -1.01604425  0.10507577 -2.28549180
  H -2.11775233 -2.65731586 -0.86895570
  H -3.45004966 -2.41930160 -2.02295153
  H -3.74786341 -2.18651241 -0.31506896
  H  0.01039592 -1.81556434 -1.65484945
  H  0.50683004 -3.68790838  1.96276028
  H  0.64467795 -3.61983630  0.19494729
  H -0.78627161 -2.96563373  0.97936521
  H  1.91490617 -2.82148176 -1.72725707
  H  3.41233116 -1.94853770 -2.09412734
  H  1.87112129 -1.34081439 -2.71211928
