39
opt_min/./Product_4575_opt.xyz
  C -0.87325613 -1.02168858  1.25814147
  C -0.52433266  0.09384785  0.28123076
  C -0.15321316  1.36256773  1.04757316
  C  0.57769772 -0.34783875 -0.73188901
  C  1.93863276  0.22820804 -0.56875312
  C  3.02750172 -0.52371353 -0.41462399
  C  4.38685929 -0.02801240 -0.27799840
  C  4.63187810  1.44243704 -0.43295777
  C  5.37854092 -0.87807239 -0.01153908
  C -0.12054608  0.06752416 -2.07968266
  C  0.78175548  0.33797732 -3.17764008
  N  1.53559661  0.56494613 -4.00301279
  O -0.94252039  1.13412845 -1.75196306
  C -1.66965793  0.46426880 -0.72873031
  C -2.86083913  1.26963930 -0.19748159
  N -3.72939276  0.49530349  0.48191603
  C -4.94932983  1.05233325  1.02438084
  O -2.95852603  2.46351777 -0.33889848
  C -2.01597149 -0.84342303 -1.46541265
  O -2.92156069 -1.59927788 -1.26565932
  O -1.03985344 -1.01388351 -2.36098838
  H  0.03611350 -1.36770320  1.74547373
  H -1.33770170 -1.87014061  0.75898409
  H -1.55202141 -0.65423975  2.02454741
  H -1.01985347  1.73361060  1.59013502
  H  0.17203245  2.15070343  0.37405049
  H  0.64022272  1.14379045  1.75933701
  H  0.64942625 -1.44222272 -0.73847699
  H  2.01452219  1.30396177 -0.60934468
  H  2.92654333 -1.60204060 -0.37316101
  H  4.18712257  1.80841813 -1.35607938
  H  5.69908547  1.64651611 -0.45388998
  H  4.19246493  1.98903381  0.40071338
  H  6.39790918 -0.54891051  0.09258595
  H  5.20522226 -1.93422216  0.10943054
  H -3.68117757 -0.50981081  0.39124881
  H -5.22381076  0.51311087  1.92865299
  H -5.76804959  0.99109797  0.30370017
  H -4.76749894  2.10072762  1.25620329
