52
opt_min/./Product_1560_opt.xyz
  F  1.20183100 -1.60443900  0.38802800
  C  1.04083773 -0.58686662 -0.53180366
  C -0.40206961  0.03471898 -0.48848415
  C -1.28932162 -0.40568230  0.65601692
  C -0.77045062 -0.52592636  1.93955784
  C -1.59677608 -0.83215414  3.00645270
  C -2.95507503 -1.00624109  2.81566619
  C -3.48602202 -0.85655825  1.54733954
  C -2.66221830 -0.55333708  0.47845603
  C -0.91739770 -0.29319669 -1.90322134
  C -1.15917498 -1.80843967 -2.00911859
  C  0.26457253 -2.39789606 -2.03802293
  C  1.15457996 -1.15135642 -1.95694396
  C  0.33650528 -0.14998031 -2.76816749
  C -0.09685510  1.53964502 -0.22278186
  C -1.19049001  2.29179456  0.53280185
  N -2.30343118  2.50540939 -0.20369224
  C -3.46557892  3.15367586  0.35693635
  O -1.06550314  2.69521921  1.66506214
  N  1.11084645  1.45180998  0.56222003
  C  1.99225280  0.58590350 -0.19976388
  C  3.28433389  0.23696524  0.50054504
  C  3.91665970 -0.98299973  0.29922792
  C  5.12305839 -1.26218873  0.91771665
  C  5.72319069 -0.32734660  1.74054794
  C  5.11028425  0.89808422  1.93320174
  C  3.90531067  1.17921740  1.31441855
  H  0.27614150 -0.34935494  2.11759895
  H -1.17177992 -0.92307630  3.99452318
  H -3.60054865 -1.24112538  3.64968791
  H -4.54892080 -0.96732320  1.38620809
  H -3.10737499 -0.43059851 -0.49805570
  H -1.76894732  0.30977233 -2.21978451
  H -1.69763159 -2.03364251 -2.93059484
  H -1.73682577 -2.19451695 -1.17292826
  H  0.45737049 -2.94340633 -2.96225070
  H  0.44336106 -3.07035533 -1.20182263
  H  2.18204184 -1.31535642 -2.27799571
  H  0.17476547 -0.48749614 -3.79184247
  H  0.75619887  0.85388498 -2.79212503
  H  0.07122805  2.05724684 -1.19564139
  H -2.35444467  2.16775760 -1.14968610
  H -3.40615692  4.23907167  0.23920395
  H -3.50204865  2.92359156  1.42251989
  H -4.36502851  2.78538416 -0.13133450
  H  1.49400584  2.35897417  0.79153888
  H  2.26416625  1.06605573 -1.16990734
  H  3.47674955 -1.72887324 -0.34223678
  H  5.59480686 -2.21997447  0.75215697
  H  6.66232826 -0.54965395  2.22534786
  H  5.57101715  1.64193381  2.56647595
  H  3.44680235  2.14153064  1.47943019
