40
opt_min/./Product_1636_opt.xyz
  C -0.54426900 -2.91147600  2.13393100
  C -0.84124585 -1.48999398  1.76650396
  O -1.57876247 -0.79570849  2.42106066
  C -0.14056970 -0.87794882  0.55054322
  C  1.35450939 -0.49897297  0.68445933
 Br  2.41780980 -1.40588543  2.02558225
  C  1.86643359 -0.97469202 -0.72667694
  C  1.90967459 -2.48676440 -0.68758021
  C  0.64242028 -2.87328163 -0.74763445
  C -0.15594746 -1.59372417 -0.84582486
  O  0.73828716 -0.73551541 -1.54761128
  C  1.33545267  1.06019613  0.86838857
  C  1.53114254  1.59338164  2.30289953
  C  2.41260934  1.68195062 -0.02365573
  O  3.59208311  1.52900026  0.16110730
  O  1.87951205  2.38654691 -1.00751148
  C  2.75969040  3.02182491 -1.92784685
  N  0.02438617  1.47907493  0.44862365
  C -0.75007540  0.48911698  0.31465466
  C -2.18582007  0.63287719 -0.07504239
  N -2.60401482  1.90615206 -0.03281296
  C -3.94503881  2.30193947 -0.37388848
  O -2.87324155 -0.31948193 -0.39376133
  H  0.02475193 -3.43524560  1.37531192
  H -1.48159959 -3.42337917  2.34276822
  H  0.03452478 -2.90570871  3.05990755
  H  2.75337090 -0.46956527 -1.09093699
  H  2.80430912 -3.06308881 -0.56486105
  H  0.22032015 -3.85780664 -0.79245091
  H -1.13822323 -1.62553790 -1.30290445
  H  1.58155067  0.79496115  3.03686012
  H  0.67655418  2.22093485  2.55415765
  H  2.43994693  2.18678180  2.36859681
  H  3.78307236  2.67338567 -1.77138487
  H  2.70334571  4.09938939 -1.77401964
  H  2.42021949  2.76772420 -2.93143568
  H -1.91885958  2.60689878  0.21052552
  H -3.97055747  2.79831140 -1.34767534
  H -4.55404607  1.39975846 -0.42553397
  H -4.34127071  2.97534332  0.38530153
