47
opt_min/./Product_1606_opt.xyz
  C  0.29155341 -2.39213595 -1.29600927
  C  0.22110243 -0.88617193 -1.06555052
  C -1.19366776 -0.29981836 -0.72765746
  C -2.17801246 -1.33945747 -0.57381420
  N -2.88086260 -2.24052022 -0.54000685
  C -1.45053267  0.57786965 -2.00348885
  C -1.57569598 -0.35735414 -3.18415187
  C -0.34031326 -0.75589252 -3.45037121
  C  0.51760771 -0.09020089 -2.39208339
  O -0.15860121  1.13545470 -2.19200493
  C -0.99477701  0.59666142  0.54241709
  C -1.49335625  2.05115409  0.30284207
  O -2.63511335  2.37771876  0.53238232
  N -0.55202359  2.91670040 -0.12931911
  C -0.87373107  4.30133823 -0.38112999
  C -1.86806461  0.03263827  1.69658316
  O -3.05218605 -0.15972262  1.55270194
  N -1.19368521 -0.18644269  2.83642031
  C -1.83690241 -0.72242248  4.01060787
  N  0.41003293  0.56102892  0.88948264
  C  1.11765488 -0.45531981  0.13610276
  C  2.47997730  0.11714155 -0.32393697
  N  3.39424102 -0.80563544 -0.65242753
  C  4.72496161 -0.45524002 -1.09332807
  O  2.64710969  1.31526718 -0.38778484
  C  1.35868286 -1.54358580  1.07000377
  N  1.56344669 -2.32029780  1.88447689
  H  0.08734671 -2.93961036 -0.37779978
  H  1.28260856 -2.66545663 -1.65740765
  H -0.44171279 -2.70812565 -2.03366442
  H -2.22368482  1.32993534 -1.88951920
  H -2.50450046 -0.61603314 -3.65008923
  H  0.02459366 -1.43132105 -4.19750434
  H  1.56569148  0.07340011 -2.62606532
  H  0.30073734  2.58384834 -0.55897978
  H -0.10928191  4.93967870  0.06169215
  H -1.83933789  4.51103946  0.07599717
  H -0.93307429  4.50090249 -1.45294958
  H -0.19406684 -0.04732356  2.85699989
  H -1.51435570 -0.17435930  4.89524929
  H -2.91168374 -0.61345497  3.87779732
  H -1.59837240 -1.78155630  4.13484947
  H  0.88244558  1.45713716  0.80144155
  H  3.20067811 -1.78159631 -0.48624204
  H  4.76132559  0.62479719 -1.22218500
  H  4.94724739 -0.94524970 -2.04156786
  H  5.46635659 -0.75374417 -0.35090351
