37
opt_min/./Product_487_opt.xyz
  C  4.98238956  1.03797293  1.31740520
  N  3.75053946  0.98724490  0.56291008
  C  2.83431145  0.02720074  0.80373452
  O  2.96782702 -0.83450910  1.65145401
  C  1.62637173  0.07768218 -0.05113001
  C  1.09492001  1.02296954 -0.84556860
  C  1.59526771  2.26670524 -1.23296479
  N  2.05632878  3.25649323 -1.59068150
  C -0.27165229  0.47667366 -1.23471159
  C -1.09972560  0.62967499  0.08903356
  C -0.51841366 -0.51711738  0.93299403
  C  0.58542628 -1.03316424 -0.02357012
  O -0.02759632 -0.91040558 -1.29499594
  C -1.70753763 -1.48294151  1.18062280
  C -1.62512882 -2.81198522  0.42823918
  N -2.90100028 -0.71816064  0.81458117
  N -2.48585759  0.30563458 -0.08035687
  C -3.33674394  1.11791128 -0.73962689
  O -2.96866988  2.08514758 -1.36931151
  O -4.60937360  0.66038620 -0.67328791
  C -5.58707045  1.42547536 -1.36386487
  H  4.77026767  1.23394538  2.37166015
  H  5.49977208  0.07853711  1.25008612
  H  5.61626927  1.82690804  0.92351669
  H  3.60322349  1.66701497 -0.16606122
  H -0.74391366  0.85843085 -2.13339102
  H -0.97880934  1.64469706  0.49177619
  H -0.10772070 -0.17996105  1.88347544
  H  0.97207660 -2.02752712  0.16335285
  H -1.79165907 -1.69513730  2.25419059
  H -0.72241247 -3.35182585  0.70357737
  H -1.60407915 -2.63759375 -0.64711562
  H -2.48821272 -3.42153254  0.68976431
  H -3.58852948 -1.30412172  0.34191776
  H -5.09620539  2.20787691 -1.94773516
  H -6.13950683  0.75362541 -2.02387140
  H -6.26647988  1.86618335 -0.63217847
