42
opt_min/./Product_4252_opt.xyz
  C  0.94525200  0.98769700  0.92109100
  C -0.00665721  0.68388082 -0.23310662
  C  0.03290907 -0.80290462 -0.65446124
  N  1.34163145 -1.39675595 -0.58454501
  C  1.54176418 -2.64866437 -1.26305479
  C  2.40108410 -0.72568343 -0.06813625
  C  2.30460591  0.43127677  0.61409581
  C  3.46628619  1.20065926  1.04923419
  N  4.69939079  0.55401430  0.96259565
  O  3.40666837  2.36532243  1.39715399
  C -1.09348884 -1.48412694  0.17446806
  C -1.82992711 -2.56332297 -0.63195089
  C -0.57212506 -2.09199908  1.48308464
  N -2.00660008 -0.38712194  0.48989169
  C -1.51735438  0.90980428  0.01195129
  C -1.92914158  1.82981274  1.18066860
  C -3.40991404  2.12756224  1.27700556
  O -1.18633084  2.19916821  2.04930716
  C -2.17753100  1.35700118 -1.30615448
  H  0.57376595  0.55315993  1.85052780
  H  1.02112547  2.06138068  1.08247925
  H  0.31913934  1.30064037 -1.07646005
  H -0.28364648 -0.85261528 -1.71067810
  H  1.04032788 -3.46891047 -0.74284574
  H  1.15844009 -2.60284794 -2.28793472
  H  2.60375879 -2.87594395 -1.30569220
  H  3.36349502 -1.16728274 -0.28283627
  H  5.44729335  1.13399679  1.32060638
  H  4.74509297 -0.38960787  1.31104590
  H -2.49653387 -2.10745843 -1.36319565
  H -1.13699516 -3.20409935 -1.16815841
  H -2.42450493 -3.18318688  0.03462571
  H  0.18454385 -1.46002156  1.93374111
  H -1.39865507 -2.18816562  2.18061701
  H -0.14197947 -3.07422515  1.30990660
  H -2.95103595 -0.56856645  0.17904942
  H -3.86545329  1.32319156  1.85054341
  H -3.54285351  3.05003559  1.83558840
  H -3.90714594  2.20283616  0.31852159
  H -3.22094468  1.05059745 -1.35304800
  H -1.66782900  0.91456045 -2.15940973
  H -2.12627987  2.43807191 -1.40529127
