40
opt_min/./Product_1441_opt.xyz
  C -2.66535621  1.17298054 -3.77604345
  N -1.74458228  0.77887912 -2.73300216
  C -1.88764502 -0.38497967 -2.07421756
  O -2.72636983 -1.20692234 -2.35212913
  C -0.82815291 -0.66055316 -0.96787450
  C -0.81551014  0.21676701  0.31457047
  C -1.77100062  1.40359780  0.35310125
  F -1.72615011  2.03949292  1.52541766
  F -3.03960977  1.04299146  0.15280946
  F -1.51244186  2.34371028 -0.58371065
  C -1.35505060 -0.82975343  1.38786690
  C -0.21195188 -1.78247334  1.67113323
  C -0.11426731 -2.51993613  0.57207463
  C -1.22877777 -2.04166705 -0.32836950
  O -2.20765538 -1.61164229  0.59717265
  C  0.65607993  0.65169387  0.50602573
  C  1.17117831  0.46510447  1.97597403
  N  2.36233909 -0.14036817  2.05043277
  C  3.06995715 -0.26767616  3.30555651
  O  0.55213561  0.91333173  2.91045236
  C  0.90864271  2.06799746  0.28731254
  N  1.24914399  3.13583999  0.05890002
  N  1.45116819 -0.12482448 -0.44618392
  C  0.59773595 -0.58730460 -1.54083204
  C  1.04086522 -1.88665818 -2.01695944
  N  1.39300734 -2.90234992 -2.40213490
  H -2.13269882  1.30861743 -4.71858699
  H -3.40354424  0.38091034 -3.88497041
  H -3.16436785  2.10341219 -3.50461200
  H -1.06350327  1.47145446 -2.46696042
  H -1.86390719 -0.37121842  2.23018310
  H  0.32876897 -1.84341571  2.59255755
  H  0.58698880 -3.28956659  0.32213437
  H -1.63842183 -2.75300447 -1.03874650
  H  2.77449805 -0.54005044  1.22018783
  H  2.34197816 -0.32235880  4.11446647
  H  3.67704975 -1.16945939  3.28972491
  H  3.71029950  0.60030282  3.47575018
  H  2.21783220  0.43525131 -0.81058291
  H  0.63337998  0.09902902 -2.40496332
