46
opt_min/./Product_5169_opt.xyz
  C -1.59958300  1.53557800 -1.01618900
  C -0.36752862  0.71628935 -1.36570156
  C  0.99083478  1.28445889 -0.91683013
  N  0.88966479  1.85760954  0.40919887
  C  2.08649063  2.39754417  1.00968809
  C -0.30203023  2.08430491  0.99822224
  C -1.51749059  1.96497438  0.42291226
  C -2.68919202  2.27999652  1.23521869
  N -3.89540654  2.30581125  0.58142438
  O -2.63692829  2.47844905  2.43876377
  C  1.83071636 -0.04156184 -0.95288016
  C  3.13693194 -0.10397432 -0.22097011
  C  3.26739497 -0.85866461  0.93600091
  C  4.48481103 -0.93033259  1.58922852
  C  5.58262454 -0.24761655  1.09416979
  C  5.46221073  0.49705250 -0.06789452
  C  4.24903229  0.56076583 -0.72723125
  N  0.90223267 -1.07961545 -0.55896864
  C -0.28191301 -0.68320207 -0.75747062
  C -1.46337077 -1.52344498 -0.53131586
  C -2.37615923 -1.23140189  0.47951996
  C -3.48935463 -2.03086188  0.65856976
  C -3.70449739 -3.12278388 -0.16679687
  C -2.79376492 -3.42474551 -1.16301462
  C -1.67439080 -2.63159534 -1.34398532
  H -2.48973437  0.92376998 -1.20136696
  H -1.65276266  2.41153999 -1.67265353
  H -0.32583165  0.56808349 -2.45797659
  H  1.40613836  2.02390631 -1.61420821
  H  1.83503637  3.28419425  1.59516146
  H  2.57827672  1.67132462  1.66255696
  H  2.78953022  2.68688808  0.23083796
  H -0.26809987  2.42019907  2.02726169
  H -3.94073143  2.37885000 -0.42030649
  H -4.67540132  2.66835080  1.10668332
  H  2.05036030 -0.22731027 -2.02101885
  H  2.40262829 -1.38775194  1.30734528
  H  4.57811552 -1.52383782  2.48708331
  H  6.53179289 -0.30043298  1.60698960
  H  6.31952242  1.02300823 -0.46492724
  H  4.16505375  1.12800115 -1.64506020
  H -2.20006654 -0.39348003  1.13434549
  H -4.19105786 -1.79814159  1.44628983
  H -4.57838574 -3.74289648 -0.02865971
  H -2.95239502 -4.28241747 -1.80004177
  H -0.95839044 -2.86691559 -2.11792820
