61
opt_min/./Product_5963_opt.xyz
  C  1.39511200  1.35257600  1.05427600
  O  2.20218480  1.31955669  1.96152222
  C  0.53765521  0.14703249  0.71844069
  O  0.41577520 -0.77660277  1.77064734
  C  0.15092707 -0.33259627  3.08784164
  C -0.87126887  0.57013584  0.19332871
  O -1.61063020  1.08571352  1.27620970
  C -2.65235997  2.00147972  1.00688417
  C -0.77569660  1.62580190 -0.91384279
  O -1.59139247  1.68023698 -1.80119766
  C  0.25791626  2.65861192 -0.72395842
  C  0.14117614  3.83184446 -1.64126244
  C  1.20770535  2.56502805  0.23176743
  C  2.16844529  3.67675613  0.51234016
  C -1.31623809 -0.79180631 -0.41211762
  C -2.40555336 -0.75758571 -1.53617558
  N -3.65442299 -0.52713432 -1.08293585
  C -4.77554798 -0.43056765 -1.98778014
  O -2.13117724 -0.99381538 -2.67944986
  C -1.75935722 -1.78214100  0.66805427
  O -1.35463346 -2.90103365  0.77322528
  O -2.70877503 -1.25677188  1.46120526
  C -3.19495930 -2.10678855  2.49397354
  O -0.14660593 -1.29172816 -1.01324941
  C  1.03239069 -0.69546580 -0.49279093
  C  1.70276774  0.14350941 -1.61052212
  C  3.11627118  0.61471454 -1.35782999
  O  1.16032547  0.31894296 -2.66631575
  C  2.02375769 -1.80574913 -0.17422245
  C  2.01864285 -2.91252101 -1.01536145
  C  2.90937040 -3.94921917 -0.80496422
  C  3.81186001 -3.88957367  0.24337479
  C  3.81845386 -2.78702099  1.07905710
  C  2.93228835 -1.74292287  0.87228239
  H  0.05755095 -1.25439934  3.66228901
  H -0.77587036  0.24076682  3.14684687
  H  0.97616212  0.26196265  3.49084732
  H -3.13836543  2.15890171  1.96996615
  H -2.26806840  2.95810140  0.63665382
  H -3.37544281  1.61148225  0.28869118
  H -0.33717790  3.50513660 -2.56276114
  H  1.11298871  4.26406464 -1.86305700
  H -0.48908924  4.60232453 -1.19381739
  H  2.68117134  3.47694283  1.45130794
  H  1.65116798  4.63121221  0.57462071
  H  2.91859643  3.74745958 -0.27587919
  H -3.84263864 -0.43037227 -0.09618081
  H -5.57035604 -1.11180413 -1.68079533
  H -4.42045284 -0.70432145 -2.97996126
  H -5.16196715  0.59075282 -2.01655759
  H -3.68365733 -1.46166114  3.22047551
  H -2.36735627 -2.65188514  2.94988252
  H -3.90629889 -2.82575731  2.08102749
  H  3.20970102  1.64867754 -1.68336918
  H  3.77425523  0.01846589 -1.99106734
  H  3.43025031  0.50653880 -0.32737190
  H  1.30468947 -2.95476871 -1.82156168
  H  2.89741781 -4.80672755 -1.46138207
  H  4.50403618 -4.70230215  0.40867041
  H  4.51507216 -2.73542699  1.90314478
  H  2.94930320 -0.90000865  1.54432117
