34
opt_min/./Product_1366_opt.xyz
  F  4.43224000  0.42569600  0.75155100
  C  3.89524102 -0.31360007 -0.22730862
  F  4.77479806 -1.27741859 -0.51522662
  F  3.82944275  0.48301044 -1.31329190
  C  2.55194181 -0.83652722  0.14013758
  C  1.97768001 -2.02461821 -0.08462963
 Cl  2.54345798 -3.41523793 -0.83813254
  C  0.54607499 -1.86794139  0.42509265
  C -0.14882027 -1.00621318 -0.67052102
  C  0.51006285  0.36689184 -0.41709184
  C  1.45045283  0.01034480  0.77332674
  O  0.71063156 -0.95753493  1.48340325
  C -0.72888073  1.20646730  0.00285829
  C -0.49439256  2.51065118  0.74805196
  C -1.75015954  3.14817332  1.24417045
  O  0.61215630  2.95831252  0.87685666
  C -1.53348875  1.31079829 -1.33515541
  O -1.64054514  2.22767688 -2.07962613
  O -2.08925393  0.10304146 -1.47517823
  C -1.63233119 -0.66517507 -0.33795554
  C -2.52366641 -1.88858233 -0.09181903
  C -3.17192058 -1.95413655  1.25291303
  O -2.63575947 -2.71545052 -0.95307623
  O -1.56411785  0.27253027  0.68088584
  H  0.02834449 -2.77206807  0.73008134
  H -0.06006852 -1.42836832 -1.66679990
  H  1.04043874  0.82444273 -1.24685283
  H  1.76347606  0.84088646  1.39908242
  H -2.29310559  3.52753208  0.37761650
  H -1.51394450  3.97440245  1.90610920
  H -2.37935468  2.41416083  1.74121083
  H -2.95186106 -2.91822580  1.70630211
  H -4.25113908 -1.90864859  1.11812207
  H -2.84167308 -1.14828097  1.89953890
