29
opt_min/./Product_3416_opt.xyz
  C -1.50540600  0.61904500 -1.58792900
  C -1.21661075  0.20630038 -0.14191065
  C -2.21271290  0.88459534  0.78867237
  C  0.26214944  0.52925464  0.22992872
  C  0.80987609  1.70997337 -0.51671834
  O  1.50345917  1.67507620 -1.49112651
  C  0.92802243 -0.79007292 -0.08858561
  C  2.41026239 -0.94051812 -0.15507498
  O  2.99504606 -1.85129714 -0.67323617
  O  3.00213072  0.08293089  0.48080977
  C  4.42333531  0.08771956  0.49934214
  N  0.14638725 -1.76532050 -0.26759466
  C -1.22213725 -1.35510511 -0.07982157
  C -1.70296020 -1.97436409  1.23352429
  H -0.76928678  0.18898119 -2.26484855
  H -1.48048247  1.70349635 -1.69658776
  H -2.49433555  0.27417796 -1.88588374
  H -3.22377245  0.57809448  0.52666203
  H -2.14638565  1.96594015  0.68530478
  H -2.04170530  0.62755223  1.83134365
  H  0.34929939  0.72748777  1.30524517
  H  0.49658352  2.67618047 -0.06657342
  H  4.78111327 -0.43608877  1.38980274
  H  4.81137263 -0.41184688 -0.39028935
  H  4.73274403  1.13071576  0.52680635
  H -1.82132912 -1.77346303 -0.89495911
  H -1.46695875 -3.03521671  1.21606190
  H -1.18985538 -1.52716447  2.08188677
  H -2.77542267 -1.84538981  1.35570625
