46
opt_min/./Product_5008_opt.xyz
  C  1.35873300 -2.54759500  0.09929100
  C  0.53805974 -1.37830059 -0.44673622
  C -0.96642941 -1.68103290 -0.50225637
  C -1.34727629 -2.58130155 -1.66841354
  C -1.60593633 -0.26910950 -0.51370047
  C -2.58215730 -0.12418077  0.69345355
  N -3.00143324  1.13417727  0.85147704
  C -3.87304921  1.52595512  1.93227128
  O -2.90467833 -1.05885221  1.39139124
  C -2.41264761  0.01813248 -1.78150873
  C -1.78582189  0.94731350 -2.78659338
  O -3.49886783 -0.47731120 -1.94878699
  O -0.54180977  0.66166468 -0.37689316
  C  0.55953753 -0.00124529  0.25351789
  C  0.32109974  0.07765898  1.78036106
  C  1.07070306 -0.84324478  2.69592090
  O -0.39757985  0.94808725  2.20209501
  C  1.78659203  0.86099527  0.02017785
  C  3.00418007  0.34745872 -0.40760340
  C  4.08592589  1.19064815 -0.59386993
  C  3.96731767  2.54899426 -0.35752548
  C  2.75366673  3.06640985  0.06120581
  C  1.67132763  2.22734814  0.25286876
  H  2.18211299 -2.22063804  0.72451256
  H  1.77363291 -3.12053323 -0.72769568
  H  0.73208191 -3.22016932  0.68186156
  H  0.86498166 -1.17212472 -1.47491327
  H -1.29060342 -2.16536282  0.42696535
  H -2.42375350 -2.72995375 -1.69446159
  H -1.03298421 -2.15252548 -2.61931013
  H -0.86673013 -3.55043888 -1.55024439
  H -2.57704310  1.85776978  0.29364598
  H -3.84359571  0.74413738  2.69008859
  H -3.53152170  2.46569711  2.36269655
  H -4.90079535  1.63548165  1.57694293
  H -1.81768165  0.47217176 -3.76638439
  H -0.76760662  1.20718535 -2.51697002
  H -2.38847259  1.85233280 -2.84695077
  H  0.89091846 -0.52936163  3.72219740
  H  0.72119289 -1.86456003  2.56969577
  H  2.13655296 -0.79986779  2.48258002
  H  3.11586783 -0.70365314 -0.61552173
  H  5.02808126  0.78164359 -0.92786918
  H  4.81495930  3.20185235 -0.50174962
  H  2.64847425  4.12547392  0.24380948
  H  0.72434259  2.62010239  0.58715770
