35
opt_min/./Product_4368_opt.xyz
  C  1.37787200  1.93908500  0.91989800
  O  2.10136658  1.84605258  1.88482749
  C  0.40856643  3.04533090  0.79827328
  C -0.57086946  3.06259901 -0.10617072
  C -0.73247125  2.02964273 -1.14355738
  O -1.45254548  2.20120337 -2.10330350
  C  0.05971358  0.77172463 -0.94787812
  C  1.38949054  0.92694748 -0.20133259
  C  1.60196863 -0.48788670  0.37313940
  C  2.38234385 -1.38921258 -0.59692545
  N  2.64647954 -2.59941575 -0.08387747
  C  3.30697860 -3.63441663 -0.84081828
  O  2.65750977 -1.04860797 -1.72677045
  N  0.28612131 -1.06013570  0.50448080
  C -0.56434873 -0.39727256 -0.16009598
  C -1.96269852 -0.79761325 -0.23151789
  C -2.99861533  0.12981640 -0.19897140
  C -4.31399147 -0.29285734 -0.24471513
  C -4.60803782 -1.64491785 -0.32207597
  C -3.58361167 -2.57589518 -0.33616229
  C -2.26787947 -2.15670134 -0.28143558
  H  0.51475347  3.83125456  1.53616035
  H -1.27116162  3.88679793 -0.16071942
  H  0.23897966  0.34615041 -1.94577614
  H  2.19811380  1.18627896 -0.89093689
  H  2.09157999 -0.47121316  1.34944170
  H  2.31105584 -2.82537735  0.83739136
  H  3.27888217 -3.35659395 -1.89574063
  H  4.35130063 -3.73349983 -0.53474200
  H  2.79555270 -4.58606851 -0.70616442
  H -2.77800319  1.18323532 -0.11745625
  H -5.11068058  0.43617453 -0.22108328
  H -5.63575635 -1.97135336 -0.36647591
  H -3.80874664 -3.63122817 -0.38762920
  H -1.45399488 -2.86696119 -0.29352964
