42
opt_min/./Product_4904_opt.xyz
  C -2.47942100 -0.95200600 -0.86087900
  C -2.31346736 -2.39677379 -0.52593888
  C -1.25716195 -2.87090290  0.12093937
  N -0.11673972 -2.16370350  0.44861348
  C  0.47868723 -2.53587611  1.71179372
  C  0.06107165 -0.85476118 -0.15689445
  C -1.28082425 -0.10086770 -0.38201906
  C -1.11116852  0.96157817 -1.49542985
  N -0.55242254  0.44947223 -2.63411633
  O -1.44715769  2.11866497 -1.45025779
  N -1.57640407  0.32414908  0.98752522
  C -2.35984564  1.51646288  1.24147924
  O -0.31422717  0.43267398  1.70492834
  C  0.70495721  0.18746286  0.78299956
  C  1.06763795  1.54252853  0.06239237
  O  0.68400651  2.59054823  0.50930562
  N  1.82055638  1.40809270 -1.04671135
  C  2.20276487  2.55168699 -1.84169291
  C  2.02559806 -0.12968186  1.44445823
  O  2.33362920  0.11548214  2.57375194
  O  2.88129507 -0.63811218  0.52234071
  C  4.21885454 -0.88677048  0.94706624
  H -2.62333821 -0.83735278 -1.94145400
  H -3.37269215 -0.56747292 -0.36796484
  H -3.12494713 -3.05140823 -0.79894638
  H -1.20964274 -3.91018628  0.41703814
  H  1.52424618 -2.25845036  1.74895918
  H  0.42368280 -3.62153894  1.80393450
  H -0.03690579 -2.07705575  2.56243522
  H  0.63985192 -0.98822156 -1.07943312
  H -0.47156050 -0.54082358 -2.78512007
  H -0.62116286  1.03578218 -3.45224737
  H -2.19847339  1.76229843  2.28832385
  H -2.08923626  2.37521990  0.62990894
  H -3.40985505  1.26297472  1.09552355
  H  2.18736881  0.50502354 -1.29976245
  H  1.97445726  2.36995786 -2.89202701
  H  3.26879257  2.76304979 -1.73340496
  H  1.62558998  3.40266678 -1.48532734
  H  4.88765444 -0.22653558  0.39424154
  H  4.45260781 -1.92813445  0.72821786
  H  4.30819174 -0.69055603  2.01691775
