46
opt_min/./Product_5234_opt.xyz
  C  0.16146600  2.19829700  1.02221200
  C  0.79171313  1.14223378  0.11052389
  C -0.30958033  0.23121039 -0.46781023
  N -1.39701549  0.93947727 -1.08044791
  C -1.72044251  0.59415126 -2.44970284
  C -1.62717222  2.22657369 -0.68633032
  C -0.98388643  2.86376996  0.30897397
  C -1.42613551  4.22015842  0.65788038
  N -0.85205753  4.77272663  1.76877798
  O -2.22110653  4.85368067 -0.01492854
  N -0.67759301 -0.52679116  0.72615176
  C -1.47049656 -1.66630747  0.69995217
  C -2.65416096 -1.68476622 -0.04146494
  C -3.48416437 -2.78783165 -0.00318535
  C -3.16527741 -3.89037226  0.77349416
  C -2.00556228 -3.86653088  1.52946458
  C -1.16772577 -2.76994600  1.50094676
  O  0.53592794 -0.70331780  1.49023488
  C  1.55861267  0.09174436  0.92287892
  C  2.51539715 -0.69911005  0.05504530
  C  3.61728211 -0.05364772 -0.49392685
  C  4.49966021 -0.74152662 -1.30562509
  C  4.29022290 -2.08554922 -1.57476000
  C  3.19844212 -2.73446509 -1.02487348
  C  2.31395361 -2.04554600 -0.21314218
  H  0.92143241  2.93259025  1.29484422
  H -0.18839551  1.70803203  1.93516673
  H  1.38257954  1.59677311 -0.68399783
  H  0.13980469 -0.43842887 -1.22646550
  H -2.68016874  1.03774809 -2.70411490
  H -0.96658130  0.96564213 -3.15239127
  H -1.79037646 -0.48752506 -2.55486826
  H -2.41759556  2.74226226 -1.21034403
  H -0.43606488  4.19748294  2.47754372
  H -1.20811962  5.66977472  2.05361106
  H -2.94210722 -0.82508454 -0.61955971
  H -4.39367178 -2.78086390 -0.58624738
  H -3.81784611 -4.74848041  0.79851017
  H -1.74704359 -4.71144591  2.15047058
  H -0.26843990 -2.75653139  2.09719285
  H  2.10818696  0.53321642  1.76322339
  H  3.78763031  0.99075441 -0.27583834
  H  5.35091077 -0.22982327 -1.72779388
  H  4.97950491 -2.62419321 -2.20683721
  H  3.03308054 -3.78167757 -1.22605565
  H  1.46308076 -2.55289263  0.21785140
