41
opt_min/./Product_1143_opt.xyz
  F  0.33911600  3.57992600 -2.44716700
  C  0.56230122  3.12208432 -1.21789501
  C  1.50061540  3.41895325 -0.32693397
  F  2.51477815  4.27726769 -0.36869175
  C  1.27109643  2.43393595  0.80950848
  C  1.76735136  1.08314879  0.20231602
  C  0.53981666  0.70104574 -0.65006256
  C -0.26949076  2.01897833 -0.58731434
  O -0.13975224  2.32546220  0.79497939
  C -0.13644418 -0.44519792  0.15890747
  C -1.45808967  0.01453482  0.81158896
  N -1.45556169  0.00855076  2.13986996
  C -2.61887444  0.35218081  2.91866629
  O -2.42450100  0.31065277  0.12534494
  C -0.49442287 -1.64011359 -0.75681895
  O  0.02381688 -2.72428554 -0.58398123
  N -1.37298828 -1.34074537 -1.71918050
  C -1.87130403 -2.33522481 -2.63947031
  N  0.80012478 -0.89014996  1.17638088
  C  2.01751925 -0.10183646  1.14279686
  C  3.24751346 -0.85216201  0.60064694
  O  4.33689057 -0.34518344  0.53029184
  O  2.95256099 -2.08164161  0.20997373
  C  3.98780552 -2.89085506 -0.33360880
  H  1.64500470  2.69583325  1.79320787
  H  2.66398646  1.28389695 -0.38980098
  H  0.79204774  0.36350272 -1.65289780
  H -1.30787740  1.98530752 -0.90059947
  H -0.60292174 -0.25466442  2.61506382
  H -3.20360593 -0.53991200  3.15971037
  H -3.23911980  1.02746069  2.32976688
  H -2.31260059  0.84292227  3.83976545
  H -1.90743316 -0.48567616 -1.60867560
  H -1.77567701 -1.97298118 -3.66419862
  H -2.91956385 -2.56297126 -2.43692549
  H -1.27620914 -3.23840545 -2.51279824
  H  1.02159877 -1.87587149  1.01670141
  H  2.28787341  0.23419638  2.15295437
  H  3.67872949 -3.20090236 -1.33175796
  H  4.10515551 -3.76588404  0.30565183
  H  4.91897237 -2.32261804 -0.37734570
