41
opt_min/./Product_1371_opt.xyz
  C  1.70228900  1.30254800  2.97278500
  O  1.75129530  1.27434166  1.55713536
  C  0.76499729  0.64831523  0.87836410
  C -0.37911973  0.04997145  1.21131560
 Br -1.19971696 -0.21795228  2.89315698
  C -1.09365211 -0.48312788 -0.01558551
  C -1.09364874 -2.02996800  0.02362212
  C -0.77427353 -2.68190260 -1.27866772
  O -1.33415931 -2.62648325  1.04166023
  C -2.51046610  0.05379978 -0.09673842
  C -2.70633442  1.42158491  0.05938630
  C -3.97306116  1.96758138 -0.02960537
  C -5.06256915  1.15014260 -0.27846576
  C -4.87486368 -0.21250015 -0.43580069
  C -3.60721003 -0.75954788 -0.34758891
  N -0.27506274 -0.00485688 -1.12681725
  C  0.95010723  0.60146443 -0.63314700
  C  2.14185249 -0.32437726 -0.99601508
  N  3.31076911  0.05216504 -0.45402011
  C  4.54003128 -0.66744096 -0.68479069
  O  2.01633788 -1.27231463 -1.74069357
  C  1.19324367  1.99120877 -1.23283779
  H  2.61470983  1.80789736  3.28362412
  H  0.83880058  1.85746861  3.33837760
  H  1.68414616  0.29221236  3.38494896
  H  0.21994967 -2.36612087 -1.59240800
  H -0.82177355 -3.76221505 -1.17885105
  H -1.46486784 -2.34095641 -2.04486527
  H -1.85903404  2.06407912  0.26605008
  H -4.10834360  3.03007732  0.10229867
  H -6.05296189  1.57281413 -0.34512724
  H -5.72057317 -0.85692382 -0.62574147
  H -3.47945646 -1.82473020 -0.46148269
  H -0.78104043  0.59635686 -1.76104224
  H  3.31609537  0.80073078  0.22113153
  H  5.27106662 -0.02895796 -1.18379837
  H  4.30832601 -1.51507607 -1.32478243
  H  4.96066213 -1.02353416  0.25554917
  H  1.37902412  1.89860570 -2.29841481
  H  2.04670683  2.47021696 -0.76287608
  H  0.31874552  2.61879793 -1.07863741
