51
opt_min/./Product_5730_opt.xyz
  C -0.91152100 -0.92619300  0.86312200
  O -0.69990042 -1.69149290  1.78169686
  C -0.25877917  0.42984493  0.79727748
  O  0.26555308  0.86809656  2.02578817
  C -0.56501202  0.87156078  3.17398586
  C -1.02407157  1.53193608  0.00866611
  O -1.29317464  2.66332262  0.79906837
  C -2.61443825  2.84512919  1.26864551
  C -2.20868127  1.06161004 -0.82170479
  O -2.94146990  1.88233412 -1.33413192
  C -2.38545838 -0.38543587 -1.04450805
  C -3.31380519 -0.75548405 -2.15163511
  C -1.76556521 -1.30711714 -0.27854836
  C -1.97313767 -2.77307593 -0.46587496
  C  0.09245415  1.95578136 -1.08807014
  C -0.13124727  3.30657348 -1.71329128
  C  0.02706252  0.76347514 -2.03209739
  O -0.48233914  0.65718691 -3.10635690
  O  0.63918067 -0.23746648 -1.38099127
  C  1.07629817  0.29469081 -0.12029225
  C  2.08962584 -0.61303507  0.50478578
  C  2.13597743 -1.93564777  0.07225775
  C  3.00604326 -2.83495708  0.65868693
  C  3.83359629 -2.42993180  1.69243802
  C  3.78155561 -1.12028552  2.13395046
  C  2.91363617 -0.21422389  1.54958237
  N  1.36425116  1.65392157 -0.47559899
  C  2.01229220  2.62011984  0.37876267
  H  0.12632880  0.97569821  4.00777361
  H -1.25084211  1.71981631  3.16920733
  H -1.11662908 -0.06124214  3.28798280
  H -2.53415427  3.58723068  2.06158483
  H -3.26684766  3.23109363  0.48207391
  H -3.04088336  1.91868232  1.66748810
  H -4.09879157 -1.41957186 -1.79511394
  H -3.75919890  0.14509512 -2.56437990
  H -2.76281773 -1.26418649 -2.94037175
  H -1.18496629 -3.32392736  0.04010103
  H -2.92578146 -3.07214766 -0.02884991
  H -1.98984898 -3.02766868 -1.52204121
  H  0.62717456  3.49271384 -2.46849932
  H -1.10906266  3.30408182 -2.18959825
  H -0.11437987  4.08784058 -0.95849115
  H  1.49508162 -2.24994386 -0.73570133
  H  3.03070067 -3.85666745  0.31088790
  H  4.50805815 -3.13531947  2.15428931
  H  4.41610317 -0.79970418  2.94677994
  H  2.86351720  0.79005823  1.92991995
  H  1.60794778  2.63141188  1.39291846
  H  1.86407881  3.59793723 -0.06926941
  H  3.07922987  2.40618946  0.39461386
