40
opt_min/./Product_850_opt.xyz
  C -3.52170434  0.02832086  0.92723271
  C -2.39526525 -0.64427690  0.18961793
  O -2.56236270 -1.65191359 -0.44369967
  C -1.01347140  0.00243969  0.31430165
  C  0.11676249 -0.86899141 -0.30015593
  C -0.36687861 -2.07842743 -1.14931903
  C -0.86994491 -1.77440290 -2.54087495
  O -0.17542550 -3.20093425 -0.76771575
  C  0.78059102 -1.42220046  1.01350940
  C  1.58473788 -0.32330528  1.66497143
  C  0.68267368  0.51461289  2.16126107
  C -0.65566009 -0.11414474  1.84511963
  O -0.34417549 -1.49493410  1.88055974
  C  0.89200164  0.12060795 -1.20359223
  C  2.22974792  0.64451106 -0.67813441
  O  3.16857590 -0.27902425 -0.89147172
  C  4.51246426  0.04186571 -0.54169693
  O  2.43088188  1.74456885 -0.24252604
  O  0.02283913  1.19348395 -1.47565374
  C -0.95235793  1.35416426 -0.44601897
  C -0.65599230  2.60070983  0.39007918
  C -2.21666729  1.58934701 -1.14730165
  N -3.18574678  1.82275199 -1.70343416
  H -3.29166323  1.04380981  1.23338028
  H -3.75547883 -0.57840342  1.80287543
  H -4.40489159  0.02883942  0.29121964
  H -1.19276463 -0.74553273 -2.66407217
  H -1.70086684 -2.44256483 -2.75392503
  H -0.07567999 -2.00111709 -3.25260774
  H  1.24741636 -2.39491918  0.89196020
  H  2.65297082 -0.28766282  1.73407620
  H  0.81506075  1.41815117  2.72136874
  H -1.46944819  0.12661982  2.52228767
  H  1.13426527 -0.34451280 -2.16707422
  H  4.89209246 -0.75947831  0.09170407
  H  5.10489126  0.10203692 -1.45501519
  H  4.54707442  0.99942677 -0.01905858
  H -0.70707913  3.46753618 -0.26800667
  H -1.38181986  2.71741631  1.19132913
  H  0.35301326  2.54611701  0.78872897
