48
opt_min/./Product_971_opt.xyz
  C -3.14254500 -0.47032200 -0.70034700
  C -1.64822307 -0.48301866 -0.62792929
  C -0.80414836  0.17995493  0.17222522
  C -1.01395873  1.20521775  1.22879072
  O -0.09178506  1.75687112  1.79757374
  N -2.30186166  1.42467012  1.59277010
  C -2.60296786  2.37339182  2.64431915
  C  0.63367775 -0.19077736 -0.15263867
  C  1.39383103  1.06755743 -0.54539769
  C  1.02333427  1.72202538 -1.71593326
  C  1.67749902  2.87190127 -2.11698704
  C  2.70512133  3.38939026 -1.34697009
  C  3.06109183  2.75651013 -0.16914866
  C  2.40767344  1.60472210  0.23228855
  C  1.31369178 -0.96961594  0.96093258
  C  2.60831085 -1.43030498  0.73907279
  C  3.25523311 -2.20433020  1.68395603
  C  2.61357286 -2.54098820  2.86471293
  C  1.31912005 -2.10336454  3.08162091
  C  0.67061594 -1.33026806  2.13380266
  N  0.50961171 -1.12661398 -1.27572834
  C -0.89124436 -1.39514651 -1.57998077
  C -1.25357596 -1.07264099 -3.04681567
  C -1.18326603 -2.87340634 -1.21575622
  H -3.57969879 -0.80302310  0.24156448
  H -3.48316631 -1.14758314 -1.47643323
  H -3.51482404  0.52937384 -0.92594145
  H -3.05806296  0.93046095  1.16246088
  H -3.67783499  2.44905458  2.77578528
  H -2.13610957  2.05561282  3.57894114
  H -2.18795791  3.35005695  2.39261440
  H  0.20918919  1.33798520 -2.31313953
  H  1.37858313  3.36976252 -3.02933985
  H  3.21602209  4.28837847 -1.65848722
  H  3.84827162  3.16277075  0.44734389
  H  2.67538720  1.13354089  1.16504685
  H  3.10808589 -1.17504724 -0.18192055
  H  4.26201312 -2.54710087  1.49846800
  H  3.11789034 -3.14273284  3.60501356
  H  0.80472354 -2.36821443  3.99418675
  H -0.34147953 -1.00635885  2.32586330
  H  1.05229286 -0.84229602 -2.07863994
  H -1.78567649 -1.89052486 -3.52090111
  H -0.35087848 -0.88438862 -3.62177990
  H -1.87430318 -0.18186283 -3.10931160
  H -1.55356727 -3.44256841 -2.06303696
  H -0.25789985 -3.32248111 -0.87094013
  H -1.90916800 -2.94245102 -0.41082403
