40
opt_min/./Product_1357_opt.xyz
  F  0.26136900  0.43378800  1.70747400
  C  0.54731514  0.38412051  0.36649829
  C  1.52644067 -0.76800573  0.02189342
 Br  1.69290032 -2.05177407  1.48884956
  C  2.83031416 -0.02408463 -0.28864195
  C  3.31607165  0.71808592  0.96617745
  C  2.35899142  1.92321143  1.07108523
  C  1.34444391  1.64336482 -0.04379726
  C  2.28010873  1.12642715 -1.13820803
  C  0.92716557 -1.46635897 -1.20449390
  N -0.36239500 -0.86273506 -1.48715218
  C -0.63310231 -0.60332841 -2.87948441
  C -0.74410303  0.05695302 -0.44098217
  C -1.71074832 -0.68994348  0.53876532
  O -2.39945505 -0.15356305  1.35757156
  O -1.63954022 -1.99244922  0.33048479
  C -2.41781120 -2.83219397  1.17555010
  C -1.51009328  1.32267476 -0.82936341
  O -1.98387157  1.57708713 -1.90490894
  O -1.60806674  2.10721794  0.23395272
  C -2.40936577  3.27682595  0.13270752
  H  3.58484955 -0.66141220 -0.74705925
  H  3.25960840  0.08238909  1.84873116
  H  4.35253588  1.03338002  0.85180342
  H  2.87768782  2.85794451  0.85532576
  H  1.89690120  2.01237499  2.05187503
  H  0.71723875  2.49099496 -0.30357883
  H  1.77115873  0.81895667 -2.04762609
  H  3.04668914  1.85430778 -1.39318851
  H  1.59968384 -1.36740553 -2.06532322
  H  0.78610623 -2.53860030 -1.02100899
  H -0.37324305 -1.50510482 -3.43264982
  H -1.69247225 -0.40963015 -3.01479634
  H -0.07082726  0.24547974 -3.29426365
  H -3.33771811 -3.11013654  0.65902181
  H -1.81812127 -3.71728827  1.37909462
  H -2.65872269 -2.31061201  2.10354286
  H -3.08704636  3.19513138 -0.71887944
  H -2.96414290  3.35618294  1.06479605
  H -1.76213517  4.14699578  0.00622361
