41
opt_min/./Product_3768_opt.xyz
  C  0.08061900 -0.41781100 -2.03163600
  C -0.32057073 -0.92532005 -0.63860930
  C -0.48171619 -2.44245950 -0.79282855
  C -1.63500442 -0.21452311 -0.15446251
  C -2.59246745  0.18439417 -1.27618538
  C -2.41353878 -1.07292075  0.86453632
  C -1.02820932  1.01609650  0.55112781
  C -1.97420019  1.92987096  1.31261769
  N -0.04707440  0.33482453  1.37845381
  C  0.64577326  1.13248120  2.36575022
  C  0.72847871 -0.49013628  0.46193675
  C  1.37637693 -1.63926005  1.25023077
  C  1.90921846  0.27609611 -0.16130637
  O  2.17833928  1.43257524  0.03255169
  O  2.68278149 -0.53941572 -0.89584566
  C  3.86376317  0.00542549 -1.46869627
  H  1.00589940 -0.88953875 -2.35124713
  H -0.68705448 -0.67845200 -2.75467665
  H  0.22385931  0.66118220 -2.05008852
  H  0.33763229 -2.84153552 -1.38649230
  H -0.49998942 -2.97605088  0.14948534
  H -1.41115786 -2.64657916 -1.31973112
  H -3.51115169  0.57013067 -0.83998549
  H -2.84817565 -0.67498833 -1.89247918
  H -2.17179429  0.96043987 -1.91008020
  H -1.86922168 -1.95872530  1.16056103
  H -3.36805945 -1.38551177  0.44962634
  H -2.60629574 -0.51036545  1.77059051
  H -0.52127352  1.64261866 -0.20863565
  H -2.47306625  1.41685376  2.12956210
  H -2.72513760  2.31933127  0.63005302
  H -1.42179676  2.76959188  1.72486865
  H -0.01375556  1.25850943  3.22691914
  H  1.54043204  0.61372471  2.69961804
  H  0.94344249  2.11919447  1.99484832
  H  1.72342060 -2.42111196  0.58283180
  H  2.23520665 -1.27237603  1.80890021
  H  0.65924595 -2.04201102  1.96063653
  H  3.77648592 -0.04087876 -2.55533398
  H  3.98584919  1.04114068 -1.14649358
  H  4.71002752 -0.59732423 -1.13912128
