49
opt_min/./Product_2015_opt.xyz
  C  5.94820900 -1.31146700  0.99749400
  O  4.56046726 -1.43714104  0.70397664
  C  4.21664574 -1.73854086 -0.55774839
  O  4.99668085 -1.89069438 -1.45964003
  C  2.74711165 -1.79283895 -0.68356418
  C  1.94783638 -1.64938106 -1.74333245
  C  2.18407926 -1.30841062 -3.17166095
  F  2.10458538 -2.39207335 -3.96375662
  F  1.22490306 -0.46441405 -3.61337051
  F  3.34855642 -0.71658352 -3.42155722
  C  0.53317170 -1.74930833 -1.18812470
  C  0.32496864 -0.37078110 -0.48037132
  C  1.22000459 -0.55378207  0.75829379
  C  1.79053985 -1.98219083  0.48946054
  O  0.70129212 -2.63983882 -0.11269724
  C  0.25636244 -0.44817936  1.96597950
  C  0.44763753  0.92292483  2.63577984
  C  0.40521281 -1.56127149  2.99888493
  O -1.06602976 -0.55631172  1.43653866
  C -1.08308307 -0.15403511  0.08887710
  C -1.49263143  1.33409925 -0.05417458
  N -2.32644184  1.73374665  0.91023390
  C -2.88981873  3.05725018  0.97735345
  O -1.12819071  2.00704770 -1.00165109
  C -2.19684384 -0.90524962 -0.67364012
  O -2.98646215 -1.63766260 -0.13017984
  N -2.24961371 -0.55437480 -1.97685984
  C -3.23610380 -1.09871734 -2.87883756
  H  6.53848392 -1.57974721  0.11946468
  H  6.17625446 -1.97871230  1.82803589
  H  6.14425848 -0.27694107  1.28289577
  H -0.24472670 -2.07915662 -1.86711475
  H  0.58202837  0.46596013 -1.12975957
  H  2.03587028  0.16186568  0.84525558
  H  2.17625677 -2.52182812  1.34513744
  H  1.41675675  0.96472664  3.12683181
  H -0.33782346  1.07619114  3.37334574
  H  0.38463534  1.71498631  1.89122746
  H -0.26450578 -1.36860466  3.83318299
  H  1.42725823 -1.60954513  3.36856139
  H  0.12752346 -2.51284843  2.55182193
  H -2.55268911  1.04793977  1.61904418
  H -3.94088659  3.00064906  1.25764373
  H -2.79371194  3.51696134 -0.00729394
  H -2.35414858  3.67319170  1.70556281
  H -1.62265040  0.15546068 -2.32915434
  H -3.69710113 -0.29681016 -3.45380313
  H -3.98809970 -1.61625360 -2.28290688
  H -2.78195905 -1.81596181 -3.56937243
