43
opt_min/./Product_5261_opt.xyz
  C -1.81776300  1.02156600  0.31694100
  O -2.29624065  2.06699056  0.70327984
  C -0.46150455  0.95024431 -0.34135946
  O  0.33677018  2.08253046 -0.03547974
  C  0.10126174  3.24868951 -0.80368962
  C  0.39005181 -0.29680172  0.04008016
  O  1.10592017 -0.21063350  1.23095730
  C  0.35581533  0.07047454  2.39288338
  C -0.48153927 -1.57267119 -0.00256467
  O  0.02357797 -2.63434575 -0.28853282
  C -1.91157935 -1.45649254  0.32666524
  C -2.64975135 -2.74715118  0.47722704
  C -2.53858680 -0.26433445  0.44471358
  C -3.99264628 -0.16286228  0.75817682
  C  1.31683808 -0.36933419 -1.22161999
  C  1.96695036 -1.74539829 -1.49863067
  C  2.86571709 -2.25170017 -0.40820640
  O  1.81273123 -2.28900134 -2.55517313
  C  2.40461222  0.71690222 -1.16454768
  O  2.50746949  1.58769742 -1.98505394
  O  3.20715664  0.56138095 -0.12447420
  C  4.19965808  1.56559861  0.04211238
  N  0.42374154  0.00411691 -2.29702170
  C -0.52448767  0.69078759 -1.85146756
  H  0.39239517  3.09603118 -1.84707400
  H -0.94224624  3.56345290 -0.73942097
  H  0.74026596  4.00877703 -0.36004958
  H -0.38753356 -0.70915987  2.59526247
  H  1.08319121  0.09759183  3.20084016
  H -0.14163576  1.04084109  2.31763753
  H -1.95900207 -3.57908712  0.37119633
  H -3.42098838 -2.82920739 -0.28784462
  H -3.14009093 -2.80190746  1.44822843
  H -4.58368012 -0.53610019 -0.07798522
  H -4.25281391  0.87682329  0.94193306
  H -4.24529533 -0.76001993  1.63235870
  H  2.82595469 -3.33729577 -0.39973731
  H  3.88436812 -1.94714204 -0.64414235
  H  2.59380620 -1.84450638  0.55880561
  H  4.83145145  1.23106216  0.85974001
  H  3.72698479  2.51868490  0.28579012
  H  4.77808434  1.68306751 -0.87682154
  H -1.29021878  1.08981977 -2.49472696
