59
opt_min/./Product_2431_opt.xyz
  C -1.15084751  0.43125791  3.34800006
  C -0.39712363 -0.71025702  2.70258931
  O  0.28833712 -1.43191765  3.37866759
  C -0.69174491 -1.00563550  1.23230259
  C  0.29129801 -2.01666583  0.53039404
  C  1.47141610 -2.39806854  1.28615614
  N  2.33280687 -2.85478252  1.88323396
  C -0.55258325 -3.32682717  0.43028393
  C -1.65843120 -3.22038546 -0.62085134
  C -2.62699995 -2.20014609 -0.00248068
  C -1.98556697 -1.87517603  1.35382163
  C -1.37679919 -3.23459095  1.71370692
  C  0.61759499 -1.33710226 -0.82057978
  C  0.72921253 -2.30156480 -2.00986969
  C  0.21879783 -1.76241135 -3.32136365
  O  1.26843202 -3.37009721 -1.89396902
  C  2.03057226 -0.67264986 -0.90090600
  O  2.99799912 -1.06813703 -0.29907106
  N  2.05515795  0.31461027 -1.81622942
  C  3.26556530  1.06231737 -2.06653268
  O -0.38745295 -0.35889897 -1.01481950
  C -0.67994168  0.21794889  0.26443018
  C -2.02087748  0.97192781  0.05857458
  N -2.26749532  1.96231425  0.94282784
  C -3.43098952  2.80969846  0.82040219
  O -2.78626293  0.70101791 -0.83869555
  C  0.41756351  1.23811524  0.56821809
  C  0.40213800  2.42759911 -0.16450014
  C  1.38346303  3.38480769  0.00435807
  C  2.41763967  3.16502609  0.90076116
  C  2.47004983  1.97121139  1.59585800
  C  1.48427335  1.00998723  1.42767360
  H -2.11202332  0.61035033  2.88140671
  H -1.29020778  0.18585714  4.39922298
  H -0.53881963  1.33081962  3.30333783
  H  0.08085004 -4.20310847  0.30953734
  H -1.30670966 -2.90571246 -1.59890229
  H -2.12503631 -4.19894286 -0.73920902
  H -2.76011403 -1.33404269 -0.64076482
  H -3.61009847 -2.63814613  0.17346892
  H -2.69692180 -1.45889596  2.06731799
  H -2.12852267 -4.01895313  1.78253293
  H -0.77290612 -3.23868563  2.61834404
  H  1.02002412 -1.20121433 -3.79918659
  H -0.63312928 -1.10535877 -3.16872617
  H -0.04443410 -2.59290318 -3.97211177
  H  1.17619577  0.66094082 -2.16959387
  H  3.10100966  1.74215376 -2.89745760
  H  3.56661298  1.62789416 -1.18202880
  H  4.06805546  0.36548918 -2.31057256
  H -1.52577075  2.28799429  1.54211301
  H -3.87537647  2.96698835  1.80270879
  H -4.14358929  2.30664739  0.16968968
  H -3.17162641  3.77697959  0.38439310
  H -0.38569621  2.59539606 -0.88630279
  H  1.34431033  4.29882012 -0.56895486
  H  3.18551531  3.91086656  1.03954180
  H  3.28765536  1.76644431  2.26902735
  H  1.59519439  0.08281570  1.96394242
