38
opt_min/./Product_956_opt.xyz
  C  5.94161800 -1.71342100 -0.03897900
  O  4.57957720 -1.77687427 -0.44616159
  C  3.89545015 -0.62977915 -0.38892426
  O  4.35025832  0.42728100 -0.03931800
  C  2.50247560 -0.83521028 -0.82521664
  C  1.86080404 -1.95314832 -1.19111721
  F  2.26947738 -3.20672217 -1.21983110
  C  0.42732070 -1.54746383 -1.48301081
  C -0.17987701 -1.30897529 -0.05222941
  C  0.48580192  0.04079714  0.30295601
  C  1.42668050  0.23592844 -0.92820096
  O  0.60695537 -0.24361265 -1.97783466
  N -0.61326198  0.97256429  0.27372055
  C -0.45218574  2.30633655  0.55893507
  N -1.52151117  3.08362987  0.24230911
  C -1.51987365  4.49683919  0.54262173
  O  0.57032234  2.71087290  1.07019099
  N -1.80939566  0.36555891 -0.25178020
  N -1.58061980 -1.02041689 -0.04163504
  C -2.54144410 -1.93236455  0.25434266
  O -2.31292822 -3.10314028  0.41502623
  O -3.74978356 -1.33232769  0.34948056
  C -4.84700110 -2.20277254  0.60142797
  H  6.00464856 -1.62277429  1.04625659
  H  6.43605093 -0.85603423 -0.49826736
  H  6.39868029 -2.64291272 -0.36631355
  H -0.16210852 -2.16788140 -2.15197254
  H  0.04442418 -2.13233365  0.62411569
  H  1.00407054  0.07615993  1.26067048
  H  1.75797224  1.25570117 -1.08967838
  H -2.26456553  2.71488182 -0.32585137
  H -2.15070833  4.72140481  1.40635874
  H -1.87700150  5.06260620 -0.31655536
  H -0.49632419  4.78195985  0.77494978
  H -2.60180876  0.62972662  0.34882022
  H -4.53665871 -3.05113576  1.20986949
  H -5.59728511 -1.61256309  1.12154575
  H -5.24497522 -2.57039569 -0.34629944
