47
opt_min/./Product_4646_opt.xyz
  C -2.42226400 -1.10545800 -0.53798400
  C -2.13197671  0.34822632 -0.13513079
  C -3.37096135  1.15233686 -0.53936429
  C -0.82133642  0.85477885 -0.82769680
  C -0.64420970  0.27600400 -2.23091273
  C -0.80231911  2.38294811 -0.98519185
  C  0.26187602  0.43166288  0.21337147
  C  1.50200516  1.32753483  0.32504534
  O  2.03802705  1.63805549 -0.86589415
  C  3.27587765  2.33600194 -0.81570226
  O  1.99878324  1.64834025  1.36764905
  C  0.91812677 -0.94148741  0.02297803
  C  1.70826022 -1.23040054 -1.08705781
  C  2.31243858 -2.46777104 -1.21526240
  C  2.15735995 -3.43160038 -0.23344656
  C  1.41116753 -3.13634484  0.89319518
  C  0.80831472 -1.89757867  1.02387704
  O -0.37386893  0.50857624  1.47201740
  C -1.80171573  0.46317352  1.38977185
  C -2.28879151 -0.71111472  2.25323771
  C -2.33079330  1.73723508  2.07138235
  H -2.68908001 -1.15502649 -1.58996459
  H -3.26603172 -1.48918485  0.02807868
  H -1.56350770 -1.75168477 -0.37228170
  H -3.50591734  1.09892326 -1.61808937
  H -3.31428164  2.19574904 -0.25382835
  H -4.25219565  0.71615241 -0.07368857
  H  0.18761022  0.76866390 -2.72846500
  H -0.45819939 -0.79252165 -2.22763647
  H -1.54089623  0.47359704 -2.81442820
  H -0.85829331  2.88751444 -0.02499906
  H  0.12003753  2.68963636 -1.46894075
  H -1.62649945  2.71227809 -1.61095579
  H  3.62178814  2.41125996 -1.84417102
  H  3.99398258  1.78481803 -0.20635884
  H  3.13512441  3.32861142 -0.38446753
  H  1.86198791 -0.48799199 -1.85269245
  H  2.91674516 -2.67817204 -2.08600524
  H  2.62952125 -4.39729484 -0.33798233
  H  1.30350488 -3.86749927  1.68079005
  H  0.25891533 -1.65791902  1.91914628
  H -1.98225288 -1.67338465  1.86001136
  H -3.37239196 -0.68854962  2.34006247
  H -1.85810554 -0.59608150  3.24462767
  H -3.41064964  1.81110785  1.99429683
  H -1.87453198  2.62799620  1.65286857
  H -2.06002000  1.69756983  3.12294226
