27
opt_min/./Product_3439_opt.xyz
  C  0.04345025 -1.61369506  0.62047884
  C -0.13320176 -0.75814681 -0.63904916
  C -1.57799894 -0.26083857 -0.86908864
  C -2.71109930 -1.16827974 -0.42402184
  C -1.54623880  1.13352495 -0.16319088
  C -2.40185533  2.08494361 -0.84512739
  N -3.12244951  2.76690655 -1.40967714
  C -1.98083428  1.06224912  1.22246718
  N -2.31956492  0.98799004  2.31064650
  N -0.14397547  1.55159631 -0.17572346
  C  0.59047984  0.55620678 -0.43605563
  C  2.08933332  0.63711481 -0.40731473
  N  2.65351215  0.26535147 -1.57713401
  C  4.08573870  0.25355421 -1.76854902
  O  2.71048917  0.95098441  0.57952318
  H  1.10426082 -1.75847551  0.82227551
  H -0.41674660 -2.59072674  0.48781164
  H -0.40063832 -1.12469549  1.48411206
  H  0.24634260 -1.31240009 -1.50337954
  H -1.69570195 -0.05789326 -1.94332115
  H -2.65684572 -2.11278577 -0.96533994
  H -3.66928251 -0.70211570 -0.64695046
  H -2.67280845 -1.37103070  0.64368686
  H  2.07479871  0.09395985 -2.38474506
  H  4.40474505 -0.71141394 -2.16575625
  H  4.54105736  0.42118223 -0.79442741
  H  4.39270431  1.04529429 -2.45473152
