36
opt_min/./Product_4614_opt.xyz
  O -2.16640700 -0.91284200  2.80768200
  C -1.58234618  0.04584643  2.58218865
  O -1.04096820  1.02379428  2.34750910
  C -1.25339036 -1.22018351 -0.13181223
  C  0.03788190 -1.25262142  0.15638113
  C  1.41383985 -1.45926404  3.75678038
  O  0.56523872 -0.83282446  4.20157210
  O  2.24106465 -2.12083069  3.32457708
  C  0.73431359 -0.05039294 -0.40589916
  C  1.32226725  0.80416766  0.73602153
  C  1.43814613  2.26615664  0.45578913
  O  1.69671990  0.28262533  1.76048292
  C  1.99938970 -0.34791764 -1.24780516
  C  2.80421791 -1.52703564 -0.79311602
  O  2.30454275  0.37234916 -2.15816640
  N -0.27660777  0.57823133 -1.23554775
  C -1.56528900 -0.06553352 -1.04601069
  C -2.58120258  0.89779033 -0.41360097
  C -3.91980483  0.32460368 -0.03672998
  O -2.29121189  2.05309503 -0.22894575
  C -2.08846312 -0.53597140 -2.41629736
  H -2.00263807 -1.92651245  0.17209129
  H  0.54449706 -1.94995562  0.79712039
  H  2.30461504  2.66669015  0.97712661
  H  1.51250457  2.46233342 -0.61019173
  H  0.54826878  2.75289903  0.85875668
  H  2.24867481 -2.44376708 -0.98294506
  H  2.98963573 -1.45516377  0.27741654
  H  3.74738723 -1.56037970 -1.33337202
  H -0.33597339  1.58480226 -1.15921006
  H -4.66153493  1.11920177 -0.00179007
  H -3.84494843 -0.11037389  0.95880017
  H -4.23699461 -0.45350665 -0.72297676
  H -2.29004743  0.32493068 -3.04810254
  H -1.31863225 -1.13694765 -2.89347609
  H -2.99123906 -1.13168975 -2.31834249
