47
opt_min/./Product_5084_opt.xyz
  C  4.62301604 -0.79271572  0.24159442
  C  3.58512630 -1.16658951 -0.76770255
  C  4.14025239 -1.74655503 -2.03978616
  C  2.27298345 -1.00610670 -0.63176340
  C  1.54424092 -0.42248469  0.54112517
  C  0.61542573  0.74715120  0.12828278
  C  0.69891332  1.88268282  1.11003098
  C  0.37610964  1.57922496  2.54769006
  C  1.10502455  3.08303929  0.72735244
  C -0.79128893  0.06080561  0.05184303
  C -1.95268363  0.89739955  0.62376584
  N -2.87570224  0.14097379  1.23706917
  C -4.07471391  0.71356363  1.80131129
  O -2.03075538  2.09887559  0.49422723
  C -1.19342770 -0.18770112 -1.39393223
  C -1.39434720 -1.47068976 -1.88172556
  C -1.73207477 -1.66346964 -3.21071623
  C -1.87817679 -0.57911970 -4.05680276
  C -1.69070830  0.70389118 -3.56830307
  C -1.34893777  0.90145089 -2.24381094
  N -0.68293004 -1.18349854  0.76611743
  C  0.53165702 -1.43241027  1.03658420
  C  0.95798700 -2.58896550  1.72080473
  N  1.37077712 -3.51106232  2.26276108
  H  5.40548519 -0.20630921 -0.23853271
  H  5.08485588 -1.69530587  0.64287124
  H  4.22252306 -0.21726464  1.07032670
  H  3.43464591 -2.43411610 -2.49884831
  H  4.34507688 -0.94854261 -2.75375095
  H  5.07199867 -2.27199511 -1.84702874
  H  1.62111031 -1.31888023 -1.43789210
  H  2.23140357 -0.13929232  1.33846633
  H  0.89380837  1.11392680 -0.86175819
  H -0.29624939  0.72910049  2.63861777
  H -0.09426938  2.44063869  3.01418339
  H  1.28629990  1.35102530  3.10404670
  H  1.35606404  3.30379906 -0.29534423
  H  1.18476575  3.89866266  1.42531010
  H -2.70274515 -0.84941515  1.31953276
  H -4.53292124  0.00107092  2.48140437
  H -4.78594961  0.97251883  1.01268213
  H -3.82272695  1.62847387  2.33968828
  H -1.28554105 -2.32093898 -1.22352796
  H -1.87920385 -2.66692231 -3.58265660
  H -2.14110390 -0.73255035 -5.09303510
  H -1.81249948  1.55449041 -4.22148314
  H -1.21804844  1.89962938 -1.85447067
