49
opt_min/./Product_1761_opt.xyz
  C -1.34443662 -2.33405107  1.47951224
  O -1.45097139 -1.26717221  0.55678159
  C -0.46103885 -0.25681284  0.55874421
  C -0.31195151  0.31923689  1.88626493
  N -0.28608582  0.74335957  2.94734226
  C  0.95344489 -0.62802731 -0.04430230
  O  0.69084673 -1.72966741 -0.84494776
  C  1.76840285 -2.33138814 -1.55388422
  O  1.99524556 -0.86632373  0.85854707
  C  1.95998301 -2.02743630  1.66974826
  C  1.37680964  0.71983242 -0.76802535
  C  2.36866950  1.53730010  0.11564536
  N  3.38794413  2.10014931 -0.54972523
  C  4.31950540  2.99309279  0.09988589
  O  2.13342699  1.72802436  1.28635772
  C  1.91922449  0.48057468 -2.08998609
  N  2.40641890  0.37972004 -3.12171212
  N  0.18999478  1.55144676 -0.89840702
  C -0.96991508  0.83216108 -0.44447219
  C -1.53792078  0.10523405 -1.70816378
  O -0.80779951 -0.16433581 -2.62936534
  N -2.85682050 -0.14624127 -1.69484973
  C -3.51053350 -0.82843989 -2.78640959
  C -1.96794993  1.80376749  0.18915830
  O -1.91964886  2.99365692 -0.02680222
  N -2.88767453  1.22085057  0.98830678
  C -3.87989432  1.98841747  1.70415911
  H -2.35221994 -2.74082636  1.56830259
  H -0.67854200 -3.11268873  1.10150634
  H -1.00291334 -1.99235834  2.46051079
  H  2.73164560 -1.95427910 -1.20744862
  H  1.64969956 -2.12788401 -2.61776871
  H  1.70903840 -3.40700479 -1.37316787
  H  1.46106797 -2.85658285  1.16601837
  H  3.00181207 -2.28690962  1.85333595
  H  1.46515530 -1.81203849  2.62096208
  H  3.50273623  1.93488975 -1.53833625
  H  4.44501179  3.89577503 -0.49698284
  H  5.28971519  2.50955177  0.23403665
  H  3.91004442  3.24931755  1.07573613
  H  0.26244551  2.45381274 -0.43590631
  H -3.42185618  0.11705169 -0.90461751
  H -2.76993629 -0.98035161 -3.56929465
  H -3.89568727 -1.79677610 -2.45990974
  H -4.33203183 -0.22380782 -3.17361018
  H -2.83463073  0.22804931  1.16798778
  H -3.70529927  1.93077856  2.77995198
  H -3.78872180  3.02393416  1.38015303
  H -4.88180583  1.61975848  1.47900074
