43
opt_min/./Product_2811_opt.xyz
  N  1.72834708  3.06667695 -0.30481400
  C  1.45459166  2.06852312  0.17841523
  C  0.99246081  0.82697809  0.80117855
  C  0.17363016  1.39750497  1.98054375
  F  1.01280845  1.97899275  2.85793234
  F -0.66081863  2.37844470  1.60851912
  F -0.52925407  0.51090374  2.67260172
  C  0.21843018  0.08680823 -0.25656468
  C  0.67929067 -0.69234788 -1.28218449
  C  1.96914058 -1.36762698 -1.64202630
 Br  1.70860709 -3.21506732 -0.88818496
 Br  1.95679343 -1.66950914 -3.64156131
  C  3.40977140 -0.92004673 -1.32388925
  C  3.68863041  0.38922735 -0.59466087
  C  3.51072748  0.34070666  0.91916961
  C  2.12100441 -0.05704639  1.39277082
  N -0.38424023 -1.12647855 -2.02377541
  N -1.57073076 -0.45259435 -1.64133604
  C -1.30222872 -0.06830453 -0.25909167
  C -2.22677283  1.10354696  0.10301130
  O -2.15962233  2.04258443 -0.82113209
  C -2.95109580  3.21275494 -0.63851097
  O -2.92449222  1.11110773  1.07953944
  C -1.64555944 -1.26552542  0.68506206
  O -0.87086872 -1.77843505  1.44262151
  O -2.86762180 -1.70619092  0.41508600
  C -3.34009916 -2.79433106  1.20408340
  H  3.92903233 -0.83199829 -2.27983437
  H  3.91365248 -1.72303292 -0.78035696
  H  4.74572030  0.60453759 -0.77253451
  H  3.12424762  1.19836200 -1.05165442
  H  4.22355880 -0.37692133  1.33215657
  H  3.75671234  1.32452210  1.32547938
  H  2.10337937  0.02448297  2.48108616
  H  1.89487360 -1.09870370  1.16403615
  H -0.37295815 -1.68635166 -2.85580604
  H -2.38245529 -1.06924426 -1.68667389
  H -2.28572538  4.07154444 -0.71568553
  H -3.43061854  3.19034715  0.34087106
  H -3.70288568  3.24741299 -1.42711606
  H -3.18399880 -2.57986280  2.26144700
  H -4.39834047 -2.89246851  0.97808058
  H -2.80359465 -3.70849628  0.94030562
