41
opt_min/./Product_599_opt.xyz
  F  0.49023400  1.36004200 -2.02769200
  C -0.01571540  1.00572190 -0.79492351
  C -1.54163157  0.80547608 -0.78796909
  C -1.97533596  2.00050747  0.10788697
  C -1.66572146  3.24953296 -0.69463094
  C -0.35081690  3.39500171 -0.62759286
  C  0.12618742  2.21225288  0.19666113
  O -0.94705398  2.00484179  1.08649823
  C -1.73167250 -0.58791721 -0.14709453
  C -2.22766628 -1.59529559 -1.19924263
  C -1.85195484 -3.02962032 -0.95045229
  O -2.93166865 -1.24411056 -2.11226436
  C -2.76795988 -0.65230325  0.98031076
  O -0.47762714 -0.95147468  0.40824189
  C  0.57232829 -0.35373260 -0.33258397
  C  0.92363542 -1.20745915 -1.56779770
  C  1.80873193 -0.23429687  0.52915092
  C  2.87817525  0.54819675  0.10873015
  C  4.02644044  0.62993204  0.87581368
  C  4.11997371 -0.07192176  2.06579337
  C  3.06035482 -0.85689747  2.48469246
  C  1.90999021 -0.93971506  1.71894934
  H -1.98797731  0.85051841 -1.78086578
  H -2.96096482  1.94046611  0.55442010
  H -2.39896253  3.82732088 -1.21960835
  H  0.29090899  4.11496130 -1.09233779
  H  1.07240326  2.30070046  0.72018850
  H -1.38694567 -3.43703577 -1.84631979
  H -1.18052985 -3.11932481 -0.10339313
  H -2.76191146 -3.60054523 -0.77127727
  H -2.43066668 -0.02003089  1.79802709
  H -2.84338479 -1.67294189  1.34592117
  H -3.73990492 -0.33073534  0.61823174
  H  1.77912767 -0.77531216 -2.07952568
  H  0.08451390 -1.25037474 -2.25929087
  H  1.17039010 -2.21483590 -1.24108211
  H  2.81397350  1.09325248 -0.82220177
  H  4.84990504  1.24384883  0.54151402
  H  5.01759908 -0.00622839  2.66289031
  H  3.12851102 -1.40924700  3.41035189
  H  1.07676801 -1.54195292  2.04396782
