52
opt_min/./Product_5395_opt.xyz
  C  5.91169292  0.63377854  1.12166710
  C  4.78100307  0.04335345  0.34021836
  C  5.16668099 -0.52630908 -0.99469807
  C  3.52838269  0.03159245  0.81430996
  C  2.37937742 -0.50517123  0.12870806
  C  1.14926405 -0.47286679  0.64506298
  C -0.09942210 -0.96280444 -0.02691637
  C  0.16687285 -2.07213250 -1.04515679
  C -1.16761547 -1.40879612  0.98526382
  C -2.53908078 -1.05395568  0.37137485
  C -3.27087494 -2.34183286 -0.12386325
  C -4.70789778 -2.18371358 -0.51651552
  O -2.70012215 -3.40154015 -0.17090968
  C -3.48778174 -0.41172611  1.39407743
  C -3.44453556 -1.04363709  2.76374341
  O -4.28620028  0.44911973  1.12366437
  N -2.20918686 -0.27864749 -0.81957494
  C -3.16238865  0.52953250 -1.55281901
  C -0.85853611  0.22651692 -0.71094603
  C -0.75621718  1.44588279  0.25331920
  N  0.16039654  2.36768620 -0.08732933
  C  0.44863494  3.51675738  0.73780600
  O -1.42162546  1.49083916  1.26481565
  C -0.32348354  0.52917339 -2.01135740
  N  0.11773471  0.81351642 -3.03007694
  H  6.45203044  1.35732354  0.51164930
  H  6.61736336 -0.15247374  1.39534911
  H  5.56375861  1.12037908  2.02915574
  H  4.71340502 -1.50162423 -1.15783795
  H  6.24696394 -0.63210871 -1.06226721
  H  4.83989007  0.13418620 -1.79879893
  H  3.32974718  0.46343647  1.78794103
  H  2.55065584 -0.93143956 -0.84742746
  H  1.00289689 -0.01843734  1.61792507
  H -0.77286918 -2.45677645 -1.42906644
  H  0.75942266 -1.71703084 -1.88398805
  H  0.69979756 -2.88435963 -0.55599436
  H -1.09228649 -2.47951890  1.16982917
  H -1.02827389 -0.87035774  1.91990416
  H -5.31075148 -2.49638393  0.33905039
  H -4.97091305 -1.16332536 -0.76287614
  H -4.93835073 -2.85416160 -1.34275487
  H -4.42569134 -0.95646046  3.22463509
  H -3.13139903 -2.08297672  2.71897590
  H -2.73869179 -0.48831092  3.37787628
  H -3.94788954  0.93812432 -0.91818756
  H -3.60835577 -0.06496474 -2.35765861
  H -2.64038606  1.37017361 -2.01083564
  H  0.69911843  2.25315351 -0.93218864
  H  1.49995545  3.52183005  1.02964998
  H  0.21798403  4.43991191  0.20406045
  H -0.17838218  3.44769574  1.62565106
