44
opt_min/./Product_939_opt.xyz
  C -2.00152200  2.05118100 -1.83928900
  O -1.27093419  0.87800867 -1.55967561
  C -0.85966219  0.66381247 -0.23991628
  C  0.08552136 -0.59184094 -0.13008038
  C  0.41846899 -1.32948115 -1.43795238
  C  1.02633625 -2.70578182 -1.28195988
  O  0.27132848 -0.84889920 -2.52478288
  C -0.63998127 -1.47196925  0.90810170
  C -1.86571447 -2.07467086  0.20357942
  C -2.79214977 -0.85410128  0.01931425
  C -2.01975144  0.28097616  0.71260665
  C -1.32176618 -0.47058544  1.83918876
  C  1.38726525  0.09784354  0.38197732
  C  2.48502101 -0.75891623  0.99666741
  O  3.27403682 -1.28107904  0.07498197
  C  4.37329575 -2.06803328  0.53013540
  O  2.59255217 -0.92070974  2.18282585
  N  0.87606817  1.08449700  1.28363077
  C  0.07846690  1.80745291  0.29657092
  C -0.51760889  3.11088431  0.78850488
  C  1.10167603  1.92997448 -0.85771657
  O  1.21995365  2.80655493 -1.65578841
  O  1.90317189  0.85516501 -0.75163057
  H -2.86654526  2.16303298 -1.17711370
  H -1.37178062  2.94245522 -1.78554508
  H -2.34708351  1.92425958 -2.86386016
  H  0.92933237 -3.12282701 -0.28745904
  H  0.57474119 -3.37073628 -2.01455693
  H  2.08163655 -2.61452655 -1.53308122
  H  0.00816015 -2.19190059  1.40370244
  H -2.32665006 -2.82746663  0.84390691
  H -1.62209680 -2.54311385 -0.74782479
  H -2.95071851 -0.63273440 -1.03465402
  H -3.76197655 -1.00827848  0.49094700
  H -2.64061035  1.12247772  1.01171499
  H -2.03356886 -0.95928516  2.50200260
  H -0.63261866  0.13076623  2.42137044
  H  5.26118773 -1.43923790  0.60365147
  H  4.53009652 -2.84842824 -0.21137323
  H  4.14673994 -2.49706792  1.50747132
  H  1.60495644  1.65477607  1.70479235
  H -0.23015767  3.27128480  1.82481111
  H -0.14226881  3.93379035  0.18202957
  H -1.60140875  3.10486659  0.73389044
