48
opt_min/./Product_914_opt.xyz
  C  0.38633200  0.50871200  0.79934200
  C  1.46820507  0.06954739  0.17581877
  C  2.85289629  0.13054616  0.66399764
  C  3.47005262  1.37492040  0.75418493
  C  4.77974962  1.47638871  1.18918256
  C  5.47911098  0.33491022  1.54510212
  C  4.86493937 -0.90361634  1.47320717
  C  3.55678608 -1.01075885  1.03401497
  C  1.12096941 -0.39246683 -1.22852849
  C  1.64805556 -1.80090611 -1.52635873
  C  1.71424469  0.61395186 -2.22894225
  N -0.33732842 -0.41634010 -1.18316004
  C -1.05121217 -0.37507317 -2.42916199
  C -0.83350536  0.39688516 -0.07727357
  C -1.19099124  1.81384022 -0.58601055
  N -2.46581356  1.96582660 -0.99998227
  C -2.95060101  3.19471474 -1.57829549
  O -0.36397700  2.70019741 -0.67717840
  C -1.97832991 -0.27134881  0.65013985
  C -2.73962999  0.44312709  1.56979706
  C -3.76103892 -0.17690926  2.26632386
  C -4.03444293 -1.51830418  2.05825074
  C -3.26978113 -2.23938093  1.15492925
  C -2.24687439 -1.62206622  0.46074197
  H  0.32880004  0.92680099  1.78627776
  H  2.90946212  2.25461228  0.47456946
  H  5.25368155  2.44454539  1.25057873
  H  6.50223707  0.40776886  1.88436289
  H  5.40810891 -1.79218630  1.76287198
  H  3.07280230 -1.97425756  0.99376791
  H  1.26871282 -2.50461984 -0.79047966
  H  1.33044933 -2.12406839 -2.51339582
  H  2.73281313 -1.80106540 -1.50201592
  H  1.24162992  1.58330739 -2.10576193
  H  1.57755422  0.26601194 -3.24999231
  H  2.77825351  0.72620203 -2.03586852
  H -0.91755154  0.54951067 -3.01031156
  H -0.71496168 -1.21235005 -3.04331742
  H -2.11540292 -0.50816828 -2.23560437
  H -3.11959613  1.21091976 -0.86637032
  H -3.15180201  3.06766904 -2.64406613
  H -3.86144586  3.52371708 -1.07729801
  H -2.17088810  3.94316486 -1.44902505
  H -2.52813444  1.48850245  1.74777874
  H -4.34524295  0.39083885  2.97625757
  H -4.83181690 -2.00332937  2.60103404
  H -3.47173957 -3.28900285  0.99668093
  H -1.63652191 -2.17070936 -0.23941238
