37
opt_min/./Product_3884_opt.xyz
  C  0.32092814  0.07657403  1.26027196
  C  0.49367389 -0.76825072 -0.00626558
  C  0.97713064 -2.17112755  0.36923164
  C -0.77652924 -0.80689865 -0.92062507
  C -2.00248068 -0.26073932 -0.25693985
  C -2.73866350  0.79132707 -0.60907742
  C -3.91339901  1.27447330  0.10602800
  C -4.27939632  0.61805513  1.40593951
  C -4.62385270  2.29266661 -0.37966134
  C -0.31039382 -0.08502781 -2.21955684
  C -0.45957494 -0.94728996 -3.36998344
  N -0.56869153 -1.66581713 -4.25198576
  N  1.08550855  0.26355649 -2.05424268
  C  1.49989376 -0.09798806 -0.91232210
  C  2.91848416  0.15830257 -0.50624510
  N  3.63517215  0.72843620 -1.48911443
  C  5.02163856  1.08530530 -1.34299480
  O  3.36348228 -0.13135589  0.58888369
  H  1.28450623  0.17178694  1.75593415
  H -0.05081557  1.07119380  1.01814450
  H -0.37486646 -0.40083232  1.94655456
  H  0.25907785 -2.64904739  1.03275787
  H  1.09945676 -2.79086183 -0.51736222
  H  1.93380324 -2.09967328  0.88121698
  H -0.98715322 -1.85576011 -1.16534882
  H -2.29215101 -0.83726478  0.61158609
  H -2.49521003  1.37547693 -1.48817934
  H -5.15090357  1.09969209  1.84407183
  H -4.50648879 -0.43378255  1.25223439
  H -3.45544977  0.69889772  2.11447550
  H -4.37253797  2.76617936 -1.31297648
  H -5.48643920  2.67961885  0.13972449
  H -0.85960518  0.84081572 -2.42435826
  H  3.15523297  0.92601934 -2.35537507
  H  5.13861406  2.16637734 -1.23548699
  H  5.39749936  0.59819373 -0.44362194
  H  5.59083510  0.75061920 -2.20949376
