61
opt_min/./Product_3114_opt.xyz
  F -1.31756665 -1.18200778  2.94611010
  C -1.49988959 -1.31302660  1.62458589
  F -0.90235607 -2.44567845  1.23752961
  F -2.81863419 -1.53859434  1.48741291
  C -1.07649264 -0.05999796  0.80415021
  C -1.72283109 -0.38679299 -0.54603129
  C -2.99786623  0.05245958 -0.88895854
  C -3.58295345 -0.35297796 -2.07528419
  C -2.92452645 -1.23076312 -2.91844300
  C -1.68590315 -1.72478235 -2.55192814
  C -1.09671767 -1.31550971 -1.36985626
  C  0.44671563  0.05757610  0.71374309
  C  1.29240866  0.80708979 -0.06296112
  C  1.02451070  1.87859059 -1.10762305
  C  1.19230143  1.28391967 -2.53718826
  F  0.38316655  1.86880489 -3.42737838
  F  2.43079346  1.40856176 -3.02267789
  F  0.91091750 -0.01779601 -2.58983040
  C  1.98318270  3.10470557 -1.09353503
  F  1.78458195  3.95988943 -0.09721848
  F  1.78799076  3.81804632 -2.21781404
  F  3.28632279  2.81638750 -1.06860067
  C -0.39170277  2.46524238 -0.96992648
  C -0.65270448  3.05008602  0.42607289
  C -1.92368301  2.47541085  1.02692844
  C -1.70872267  1.09326037  1.64011376
  C  2.71764560  0.43260647  0.29536153
  C  3.38561762  1.47843929  1.25190512
  C  4.80020760  1.20044013  1.63254802
  O  2.71414473  2.34926577  1.73079549
  C  3.54212686 -0.15246320 -0.84413534
  C  4.69706197  0.41162443 -1.36533651
  C  5.36587508 -0.21642383 -2.40297549
  C  4.90380097 -1.41157565 -2.92260326
  C  3.76336056 -1.98826379 -2.39215022
  C  3.09226427 -1.36550240 -1.35777447
  N  2.59635234 -0.55704350  1.31505413
  C  1.34734611 -0.74567407  1.56502899
  C  1.13967351 -1.67754105  2.61573256
  N  1.14846643 -2.44432115  3.46496414
  H -3.55734458  0.69166347 -0.22754935
  H -4.56830422  0.00730506 -2.32858771
  H -3.38562312 -1.54549608 -3.84185550
  H -1.17345084 -2.43752215 -3.17880546
  H -0.14201302 -1.73076521 -1.08710024
  H -0.53487398  3.23496559 -1.73022188
  H -1.09868991  1.66573507 -1.18896341
  H -0.73133686  4.13436002  0.35952751
  H  0.17245642  2.83291945  1.10514973
  H -2.70894393  2.46864206  0.27224422
  H -2.26209928  3.12028455  1.84015682
  H -2.67794328  0.73951746  2.00091370
  H -1.06788992  1.21646162  2.51846257
  H  4.85839253  1.22089435  2.72045483
  H  5.14818481  0.24363528  1.26121625
  H  5.42842396  2.00878545  1.26276965
  H  5.07894774  1.34635777 -0.99524065
  H  6.25679445  0.24097139 -2.80513737
  H  5.42983767 -1.89164480 -3.73358618
  H  3.39165878 -2.92444747 -2.77923352
  H  2.21075483 -1.83144896 -0.94283901
