57
opt_min/./Product_5696_opt.xyz
  C -1.32425100  3.87441200  1.43906100
  C -1.25114730  2.77265440  0.41269153
  C -2.18257715  2.93998856 -0.75049593
  C -0.41631672  1.75777541  0.59837507
  C -0.21085686  0.54888302 -0.26498875
  C  1.27725447  0.45999176 -0.65070136
  C  1.60134580  0.22243714 -2.10074227
  C  0.65823985 -0.56562664 -2.96136963
  C  2.72255742  0.72548975 -2.60271986
  C  1.85365051 -0.62262575  0.32839406
  C  2.45187823 -1.86705931 -0.34353176
  C  2.86778174  0.11585500  1.22740050
  O  2.53160634  0.72162689  2.21799925
  N  4.14474421  0.11671848  0.77619365
  C  5.20790929  0.76878112  1.49941559
  O  0.78737565 -1.02362244  1.16979243
  C -0.46554620 -0.72285173  0.58614773
  C -1.45641501 -0.46288084  1.75275735
  N -2.62774124  0.07895019  1.35464378
  C -3.67995921  0.37184932  2.29465672
  O -1.20910671 -0.73055184  2.90212689
  C -1.04811757 -1.91613704 -0.15154028
  C -2.01539769 -1.81115929 -1.14422176
  C -2.55423800 -2.94641252 -1.72658331
  C -2.14844180 -4.20360719 -1.31778905
  C -1.20260891 -4.32144007 -0.31166085
  C -0.66772595 -3.18960240  0.27083980
  H -0.33335360  4.27056070  1.64999198
  H -1.72787325  3.48902176  2.37356670
  H -1.95919217  4.68874635  1.09963966
  H -3.21750418  2.90234906 -0.40658910
  H -2.02582776  3.91490948 -1.20936954
  H -2.04322557  2.18318036 -1.51640197
  H  0.20673474  1.75639817  1.48455237
  H -0.84443295  0.57379326 -1.14917131
  H  1.74599634  1.41272472 -0.38141277
  H  0.32680091 -1.47369440 -2.46400905
  H  1.13865979 -0.82959284 -3.89904237
  H -0.22480608  0.02493731 -3.19842468
  H  3.00372737  0.56942087 -3.63126732
  H  3.39448294  1.32683113 -2.01390054
  H  2.92593553 -2.48046564  0.42179674
  H  3.17996351 -1.62936081 -1.11427390
  H  1.66074928 -2.45392658 -0.80042713
  H  4.39758320 -0.43237251 -0.02676951
  H  5.79040976  1.40217305  0.83013525
  H  5.86980238  0.03755686  1.96928273
  H  4.74994463  1.37990181  2.27622358
  H -2.78511487  0.29295607  0.38831609
  H -4.44062976 -0.41311626  2.28847441
  H -3.23890208  0.41987188  3.28832915
  H -4.14312564  1.32576795  2.04913654
  H -2.35289549 -0.84855259 -1.49795262
  H -3.29869803 -2.84421032 -2.50233112
  H -2.57348186 -5.08309142 -1.77616700
  H -0.88696938 -5.29668592  0.02486458
  H  0.04837085 -3.26486404  1.07302921
