55
opt_min/./Product_2483_opt.xyz
  C -1.61297100 -3.86331400 -0.04191400
  N -1.71730124 -2.51396579  0.45956323
  C -1.03751968 -1.49248592 -0.08572379
  O -0.31629743 -1.60996787 -1.06407082
  C -1.33054539 -0.10512972  0.48817564
  C -2.65149741  0.20064132 -0.28454393
  O -3.70977199  0.29252271  0.29226452
  N -2.50862883  0.17762911 -1.61932629
  C -3.61580418  0.43563484 -2.50620972
  C -0.17777248  0.79434414  0.16954203
  C  1.15314291  0.52782322  0.46516031
  N  1.83931205  1.65429498  0.10961479
  N  1.05946840  2.61188974 -0.34227779
  C -0.17545094  2.12831840 -0.31433008
  C -1.29042888  3.00960681 -0.71062182
  O -0.82581065  4.11752317 -1.29084954
  C -1.77440039  5.10117575 -1.67788221
  O -2.45910147  2.77715165 -0.52922782
  C  1.89002625 -0.70435445  0.90643881
  C  2.27955029 -1.59514438 -0.33997182
  O  2.24849173 -2.79751547 -0.26750194
  N  2.67153354 -0.91139436 -1.42050923
  C  3.05456315 -1.59218733 -2.63635008
  C  3.20414360 -0.29271193  1.58199522
  F  3.01767867  0.62616085  2.54639167
  F  3.85584806 -1.30731417  2.14634170
  F  4.09853184  0.26884448  0.73041453
  C  1.14553430 -1.65951510  1.86475747
  C  0.43793123 -1.10620673  3.09922736
  C -0.46178139  0.12023876  2.96500186
  C -1.63751972  0.06986495  1.98911698
  H -0.74439402 -3.90562648 -0.69801812
  H -2.50516153 -4.13936381 -0.60810664
  H -1.48045438 -4.56195116  0.78393818
  H -2.35743618 -2.33909341  1.21677212
  H -1.58867165  0.06478447 -2.01774190
  H -3.50305214 -0.15274823 -3.41488099
  H -4.53117305  0.15274519 -1.98820067
  H -3.67661791  1.49705636 -2.75932865
  H  2.82519108  1.83806608  0.21800747
  H -1.63526672  5.30985317 -2.73852700
  H -2.78781130  4.73871648 -1.49202944
  H -1.58981454  6.00572912 -1.09730736
  H  2.67793245  0.09458043 -1.43511304
  H  2.61557578 -2.58798351 -2.61424613
  H  2.67836930 -1.04463652 -3.49781117
  H  4.14113287 -1.68152986 -2.70444845
  H  0.47007416 -2.25908785  1.26460090
  H  1.89389188 -2.37295297  2.22130558
  H  1.18933713 -0.86722988  3.85616554
  H -0.16335595 -1.92915405  3.49463007
  H -0.89911993  0.27965738  3.95501710
  H  0.14548119  1.00617171  2.76784852
  H -2.12123906  1.05052085  2.04858083
  H -2.39275403 -0.64605150  2.31482359
