74
opt_min/./Product_2978_opt.xyz
  C  0.61914300 -0.63173600  0.18126600
  C -0.71316807 -0.45240066 -0.13460918
  C -1.96172786  0.38087937  0.30401733
  C -2.39294939  1.19845699 -0.90265507
  C -1.83899215  2.45145621 -1.14049609
  C -2.21758907  3.20062470 -2.24146806
  C -3.16200839  2.71580150 -3.12778104
  C -3.71119206  1.46368973 -2.91036768
  C -3.32701922  0.71215714 -1.81488188
  C -3.03712290 -0.60728650  0.75690848
  C -2.70957004 -1.84359581  1.30207115
  C -3.69129487 -2.68090747  1.80458821
  C -5.01873056 -2.29468085  1.78207765
  C -5.35301716 -1.04896264  1.27763342
  C -4.37199519 -0.21153542  0.78130870
  C -1.82161914  1.30638642  1.59690478
  C -0.40175943  0.97646961  1.96177138
  C  0.72323269  1.33078344  2.90403092
  C  1.77469789  0.32311115  2.35788231
  C  1.79294340  0.18356949  0.79494705
  C  3.10346579 -0.43587360  0.27898510
  C  4.21550408 -0.69656105  1.06882928
  C  5.38177751 -1.19782813  0.51634995
  C  5.47265788 -1.44634922 -0.84027916
  C  4.37698760 -1.18485918 -1.64292432
  C  3.21484250 -0.68174192 -1.08967970
  C  1.90597624  1.57160387  0.14056011
  C  1.31349630  1.86746264 -1.08347791
  C  1.51473747  3.08699653 -1.70405854
  C  2.32274374  4.04412526 -1.11865337
  C  2.94028203  3.75604548  0.08568509
  C  2.74381076  2.53264187  0.70006379
  C -1.01956291 -1.53012472 -1.17860037
  C -0.92581139 -1.00512265 -2.63372318
  N  0.01055217 -2.51709051 -1.02658637
  C  0.92377639 -1.99780498 -0.28506733
  C  1.94673312 -2.92809916  0.26792256
  C  2.32363687 -4.04659168 -0.65694329
  O  2.33555481 -2.83924978  1.40873419
  H -1.08891026  2.85633419 -0.47849572
  H -1.76968810  4.17104963 -2.39932043
  H -3.46194605  3.30457089 -3.98166946
  H -4.44263485  1.06788748 -3.59965614
  H -3.76015627 -0.26646464 -1.67599146
  H -1.67944656 -2.16595406  1.35189694
  H -3.41077912 -3.63895283  2.21683735
  H -5.78570947 -2.94910133  2.16863288
  H -6.38341294 -0.72451196  1.27593605
  H -4.64488302  0.76749659  0.41465678
  H -2.55330764  1.00974590  2.34922076
  H -1.99438377  2.35406320  1.35755580
  H -0.44928740 -0.10748203  2.07763172
  H  0.05589907  1.26360093  1.02505180
  H  0.53861860  1.14558381  3.96166281
  H  1.06039192  2.36148913  2.78389262
  H  1.54882785 -0.66686574  2.75978244
  H  2.76083543  0.59968532  2.71881511
  H  4.18769210 -0.55678581  2.13570423
  H  6.22500112 -1.40203276  1.15984310
  H  6.38404092 -1.83875809 -1.26600070
  H  4.42643317 -1.36779204 -2.70705802
  H  2.38379930 -0.46979248 -1.74605315
  H  0.67565648  1.14316278 -1.56597128
  H  1.03256589  3.28420268 -2.65064087
  H  2.47954859  4.99745629 -1.60093054
  H  3.58978300  4.48499935  0.54809971
  H  3.26992206  2.33132191  1.61905927
  H -1.98525493 -2.01330476 -1.03292615
  H  0.04528278 -1.27701592 -3.04393443
  H -1.69203227 -1.46449209 -3.24962091
  H -1.03431922  0.07235060 -2.68535066
  H  2.89811855 -3.64042268 -1.48721867
  H  2.91874141 -4.78300600 -0.12352086
  H  1.41993723 -4.49089667 -1.06426630
