49
opt_min/./Product_1894_opt.xyz
  C -1.47307492 -2.81018842 -1.11229168
  C -1.93822468 -1.39627358 -1.29202647
  O -2.39853413 -1.04518847 -2.34176413
  C -1.86595528 -0.42273798 -0.06473552
  C -2.71194656 -1.07441619  1.06478030
  C -2.71657514 -0.35347271  2.38264282
  O -3.41650269 -2.02393079  0.84995590
  C -0.42775109 -0.28839463  0.34955293
  C  0.64954541  0.43667650 -0.01048577
  C  0.91756461  1.78018774 -0.63816052
  C  1.64277120  2.70200645  0.35224597
  F  1.76508486  1.53781862 -1.72560333
  C -0.30659686  2.52619429 -1.15350492
  C -1.13131929  1.74087639 -2.17152184
  C -2.56378182  1.58953050 -1.68708448
  C -2.68875853  0.87013155 -0.33544322
  C  1.87145487 -0.30193375  0.62540916
  C  3.29758832 -0.14114745  0.07474392
  O  3.74422046 -1.32933580 -0.30739244
  C  5.06966504 -1.37680015 -0.83279199
  O  3.91731287  0.87922021  0.01426033
  N  1.45670576 -1.67939692  0.71821307
  C  0.16023448 -1.36614407  1.30857915
  C -0.56218679 -2.50060894  1.81097213
  N -1.03071266 -3.43283790  2.27801917
  C  0.72802116 -0.50556435  2.50210014
  O  0.27288728 -0.37602485  3.59236633
  O  1.82268630  0.07796591  2.02467982
  H -2.35290925 -3.39166874 -0.82952155
  H -1.12213122 -3.18570605 -2.07148928
  H -0.72706530 -2.96443474 -0.34489235
  H -1.85705614  0.29181483  2.52888043
  H -3.62371166  0.24697001  2.44119949
  H -2.76411770 -1.08783323  3.18387573
  H  2.42765268  2.19926930  0.90326250
  H  0.92756845  3.11810499  1.05647954
  H  2.09649017  3.50928445 -0.21695506
  H  0.03877742  3.46686628 -1.58403242
  H -0.91708524  2.77296789 -0.28622199
  H -0.69448284  0.75439418 -2.32449962
  H -1.12090888  2.24124906 -3.13926992
  H -3.13937491  1.05978101 -2.44238881
  H -3.01030500  2.57921244 -1.56279306
  H -3.74055109  0.58410431 -0.23907531
  H -2.47133928  1.56654118  0.47653376
  H  5.78062029 -1.50370690 -0.01529229
  H  5.29369237 -0.45332334 -1.36907885
  H  5.10494062 -2.23458555 -1.49967693
  H  1.42506006 -2.16547391 -0.17043975
