33
opt_min/./Product_526_opt.xyz
  C -4.15750108 -1.88014476 -0.38195719
  O -2.79897608 -1.61778245 -0.05346171
  C -2.46751065 -0.35995574  0.24427172
  O -3.23137711  0.57318855  0.22065701
  C -1.04378561 -0.23693465  0.59983569
  C -0.13315947 -1.20102239  0.80096393
 Cl -0.28497232 -2.86697563  0.55186659
  C  1.18527766 -0.62000408  1.22100727
  C  2.15829061 -0.83949605  0.04605452
  O  2.91809333 -1.90184606  0.26099166
  C  3.84368451 -2.26308287 -0.76037016
  O  2.18469214 -0.14907169 -0.93717068
  N  0.87552387  0.76244547  1.50801076
  C  1.94652415  1.72729182  1.40410244
  C -0.45008730  1.10506402  0.97321260
  C -1.25264629  1.67410061  2.05402502
  N -1.86387429  2.08805156  2.92400148
  C -0.40419555  2.16465794 -0.17606951
  C -0.83722777  1.68827478 -1.52538545
  O -0.02307891  3.27748300  0.05224440
  H -4.21891668 -2.12998865 -1.44181716
  H -4.48387651 -2.72724740  0.21913548
  H -4.76949210 -1.00240139 -0.16991164
  H  1.59593462 -1.12209185  2.10718751
  H  3.98296092 -3.33834241 -0.68799570
  H  3.45083142 -1.98713328 -1.74035567
  H  4.79069347 -1.74808460 -0.59380862
  H  2.25681725  1.93623207  0.37538848
  H  2.79679902  1.33333925  1.95875909
  H  1.62035682  2.65433734  1.86975545
  H -0.51972694  2.39765755 -2.28305004
  H -1.92630990  1.63403611 -1.52956912
  H -0.43778270  0.69920321 -1.73560944
