53
opt_min/./Product_2528_opt.xyz
  C -4.11711800 -0.34845700  2.60192000
  N -3.11258429 -0.17016469  1.57780656
  C -2.12739598 -1.07757829  1.39976980
  O -2.00718144 -2.05549643  2.09470820
  C -1.19555702 -0.71581569  0.22628201
  C  0.06659169 -1.60828866 -0.03119982
 Br  0.40158704 -3.14395707  1.14946258
  C -0.22440261 -2.18669504 -1.43266648
  C -0.07629244 -1.11363913 -2.51425082
  C -1.30879229 -0.22044207 -2.28373017
  C -1.99889550 -0.87763273 -1.08520886
  C -1.74136172 -2.35687603 -1.36022054
  C  1.22630271 -0.59552874  0.20082550
  C  2.64009838 -0.91406719 -0.19065186
  C  2.98048187 -1.94784229 -1.05309704
  C  4.30640258 -2.20543859 -1.35655632
  C  5.31563763 -1.43889526 -0.80390973
  C  4.98842756 -0.41632029  0.06813744
  C  3.66536452 -0.15979528  0.37648117
  C  1.11142804 -0.31828444  1.71828729
  O  1.81837421 -0.65569460  2.61289416
  O  0.03576812  0.48196742  1.87091823
  C -0.51681346  0.64460990  0.52832549
  C -1.38410274  1.90429335  0.47885095
  N -1.41434747  2.58206782  1.63330496
  C -2.17580303  3.79811249  1.79825885
  O -1.99771433  2.22720250 -0.51833738
  N  0.61985684  0.63128914 -0.34579364
  C  1.40466284  1.84580987 -0.40045168
  H -3.68596388 -0.96242795  3.39216206
  H -4.40790098  0.62134459  3.00145356
  H -4.99997790 -0.85742865  2.20722580
  H -3.23753189  0.58742578  0.92669336
  H  0.31740528 -3.10790528 -1.63461889
  H -0.10669269 -1.58404285 -3.49819864
  H  0.85612016 -0.56301962 -2.43044836
  H -1.98588785 -0.24730134 -3.13749811
  H -1.05153293  0.81647610 -2.09365307
  H -3.04051836 -0.57918369 -0.97843573
  H -2.05759503 -3.01470327 -0.55216510
  H -2.16939018 -2.69569475 -2.30132585
  H  2.22483914 -2.57105182 -1.49321418
  H  4.54608062 -3.01718897 -2.02674534
  H  6.34942038 -1.64129996 -1.04005522
  H  5.76589424  0.18069246  0.52094865
  H  3.43967327  0.62350971  1.08367260
  H -0.90232837  2.24426323  2.43523847
  H -1.51380819  4.63761111  2.01774495
  H -2.89174692  3.68684644  2.61376905
  H -2.70638064  3.99145093  0.86701120
  H  1.70118814  2.22126027  0.58799983
  H  2.29859597  1.65268140 -0.99061669
  H  0.80646541  2.60442244 -0.90473017
