39
opt_min/./Product_3537_opt.xyz
  C  3.18080100  0.11329600 -1.10287900
  C  2.81801558 -0.46161359  0.23638612
  C  3.93577902 -1.16285410  0.95883590
  C  1.60565365 -0.38820905  0.77593965
  C  0.40547788  0.28541748  0.18953206
  C -0.91482885 -0.31944525  0.66699366
  C -1.43278974 -1.50922670 -0.10588222
  C -1.04471073 -1.69327106 -1.54385960
  C -2.20684974 -2.39922591  0.49798440
  C -1.88597653  0.89535822  0.69628563
  C -2.95863747  0.78310915  1.78803501
  C -2.54176644  1.15780847 -0.66644215
  O -1.03960886  1.99290892  1.02816508
  C  0.29881512  1.77805899  0.61074940
  C  0.69221848  2.78335579 -0.48034344
  H  3.98552955 -0.46649017 -1.55311775
  H  2.32679344  0.09872615 -1.78223004
  H  3.51492306  1.14621090 -1.00150571
  H  3.88379088 -2.23816224  0.78183578
  H  3.87532642 -0.99982912  2.03400212
  H  4.90398229 -0.81277349  0.61048167
  H  1.45818596 -0.82620759  1.75497508
  H  0.46851074  0.22705377 -0.90113482
  H -0.78654828 -0.64248736  1.70575386
  H -1.13633009 -0.77047011 -2.11131986
  H -1.68301915 -2.44485455 -2.00375532
  H -0.00935050 -2.03204491 -1.60660038
  H -2.61307380 -3.25357428 -0.01627025
  H -2.46564641 -2.31982306  1.54035689
  H -2.79135239  1.57943447  2.50949738
  H -2.91624961 -0.17019497  2.30509462
  H -3.95518125  0.89788373  1.37170925
  H -3.13018299  2.07017923 -0.59873217
  H -3.18433758  0.32646868 -0.94800446
  H -1.78289049  1.29988939 -1.43365976
  H  0.92958313  1.93794736  1.49569949
  H  0.81972668  2.30750173 -1.44986537
  H -0.09866479  3.52519090 -0.56315206
  H  1.61571719  3.29473704 -0.22745498
