46
opt_min/./Product_4903_opt.xyz
  C -0.66489525 -1.02961917  1.37622678
  C -0.33097824  0.21473306  0.55775976
  C  0.15758641  1.30928293  1.50997753
  C  0.71412315 -0.07302134 -0.54373186
  C  2.10231713 -0.34548719 -0.07009504
  C  3.23164036 -0.01496178 -0.68913673
  C  4.56936844 -0.36040083 -0.23379098
  C  4.72696727 -1.12432215  1.04705124
  C  5.62796083 -0.00281057 -0.96006873
  C  0.44972939  1.08435923 -1.52294159
  C  1.05984060  2.45982752 -1.19813637
  C  0.17236810  3.63207271 -1.52790880
  O  2.16736864  2.59034881 -0.74500696
  O -0.96377538  1.14123683 -1.58043396
  C -1.52954634  0.70339024 -0.33701901
  C -2.21634089  1.83226561  0.26941745
  N -2.74951638  2.74680805  0.70139167
  C -2.55460513 -0.38636924 -0.61279473
  C -2.44613214 -1.17601589 -1.74886608
  C -3.36320847 -2.18405751 -1.98727594
  C -4.40043022 -2.40643249 -1.09779811
  C -4.52305816 -1.60839492  0.02621617
  C -3.60693810 -0.60007042  0.26889323
  H -1.51901879 -0.84161497  2.02502474
  H  0.18462648 -1.28749059  2.00581049
  H -0.89699186 -1.88355627  0.74251482
  H -0.43820694  1.32022375  2.42136356
  H  1.19790224  1.12031699  1.77036322
  H  0.10326942  2.29920286  1.06517856
  H  0.36506224 -0.98755378 -1.05973304
  H  2.13735370 -0.94768061  0.82864864
  H  3.19619394  0.56171476 -1.60204377
  H  4.23184170 -0.60582621  1.86702577
  H  5.78061296 -1.23154848  1.29467302
  H  4.28806105 -2.11893881  0.95458323
  H  5.52310068  0.54464911 -1.88110740
  H  6.63462231 -0.23798443 -0.65885970
  H  0.81359856  0.83831673 -2.52941399
  H  0.78701407  4.42573464 -1.94999037
  H -0.62396383  3.35458763 -2.21212197
  H -0.27690609  4.01759352 -0.61189582
  H -1.65524192 -0.99292941 -2.45967499
  H -3.26583104 -2.79481114 -2.87294860
  H -5.11630902 -3.19299527 -1.28331115
  H -5.33770511 -1.76694307  0.71762535
  H -3.71764914  0.02613836  1.14297679
