38
opt_min/./Product_768_opt.xyz
  C  6.06408600 -0.27805900 -0.05749900
  N  4.69948205  0.16800907  0.10092910
  C  3.73371197 -0.69422673  0.47867283
  O  3.94844130 -1.86992071  0.70633218
  C  2.38388750 -0.11178452  0.61512455
  C  1.84339377  1.07296811  0.30087045
 Cl  2.47074314  2.42448226 -0.51237708
  C  0.37248792  0.98121420  0.68374619
  C -0.25387048  0.08083922 -0.42975509
  C  0.34314383 -1.28708543 -0.04535342
  C  1.21309139 -0.88988482  1.19459178
  O  0.43359541  0.12515050  1.80034401
  O -0.74157090 -2.14028536  0.25497239
  N -1.91085320 -1.37985352  0.50782537
  C -2.14509240 -1.18142011  1.93139385
  C -1.77321994 -0.19719272 -0.34087036
  C -2.63122000  0.96597379  0.13561147
  O -3.88664037  0.57615931  0.33152400
  C -4.80410164  1.58357784  0.73732802
  O -2.26455717  2.10716171  0.24970102
  C -2.29329296 -0.57963215 -1.74049916
  H  6.16044078 -0.91728457 -0.93856638
  H  6.71685292  0.58352972 -0.16456936
  H  6.35961099 -0.86305401  0.81449316
  H  4.47971892  1.13313687 -0.08116279
  H -0.15450798  1.90584484  0.89417063
  H  0.01899049  0.44627109 -1.41721176
  H  0.94620676 -1.78834158 -0.80252341
  H  1.44710274 -1.70807091  1.86659451
  H -3.16697837 -1.49678403  2.14786329
  H -2.00085856 -0.14954795  2.25724778
  H -1.45640438 -1.80978354  2.49274562
  H -5.74152590  1.07313381  0.94032584
  H -4.93293288  2.32185058 -0.05671726
  H -4.43830787  2.09117572  1.63213865
  H -2.22687182  0.26346545 -2.42399242
  H -3.32618703 -0.90287864 -1.65354391
  H -1.70163643 -1.40681823 -2.12434766
