34
opt_min/./Product_3952_opt.xyz
  C -2.38396963 -0.58946594 -1.28907531
  C -1.44095894 -0.41957786 -0.09299035
  C -2.09522459 -0.93680238  1.19329488
  C -0.10343405 -1.13197625 -0.41690609
  C  0.06578310 -2.57415542 -0.00627189
  O  0.64397759 -3.38973054 -0.66121723
  C  0.97291564 -0.26886590  0.27496798
  C  2.30173964 -0.28068439 -0.55600398
  N  3.37014127  0.12744052  0.14120747
  C  4.68288517  0.21642442 -0.45728139
  O  2.30468341 -0.58539326 -1.72100783
  C  1.20544806 -0.64347992  1.65123858
  N  1.39834208 -0.83094482  2.76554083
  N  0.42203212  1.07611977  0.16025564
  N -1.00117035  0.96697039  0.09155027
  C -1.66314004  2.13609788  0.29578408
  C -3.16931926  2.14923765  0.19858016
  O -1.03148162  3.13708470  0.58690879
  H -2.12725699  0.12061212 -2.07051023
  H -2.27500707 -1.59617850 -1.68750148
  H -3.42345631 -0.45497672 -1.00650519
  H -1.43980461 -0.80243499  2.05166411
  H -2.34283852 -1.99002849  1.09342598
  H -3.02126330 -0.40202860  1.38044853
  H  0.10444131 -1.04849555 -1.49144689
  H -0.33089033 -2.82672001  0.99576434
  H  3.29575922  0.32674770  1.12666444
  H  5.30208459 -0.63293335 -0.16150243
  H  5.16621328  1.14227169 -0.14886116
  H  4.56013268  0.20715607 -1.53849321
  H  0.65770893  1.69281090  0.94170091
  H -3.51976828  1.78185271 -0.75904500
  H -3.48663283  3.18266349  0.31824244
  H -3.61276115  1.56431112  1.00006281
