31
opt_min/./Product_4108_opt.xyz
  O  0.22508100 -3.67406700  0.46948800
  C  0.47697814 -3.01006433 -0.42516711
  O  0.72731574 -2.35091672 -1.32748301
  C -0.69823990 -0.38734359  1.00971897
  C -1.87273441  0.03114846  0.51697637
  C -3.51332183 -2.36355858 -0.79378799
  O -4.56015253 -1.91337944 -0.70400862
  O -2.47173695 -2.82890061 -0.89319443
  C -1.57924003  1.03269800 -0.56820319
  C -2.19965229  0.70884042 -1.92641330
  C -2.16340956  2.37239665 -0.04230844
  C -1.29455712  3.12771958  0.91464813
  O -3.24937012  2.74029296 -0.39179175
  N -0.15030970  1.07726689 -0.66022547
  C  0.33012737  0.27610581  0.23004869
  C  1.78802437  0.01657800  0.37259581
  N  2.53332528  0.77329122 -0.45160065
  C  3.96342939  0.65175133 -0.55119794
  O  2.23107631 -0.80371226  1.15585302
  H -0.50216242 -1.08452885  1.80121509
  H -2.86800492 -0.23917884  0.81246806
  H -1.89345489 -0.28557097 -2.24196299
  H -3.28248924  0.76390103 -1.85496555
  H -1.85196265  1.43378632 -2.65723716
  H -0.62373535  2.47331413  1.46236455
  H -0.69299181  3.82617173  0.33283589
  H -1.91601225  3.70170223  1.59826789
  H  2.03560127  1.37336115 -1.09310763
  H  4.43770798  1.62736641 -0.43455273
  H  4.25422030  0.22596558 -1.51408202
  H  4.29253794 -0.01209723  0.24705007
