38
opt_min/./Product_3927_opt.xyz
  C  4.92742158 -0.66269587 -1.11352831
  C  3.82666828 -0.21973295 -0.20372256
  C  4.26740513  0.37986648  1.09955886
  C  2.54095052 -0.35765984 -0.55290789
  C  1.41108403  0.04617394  0.24497276
  C  0.15043286 -0.22951960 -0.09232468
  C -1.05969871  0.15497392  0.72215426
  C -0.95887032  1.58943510  1.26684060
  C -1.24748387 -0.81400878  1.92397419
  N -2.57053965 -1.35295673  1.74442599
  C -3.37080265 -1.67381614  2.73132362
  N -4.02853242 -2.05212572  3.59438676
  N -3.08485308 -1.12076740  0.45138366
  C -3.03726721 -2.36324767 -0.31892168
  N -2.28701315 -0.06182489 -0.06652036
  C -2.56734286  0.39621555 -1.31697332
  C -1.81822116  1.62500435 -1.78385859
  O -3.40701467 -0.12116486 -2.02584679
  H  4.54745071 -0.95389083 -2.08920333
  H  5.45393492 -1.51131885 -0.67704799
  H  5.65037883  0.14119340 -1.24494506
  H  3.71415553 -0.04099773  1.93638880
  H  5.32653308  0.19869299  1.26210491
  H  4.10525627  1.45802592  1.09547708
  H  2.30226196 -0.81158398 -1.50584339
  H  1.61745753  0.59845239  1.14886814
  H -0.05407770 -0.79388998 -0.99234572
  H -0.52141999  2.26501349  0.53970550
  H -0.32008786  1.60086542  2.14618152
  H -1.94514865  1.94905501  1.55314504
  H -1.18047849 -0.28388694  2.87579710
  H -0.49364378 -1.61196376  1.90903005
  H -3.76333303 -3.03715071  0.13020014
  H -2.04623466 -2.83297429 -0.30972302
  H -3.33422623 -2.14145478 -1.33972986
  H -2.34864794  2.00119125 -2.65478552
  H -0.80304188  1.37061918 -2.08121176
  H -1.78944206  2.39629476 -1.02559972
