45
opt_min/./Product_1383_opt.xyz
  C -2.26292000 -0.42508600 -0.91674500
  C -1.06664965 -0.71939265 -0.01290399
  C  0.31143464 -0.83625976 -0.73052576
  F  0.23020554 -0.68673991 -2.09689150
  C  0.73167171 -2.27996120 -0.35083388
  C -0.22125175 -3.20298596 -1.08488906
  C -1.36615758 -3.12379556 -0.42405403
  C -1.11587782 -2.11595423  0.68217332
  O  0.25568990 -2.34311863  0.98400667
  C  1.15997859  0.34152094 -0.13917199
  C  2.20060251  0.82805092 -1.15345181
  O  2.87272820  0.05995625 -1.78657077
  O  2.32996817  2.14359331 -1.16780617
  C  3.33607081  2.69713531 -2.01011665
  C  2.08514782 -0.00025445  1.05492975
  O  2.12439675  0.67676983  2.04452000
  O  2.87378226 -1.03663267  0.82561727
  C  3.79677431 -1.38679397  1.85276577
  N  0.18488239  1.30366054  0.35985999
  C -0.37788082  2.18268418 -0.65825993
  C -0.76315319  0.41422068  1.01036843
  C -1.98146039  0.98728671  1.69672368
  O -2.02056778  2.31270802  1.72960034
  C -3.08279615  2.90743136  2.46580794
  O -2.81408046  0.27529399  2.20090137
  H -2.84454222 -1.32756934 -1.08541772
  H -2.92039396  0.31068713 -0.46122992
  H -1.94100677 -0.05187962 -1.88648921
  H  1.78896329 -2.49746474 -0.43849544
  H  0.03752988 -3.75393635 -1.96589739
  H -2.29701558 -3.62253909 -0.60609150
  H -1.74198182 -2.16132011  1.56772288
  H  4.01354522  1.91241775 -2.35086504
  H  3.87174272  3.44280598 -1.42488130
  H  2.85541789  3.16945387 -2.86803409
  H  4.74033057 -0.86398604  1.68655207
  H  3.39347166 -1.11097186  2.82832921
  H  3.94203358 -2.46229559  1.78429080
  H -0.27850019  1.78267451 -1.67098611
  H -1.43108638  2.35826694 -0.45978970
  H  0.14192151  3.13930195 -0.60713335
  H -0.21193821 -0.06866285  1.83280750
  H -3.18951743  3.92103214  2.08718130
  H -4.00462451  2.33875367  2.32799785
  H -2.83003158  2.92590315  3.52736875
