46
opt_min/./Product_2061_opt.xyz
  C -0.61832776 -1.96655075 -1.61540318
  C -1.23649186 -0.94812682 -0.64031636
  C -1.63750617 -1.74259923  0.60388351
  C -0.30914810  0.22636231 -0.42023700
  C -0.37560397  1.30283135  0.37904150
  C -1.12511938  1.60464302  1.62727056
 Cl -0.55828081  3.19112135  2.31310921
 Br -0.51643839  0.29974254  3.06268127
  C -2.65937458  1.66652470  1.56138385
  C -3.34050577  1.60119521  0.18842543
  C -3.58417372  0.22912583 -0.44374851
  C -2.49568323 -0.36957068 -1.33211382
  C  0.62119803  2.36904427 -0.13574680
  C -0.14041321  3.57806079 -0.41665130
  N -0.78893342  4.45792329 -0.75342882
  C  1.72621463  2.63237097  0.77776932
  N  2.65347376  2.81066358  1.41974726
  N  1.16045709  1.83419233 -1.37643204
  C  0.88354909  0.40634291 -1.35185481
  C  2.12647257 -0.27001984 -0.78437860
  C  3.33728210 -0.00567831 -1.40905671
  C  4.50935773 -0.55857294 -0.92799993
  C  4.48139255 -1.38137860  0.18431058
  C  3.28035745 -1.63587302  0.81727232
  C  2.10575562 -1.08022812  0.33855684
  H -1.25384028 -2.84908032 -1.64482529
  H -0.55525631 -1.57651488 -2.62846726
  H  0.37331487 -2.27509554 -1.29490761
  H -1.90515220 -1.10651373  1.43481701
  H -2.49506712 -2.36656080  0.36295517
  H -0.82722801 -2.39609484  0.91575836
  H -3.10190364  0.92075409  2.22334559
  H -2.93066890  2.64424611  1.96495090
  H -2.84883050  2.27795806 -0.51205782
  H -4.33759421  2.00837350  0.37856237
  H -4.45163081  0.34951437 -1.09920782
  H -3.87255965 -0.47458778  0.33531461
  H -2.96002209 -1.19329759 -1.87948245
  H -2.18924603  0.37523403 -2.07105234
  H  0.81067007  2.32370087 -2.19057908
  H  0.70657518  0.04229293 -2.36483856
  H  3.35861520  0.64448257 -2.26963277
  H  5.44464929 -0.34250498 -1.42051280
  H  5.39687682 -1.81179187  0.56143385
  H  3.24713846 -2.26145921  1.69474390
  H  1.18488506 -1.25867779  0.86951268
