46
opt_min/./Product_1682_opt.xyz
  C  1.33336786 -1.56344367  3.51358879
  O  1.29681317 -1.04927758  2.18694918
  C  0.46764076 -0.04596920  1.95413879
  O -0.19524997  0.50300213  2.79270123
  C  0.44942163  0.33029153  0.48779016
  C -0.25806184 -0.75345181 -0.38574663
  O -0.22102567 -1.99661681  0.23933204
  C -0.56537746 -3.15288021 -0.51166804
  C  0.72412480 -0.70607402 -1.64778284
  C  1.86392020 -1.61151848 -1.21233121
  C  2.50515304 -0.92423884 -0.27909626
  C  1.82673665  0.42545371 -0.22846714
  O  1.35200570  0.56504582 -1.56346003
  C -1.70698899 -0.17242324 -0.56102659
  C -2.29222209 -0.43464228 -1.95832905
  C -2.83948024  0.76064811 -2.66827875
  O -2.29507418 -1.54559616 -2.42716618
  C -2.73870255 -0.79045607  0.44131650
  C -3.72323796  0.18584528  1.01770865
  O -2.79033001 -1.96344857  0.68146894
  O -1.63802489  1.20994768 -0.30045619
  C -0.37938903  1.61102194  0.19993206
  C  0.20062243  2.56610318 -0.92696949
  C  1.31064057  3.49575274 -0.52982096
  O -0.38357298  2.65130121 -1.96705100
  C -0.57964239  2.49163031  1.34289692
  N -0.77171790  3.31796978  2.10936961
  H  0.36844685 -1.41173803  3.99970601
  H  2.11199674 -1.05061522  4.08207836
  H  1.56185336 -2.62307381  3.42948114
  H -0.45855288 -3.96624395  0.20280122
  H -1.59353943 -3.11225856 -0.87009938
  H  0.10235976 -3.30964282 -1.35971522
  H  0.26176449 -0.85968165 -2.61600105
  H  2.07318750 -2.58678072 -1.60062111
  H  3.33388850 -1.20399945  0.33778261
  H  2.45493773  1.25366156  0.07674181
  H -3.06560989  1.57079341 -1.98481068
  H -3.71441441  0.46985108 -3.24600981
  H -2.07697229  1.11320976 -3.36320619
  H -3.86105893 -0.04309788  2.07206148
  H -3.42254684  1.21982760  0.89449641
  H -4.67710147  0.02291480  0.51507870
  H  1.79315253  3.22921726  0.40478574
  H  0.85943093  4.48170991 -0.40879783
  H  2.03634905  3.55967200 -1.33723794
