41
opt_min/./Product_4195_opt.xyz
  C -1.03885804 -3.19697402  0.11105936
  C -0.02604184 -2.05918302  0.27493246
  C  1.36281681 -2.64850760  0.49235415
  C -0.10746458 -1.07469454 -0.93624720
  C  1.14481939 -0.27772109 -1.13911331
  C  1.56002365  0.70927371 -0.34426894
  C  2.76657905  1.49795939 -0.53034913
  C  3.62019212  1.22957686 -1.73264334
  C  3.08226850  2.44579977  0.35429139
  C -1.31068640 -0.18965077 -0.51097724
  C -1.20463465  1.24268280 -1.09506959
  N -1.34593854  2.20496747 -0.17218563
  C -1.26980863  3.60827047 -0.49132114
  O -1.04168085  1.43541349 -2.27867426
  C -2.51635084 -0.72383538 -1.11179556
  N -3.48918434 -1.12094342 -1.56696015
  N -1.30554129 -0.20562576  0.96324414
  C -2.59820449 -0.29677404  1.63845374
  N -0.41412729 -1.23465126  1.41549055
  H -0.84353261 -3.74981419 -0.80322924
  H -0.95872696 -3.87440212  0.95767697
  H -2.05621492 -2.81872219  0.07486910
  H  2.11856889 -1.87124789  0.57554985
  H  1.36704194 -3.23653012  1.40679610
  H  1.62227535 -3.29898651 -0.33867864
  H -0.33935034 -1.61107592 -1.85657851
  H  1.72832202 -0.56190328 -2.00097164
  H  0.97312762  0.98941363  0.52255897
  H  3.03953879  1.36751857 -2.64330324
  H  3.98965007  0.20523296 -1.71538111
  H  4.47228410  1.90293680 -1.75275568
  H  3.96238312  3.05656163  0.24865965
  H  2.47075029  2.64319837  1.21868738
  H -1.42523270  1.92472765  0.79410434
  H -2.19628512  4.11548523 -0.21832303
  H -0.43363320  4.07696030  0.03047152
  H -1.11623519  3.69174442 -1.56577624
  H -2.64145001  0.46649705  2.42045209
  H -3.42938222 -0.14330117  0.95324287
  H -2.70842197 -1.27363462  2.11087197
  H  0.41359299 -0.77965003  1.80004760
