39
opt_min/./Product_332_opt.xyz
  C -0.40604400  2.97624100  0.05540300
  C  0.22190206  1.66865141 -0.35121205
  O  1.03359742  1.62916807 -1.24308543
  C -0.16461850  0.41342340  0.44043115
  C -0.09817180  0.72952919  1.93580304
  C -1.49935525 -0.24145444 -0.07650792
  C -2.14780850  0.59299806 -1.18266260
  C -2.54268015 -0.49759074  1.00915623
  C -0.95264775 -1.59440084 -0.65630539
  C -1.82179383 -2.41745546 -1.58061344
  N  0.34299697 -1.16475341 -1.18944016
  C  0.86201815 -0.70308284  0.06804691
  C  2.33411114 -0.28443675  0.15648077
  N  2.99082747 -0.35470427 -1.01335743
  C  4.35490702  0.10151124 -1.13527044
  O  2.83241020  0.03213938  1.21360700
  O  0.64080713 -1.80742006  0.99161459
  C -0.49909947 -2.38026583  0.59042282
  O -1.02348007 -3.32067650  1.10910786
  H -0.94342451  3.38355356 -0.79980932
  H -1.07456971  2.89260950  0.90262731
  H  0.39474438  3.67708486  0.28450313
  H  0.03945529 -0.18700216  2.50451787
  H  0.76457784  1.36111446  2.13477279
  H -0.99810988  1.22508670  2.28568192
  H -1.46499714  0.72687057 -2.01765054
  H -2.43703662  1.56539761 -0.79461027
  H -3.05153359  0.10582181 -1.53961755
  H -3.31457712 -1.15174716  0.60925764
  H -3.01371725  0.43469972  1.31374310
  H -2.12244991 -0.97919491  1.88669632
  H -1.19513586 -2.95424378 -2.28918915
  H -2.52266812 -1.81042105 -2.14268061
  H -2.37077280 -3.14632168 -0.98664393
  H  0.86811018 -1.95381082 -1.56169251
  H  2.44028381 -0.38832284 -1.85778478
  H  4.40455819  1.01627544 -1.72738488
  H  4.96404350 -0.66989882 -1.60829594
  H  4.73019719  0.29755458 -0.13243083
