36
opt_min/./Product_433_opt.xyz
  C  5.47037153  2.11800926 -0.28755109
  O  4.18793017  1.95224893  0.30030966
  C  3.82793479  0.70099922  0.60015360
  O  4.50800896 -0.27346898  0.39466538
  C  2.49360252  0.65426451  1.20815978
  C  1.61665921  1.60854005  1.53577412
  F  1.70624791  2.92075211  1.41003331
  C  0.38218792  0.90699125  2.08356370
  C -0.31630985  0.28687771  0.82102637
  C  0.63689511 -0.91580657  0.65136541
  C  1.78511190 -0.63086294  1.60763242
  O  0.99392381 -0.20193120  2.72139584
  C -0.10689865 -2.03529397  0.68907476
  C -0.38492801  1.28574031 -0.33672165
  O -1.44867145 -1.81179491  0.65539697
  C -1.64441672 -0.45977020  1.11250680
  C -2.90096024  0.17199303  0.51421583
  O -3.41401559  1.15061946  1.01377378
  N -3.34851101 -0.44640763 -0.58977870
  C -4.54845756 -0.04242389 -1.27901250
  H  6.24268814  2.08105567  0.48353953
  H  5.65776704  1.32613192 -1.01539875
  H  5.46375938  3.09348050 -0.76732318
  H -0.25545016  1.47544010  2.75358604
  H  0.22682428  0.97549534 -1.16755912
  H  1.52957855 -0.75730675 -0.88626915
  H  2.42307005 -1.47255426  1.85307871
  H  0.19887073 -3.02430646  0.97910542
  H -1.40024887  1.39494399 -0.70785833
  H -0.07914927  2.26465319  0.01986677
  H  1.99805330 -0.71839571 -1.68651600
  H -1.80432587 -0.50701703  2.20082500
  H -2.86513832 -1.27481658 -0.90189619
  H -4.34780052  0.08588279 -2.34314077
  H -5.34082398 -0.78242516 -1.15004435
  H -4.87140523  0.90477642 -0.84975386
