41
opt_min/./Product_4461_opt.xyz
  C -0.71088300 -3.00469300 -0.43483600
  C -0.89885938 -2.28413245  0.86567450
  C -1.27167767 -3.16406226  2.02807819
  C -0.82260499 -0.96966195  1.04106987
  C -0.49452301  0.05046095  0.00826123
  C -1.27697361  1.37395111  0.13574289
  C -2.47769376  1.43526840 -0.77201118
  C -2.22381985  1.53122381 -2.25013218
  C -3.70250698  1.43666482 -0.27043756
  O -0.34599906  2.42954732 -0.16675868
  N  0.88987546  1.89254184 -0.58423446
  C  0.97769753  0.58089745  0.03265036
  C  1.90201191 -0.38985727 -0.67400243
  O  2.16178003  0.01090619 -1.92227011
  C  3.00746443 -0.81107769 -2.72045783
  O  2.28433956 -1.42030698 -0.19414167
  C  1.48821299  0.83827477  1.46721461
  O  0.79255202  1.03406931  2.42264281
  O  2.81322153  0.88074449  1.45895793
  C  3.47740007  1.18182772  2.68348674
  H -0.23767859 -2.38475554 -1.19040553
  H -0.08135477 -3.88064066 -0.28252333
  H -1.67853891 -3.34206801 -0.80949453
  H -1.02358961 -4.20427741  1.82704890
  H -0.75560723 -2.84730757  2.93233822
  H -2.34270771 -3.10405367  2.21733824
  H -0.97877649 -0.56934989  2.03399150
  H -0.66375651 -0.35834185 -0.99401755
  H -1.59045760  1.52987591  1.17504309
  H -2.87620715  0.85068174 -2.79486653
  H -2.42678678  2.54588411 -2.59294872
  H -1.19150601  1.29413219 -2.50164144
  H -4.57379484  1.47761983 -0.90437290
  H -3.88151181  1.38861981  0.78841777
  H  0.86932203  1.80711969 -1.60434237
  H  3.41156660 -1.62287665 -2.11282316
  H  3.80973764 -0.18299123 -3.10677642
  H  2.42032370 -1.21796640 -3.54477404
  H  4.11555378  2.04944816  2.51448733
  H  2.74340627  1.38936575  3.46386462
  H  4.08351631  0.31693652  2.95708109
