48
opt_min/./Product_2360_opt.xyz
  C -0.81582036 -3.14708090 -2.00231006
  O -0.59354344 -1.97491598 -1.21865505
  C -0.68532261 -2.09279195  0.09740723
  O -0.88271647 -3.09811229  0.71010542
  C -0.40654182 -0.72588577  0.74995656
  F -0.49725884 -0.89367158  2.10015461
  C  1.03117092 -0.23810574  0.40312274
  F  1.50988763  0.42755700  1.50404815
  C  1.99035364 -1.38404262  0.06048686
  O  2.24256703 -1.71670934 -1.06641380
  O  2.44987016 -1.93104102  1.16110996
  C  3.32420814 -3.04953573  1.03546764
  C  0.77078848  0.77687364 -0.72632157
  C  0.67028197  0.19773456 -2.06608505
  N  0.55890285 -0.10135422 -3.16289518
  C  1.87046615  1.86646375 -0.87346479
  O  1.68278292  2.91574073 -1.40944691
  O  3.01366855  1.42967144 -0.37692428
  C  4.13852208  2.30215538 -0.48015058
  O -0.43883393  1.39704382 -0.34922000
  C -1.31168654  0.43777903  0.22356346
  C -2.31172487 -0.09030988 -0.82577630
  O -2.26356193  0.63669644 -1.91856402
  C -3.13020911  0.29360891 -2.99525249
  O -3.04567625 -1.02306817 -0.62121802
  C -2.15837678  1.08415546  1.30717881
  C -2.10905189  2.45752293  1.49780427
  C -2.90012649  3.04426764  2.46918137
  C -3.74497568  2.26749643  3.24397908
  C -3.80118000  0.89856602  3.04164995
  C -3.01446024  0.30190076  2.07310948
  H -0.33985584 -4.00779109 -1.53146177
  H -1.88907227 -3.32310507 -2.08699759
  H -0.37195389 -2.93367012 -2.97103857
  H  2.74881250 -3.96236167  1.19455318
  H  4.08107666 -2.94493064  1.80996883
  H  3.77875276 -3.06287245  0.04356897
  H  4.64331304  2.13026601 -1.43223965
  H  3.81361005  3.34160960 -0.42371090
  H  4.79578194  2.05275741  0.34887870
  H -2.51323224  0.21632641 -3.88920732
  H -3.63009502 -0.65333888 -2.78633537
  H -3.86654879  1.08867404 -3.11227725
  H -1.44963005  3.05316515  0.88682448
  H -2.85625411  4.11285681  2.61827867
  H -4.35905871  2.72799083  4.00331242
  H -4.46201470  0.28849531  3.63875517
  H -3.06913042 -0.76304747  1.91024307
