39
opt_min/./Product_4604_opt.xyz
  C  1.43073677 -2.27966176  0.37170971
  C  0.70612653 -1.08220230 -0.22782463
  C  1.22265037 -0.81162436 -1.64100452
  C -0.84860431 -1.23022039 -0.17291166
  C -1.40028018 -1.78358837 -1.46425901
  O -1.51553587 -1.16701152 -2.48339482
  C -1.34587205  0.20982621  0.14684925
  C -2.09137662  0.30000622  1.50913732
  C -3.16531434 -0.71099413  1.76649304
  O -1.81590401  1.19558873  2.25943250
  C -2.38698120  0.77172938 -0.83656043
  C -2.04624316  2.10056504 -1.42979510
  O -3.41505762  0.17842780 -1.03489007
  O -0.19653392  1.03714585  0.21041052
  C  0.87978115  0.21512291  0.62136935
  C  2.24026774  0.91394668  0.39533342
  N  2.12489673  2.17915365 -0.01883146
  C  3.28680791  3.01317156 -0.22765398
  O  3.28639786  0.33299255  0.58194706
  C  0.81879851 -0.09191017  2.04449569
  N  0.77211585 -0.34458412  3.15699762
  H  1.32044714 -3.14605753 -0.27683023
  H  2.48809339 -2.04235533  0.46683309
  H  1.04767044 -2.52788575  1.35938434
  H  1.05788370 -1.67465771 -2.28173256
  H  0.72114254  0.04589494 -2.08398535
  H  2.29233378 -0.61980887 -1.60532414
  H -1.10041630 -1.90565039  0.64797986
  H -1.66824989 -2.85486037 -1.40638159
  H -2.90375293 -1.27664041  2.65986536
  H -3.33507509 -1.37501810  0.92668011
  H -4.08632034 -0.17317238  1.98722247
  H -1.32074092  1.93898141 -2.22616945
  H -2.93910965  2.55337676 -1.85218895
  H -1.60095930  2.74439812 -0.67694220
  H  1.20170554  2.57987208 -0.06910361
  H  3.87643981  3.07729040  0.68874007
  H  2.96748021  4.00614498 -0.52866440
  H  3.91711320  2.57937082 -1.00544809
