63
opt_min/./Product_3146_opt.xyz
  F  0.14771800 -3.15042800 -1.69856900
  C  0.89169100 -3.40023616 -0.62019985
  F  0.83141902 -4.73149092 -0.44259766
  F  2.16050356 -3.14538300 -0.91587711
  C  0.40151859 -2.63474533  0.65316109
  F  1.49252694 -2.73640707  1.51321833
  C  0.27990819 -1.09648137  0.34648495
  C -0.70703076 -0.19343076  0.08056723
  C -2.20553351 -0.48328774 -0.14886936
  C -2.67037517 -0.31411571 -1.61357008
  F -1.65374014 -0.16039646 -2.46173801
  F -3.33631143 -1.40758014 -2.02113167
  F -3.50438759  0.70713155 -1.80495629
  C -3.19486201  0.21426638  0.79348658
  F -4.39664705 -0.37276784  0.69811221
  F -3.40422198  1.51355006  0.59642147
  F -2.81418641  0.08205000  2.07132443
  C -2.14985439 -1.95676032  0.24245863
  C -3.05489442 -3.12748632  0.54623841
  C -1.92107427 -4.15853223  0.80681211
  C -0.61893698 -3.57801702  1.42598152
  C -0.15848756  1.22487711  0.05350676
  C -0.53768073  1.99171907 -1.22646346
  C  0.47550598  2.05998294 -2.31535571
  O -1.62788783  2.51201594 -1.31777049
  C -0.63374987  1.93783299  1.39039886
  O -0.23260971  1.45894022  2.43743721
  N -1.33552720  3.05945915  1.29557511
  C -1.84057652  3.74494069  2.46424051
  N  1.24523606  1.01774097  0.27680795
  C  1.62470723 -0.38210963  0.23940618
  C  2.21048900 -0.61907838 -1.18552224
  N  3.52552780 -0.42127771 -1.29081745
  C  4.22677502 -0.61873262 -2.53693103
  O  1.45937098 -0.79136292 -2.12827932
  C  2.61678773 -0.61005414  1.42047964
  O  3.70378311 -1.14399715  1.28161808
  N  2.15610683 -0.09012467  2.55330594
  C  2.88049459 -0.18608489  3.79557508
  H -1.65997087 -1.83597719  1.20006531
  H -1.49470223 -2.35069063 -0.52995589
  H -3.66418705 -2.96602077  1.43344745
  H -3.68867768 -3.44408172 -0.27752260
  H -2.26741273 -4.93256312  1.49215170
  H -1.66931283 -4.64704268 -0.13472430
  H -0.83244768 -3.09200287  2.38152651
  H  0.00480856 -4.44460909  1.66875856
  H  0.08103766  2.66397431 -3.12847457
  H  1.41671214  2.47968181 -1.97020172
  H  0.66005329  1.04457938 -2.67347061
  H -1.75383667  3.30491918  0.40477228
  H -1.51584968  4.78547958  2.44779300
  H -1.44472223  3.25159247  3.35017549
  H -2.92981516  3.70709161  2.47974545
  H  1.89648209  1.68073047 -0.10800313
  H  4.06544109 -0.36868544 -0.43524843
  H  4.97842822 -1.39924365 -2.42589323
  H  3.49928899 -0.91841377 -3.28963160
  H  4.71228462  0.30803042 -2.84957749
  H  1.25506305  0.38878543  2.56095540
  H  3.83510507 -0.67099963  3.59715103
  H  2.31753125 -0.78001254  4.51668548
  H  3.04993672  0.80883295  4.20861436
