52
opt_min/./Product_2519_opt.xyz
  F  0.26968600  1.06816300 -2.55904100
  C  1.03140862  1.17321233 -1.47390716
  F  2.30768997  1.13380585 -1.90975663
  F  0.86151795  2.43035718 -1.04785682
  C  0.84800812  0.06347836 -0.41326381
  C  1.93080300  0.37803156  0.62197824
  C  1.86158534  1.58494571  1.32068895
  C  2.83950972  1.93024608  2.23348191
  C  3.90327691  1.08142459  2.47887492
  C  3.96556583 -0.12854532  1.81507724
  C  2.98873114 -0.47724229  0.89752853
  C -0.60664680 -0.07716061  0.21476236
  C -1.32803012  1.23296210  0.52644311
  C -1.70340146  2.10597243 -0.49584574
  C -2.35673350  3.29439901 -0.22994699
  C -2.66392278  3.65489358  1.06825102
  C -2.30000029  2.80437289  2.09383416
  C -1.64361560  1.61429271  1.83061460
  C -0.44222346 -0.89175100  1.53010060
  F -1.59111349 -1.15790275  2.15188239
  F  0.31672440 -0.32032239  2.47926806
  F  0.13165274 -2.09340283  1.32623833
  C -1.34151795 -1.04205676 -0.80902093
  C -2.30097439 -0.42905729 -1.84741288
  C -2.29495624 -2.07833185 -0.14437359
  C -1.95060738 -3.52380569 -0.34876565
  O -3.29744266 -1.70535192  0.40517913
  O -0.31175098 -1.68662405 -1.53696645
  C  0.98620137 -1.30127928 -1.16266032
  C  1.82563615 -1.33126939 -2.46946721
  C  3.27620599 -1.70692613 -2.34334052
  O  1.30650312 -1.12462144 -3.52749946
  H  1.02640791  2.25101828  1.18373626
  H  2.76032860  2.86939299  2.75821120
  H  4.66747229  1.35452716  3.19031045
  H  4.77431265 -0.81626298  2.00681786
  H  3.06641528 -1.43638641  0.41658340
  H -1.48793674  1.89093599 -1.52460307
  H -2.62442217  3.94093017 -1.05172906
  H -3.17577124  4.58062515  1.28083913
  H -2.52192693  3.05545226  3.11962892
  H -1.39222137  1.01189874  2.68425187
  H -1.75914709  0.13515354 -2.59689674
  H -2.78283161 -1.26076929 -2.35792156
  H -3.06411963  0.17252202 -1.36386511
  H -1.40304935 -3.66084615 -1.27465000
  H -2.86201513 -4.11415641 -0.33230770
  H -1.32211110 -3.84549819  0.48056220
  H  1.40139839 -2.05478424 -0.48244973
  H  3.55060406 -2.31081319 -3.20459218
  H  3.86861963 -0.79318237 -2.38651472
  H  3.51015855 -2.23509475 -1.42825135
