52
opt_min/./Product_1431_opt.xyz
  C -3.52983117 -1.25404123  1.74121719
  O -2.65089034 -1.53262361  0.67543178
  C -1.99333254 -0.44587597  0.04441620
  C -2.89432903  0.77643219 -0.14397967
  C -0.63018020 -0.05660265  0.75697973
  C -0.27362723 -1.06712380  1.84975841
  O -0.85074876  1.23788931  1.30408667
  C -0.24388672  1.63345223  2.51128131
  C  0.43815882  0.02184355 -0.43149320
  C  1.59073611 -0.98077100 -0.34306231
  C  2.91941495 -0.62126784 -0.53850702
  C  3.93006556 -1.56969972 -0.54200092
  C  3.63741255 -2.91086453 -0.38825945
  C  2.31251979 -3.29767725 -0.27509851
  C  1.30920762 -2.34824185 -0.26258491
  C  0.92915181  1.46497123 -0.50580082
  C  0.40261485  2.33798897 -1.44851197
  C  0.81969591  3.65655942 -1.50980370
  C  1.76873662  4.13088329 -0.62290616
  C  2.29479943  3.27393603  0.32804739
  C  1.88020525  1.95597498  0.38343351
  N -0.34619974 -0.26113220 -1.63385746
  C  0.35209461 -0.62615646 -2.84511913
  C -1.54750397 -0.98828706 -1.33505030
  C -2.52789954 -0.78070678 -2.38245425
  N -3.27236819 -0.65464982 -3.24201774
  H -4.47551154 -0.83683844  1.38283119
  H -3.09133929 -0.57498912  2.47652721
  H -3.72048106 -2.21705231  2.21375044
  H -3.23579044  1.16198825  0.81167892
  H -2.32575602  1.56055597 -0.63226755
  H -3.75514997  0.50592835 -0.75052711
  H -0.58083023 -2.06930730  1.57049248
  H  0.79264444 -1.06667795  2.06040222
  H -0.80836662 -0.81509583  2.76215083
  H -0.13804934  2.71648151  2.44536817
  H  0.73709515  1.18936999  2.67295254
  H -0.88620102  1.39900973  3.37052707
  H  3.18803860  0.40832078 -0.71749536
  H  4.95324242 -1.24874796 -0.67131627
  H  4.42472371 -3.65003761 -0.38831958
  H  2.05874397 -4.34554169 -0.20121456
  H  0.28761573 -2.68435985 -0.21033164
  H -0.33783674  1.98263722 -2.14717311
  H  0.39840283  4.31455598 -2.25559208
  H  2.09434485  5.15973744 -0.66859689
  H  3.03347683  3.63192656  1.03224818
  H  2.30599246  1.30649106  1.13464563
  H  1.13272977 -1.38520156 -2.70561376
  H -0.37061418 -1.01511649 -3.56083647
  H  0.81900726  0.26144361 -3.27846028
  H -1.43348654 -2.09090728 -1.24760473
