42
opt_min/./Product_1343_opt.xyz
  C -2.46406600 -1.45208500  3.62202100
  O -1.62676870 -1.64248457  2.48700785
  C -1.64305212 -0.70010236  1.56036680
  O -2.37878961  0.25124716  1.55898096
  C -0.66269729 -1.03472029  0.43278926
  C  0.30660252  0.09086333 -0.03206594
  C  0.32919988  1.33404093  0.84889654
  O  0.09560048  1.28536443  2.02901446
  O  0.68859464  2.40708750  0.17348176
  C  0.90009365  3.60258144  0.92130632
  C -0.03835367  0.29174659 -1.51404047
  C -1.44241818  0.90652854 -1.60718588
  C -2.36966922 -0.27454561 -1.23790735
  C -1.37865675 -1.39810632 -0.89463914
  C -0.32301407 -1.13909252 -1.97737487
  C  1.65082024 -0.67257708  0.20363754
  C  2.86800858 -0.17264841 -0.53390397
  O  3.33205853 -1.09585064 -1.36356296
  C  4.50605004 -0.74970393 -2.09199684
  O  3.32823336  0.92422750 -0.37893024
  O  1.30706880 -2.03590057  0.00299905
  N  0.24834145 -2.11172128  0.88167869
  O  0.86358566 -1.65230467  2.10117142
  C  1.76984780 -0.72453398  1.76662477
  O  2.50509729 -0.14541860  2.49254124
  H -2.67651820 -2.44355749  4.01356445
  H -3.38335997 -0.94163151  3.32874681
  H -1.93216754 -0.85153055  4.36042712
  H  0.26222143  3.60729427  1.80586537
  H  1.94882510  3.64485994  1.21711175
  H  0.65758581  4.43166087  0.26044958
  H  0.73706590  0.84424968 -2.04194360
  H -1.57897454  1.75315277 -0.93823983
  H -1.62328866  1.24859187 -2.62603755
  H -2.99027579 -0.57874551 -2.07946067
  H -3.02540603 -0.01924801 -0.41152344
  H -1.81914334 -2.39272257 -0.86067072
  H  0.53447026 -1.80410059 -1.96409063
  H -0.77000457 -1.16268897 -2.96935312
  H  5.34591337 -0.61540661 -1.40857566
  H  4.69674866 -1.57961490 -2.76745267
  H  4.34483718  0.17386406 -2.65046628
