44
opt_min/./Product_705_opt.xyz
  C -0.59658000  2.23093100 -2.99152500
  N -0.54719264  1.58636740 -1.70134199
  C -0.32537764  0.25898612 -1.56812559
  O -0.16105617 -0.47341810 -2.52258733
  C -0.30084761 -0.26317438 -0.14065037
  C -0.85875203 -1.70405638 -0.04263931
  C -1.85173792 -1.59618362  1.12361525
  C -3.07453111 -0.83718920  0.58756302
  C -2.57043165  0.61878234  0.49407636
  C -1.10251320  0.50810404  0.92481027
  C -1.21309961 -0.54541103  2.03042398
  C  0.40873923 -2.58086595  0.19534453
  C  0.88480701 -3.31229361 -1.08113001
  C  0.18450258 -3.56955783  1.22867857
  N -0.01139228 -4.36750777  2.02415234
  N  1.45833097 -1.66487118  0.59216108
  C  1.13156541 -0.46646774  0.35500979
  C  2.04092860  0.63234603  0.67845089
  C  2.71530461  0.59529825  1.89738086
  C  3.56479749  1.62200952  2.26163082
  C  3.75892567  2.69625852  1.41086111
  C  3.11451026  2.72664979  0.18543625
  C  2.26008371  1.70405875 -0.18249853
  H -0.20287962  1.53114949 -3.72803755
  H  0.00796183  3.13870932 -2.98566977
  H -1.62406692  2.48740801 -3.26102386
  H -0.67203309  2.16212682 -0.88521229
  H -1.36534347 -2.03390586 -0.94916363
  H -2.09123249 -2.54820873  1.59471200
  H -3.92226000 -0.92482021  1.26510841
  H -3.38290386 -1.22076839 -0.38533269
  H -2.70309270  1.03430237 -0.50369087
  H -3.10250483  1.25995059  1.19975710
  H -0.63741337  1.45170633  1.21513982
  H -1.87691200 -0.23711266  2.83727323
  H -0.25867075 -0.85249831  2.45302516
  H  0.34970389 -2.93783541 -1.94969149
  H  0.73945662 -4.38718907 -0.99757589
  H  1.94549744 -3.11478483 -1.22205084
  H  2.56019760 -0.24991923  2.54924417
  H  4.07749190  1.58454637  3.21073232
  H  4.41802952  3.50305698  1.69326069
  H  3.28294980  3.55192482 -0.49075510
  H  1.80014421  1.71269428 -1.15612475
