48
opt_min/./Product_2077_opt.xyz
  C  1.94720094 -2.15228721  2.05441483
  C  1.36939534 -0.86269087  1.56019357
  O  1.14866464  0.07833568  2.27521955
  C  1.08157662 -0.71855239  0.04969055
  C  1.19383004 -1.99404458 -0.77869608
  F  0.79932856 -1.79136076 -2.04134203
  F  0.46934785 -3.02638991 -0.31636846
  F  2.46321639 -2.42412038 -0.84381227
  C -0.25057454  0.01570526 -0.15985626
  C -0.44219703  1.28688528 -0.57215446
  C  0.35966844  2.42618068 -1.21166029
  C  1.74380323  2.97804419 -0.71505845
  C  3.09021479  2.30229725 -1.12568238
  C  3.38693258  0.91224771 -0.48650047
  C  1.96612344  0.40253931 -0.51526425
  C -1.94028409  1.57632587 -0.47143751
  C -2.48294601  1.89780406 -1.78806348
  N -2.93218896  2.12950569 -2.81192379
  C -2.19484771  2.78764314  0.47979446
  C -2.81230163  2.42653034  1.78026775
  O -1.92597454  3.89997922  0.11334760
  O -2.55142945  0.39998115  0.03177611
  C -1.58708999 -0.63520576  0.15764165
  C -1.67486693 -1.15873519  1.61572692
  O -1.73059420 -2.47613170  1.65384691
  C -1.87476492 -3.08662916  2.93579530
  O -1.70185233 -0.41668276  2.55709738
  C -1.90680183 -1.68736697 -0.80149731
  N -2.19453857 -2.45827137 -1.59248351
  H  1.27619728 -2.98018528  1.83226721
  H  2.09807637 -2.08222599  3.12938499
  H  2.89845108 -2.35539157  1.56696092
  H  0.46223154  2.16074339 -2.27066521
  H -0.30472712  3.29374211 -1.18606803
  H  1.79288980  3.98562711 -1.13773877
  H  1.71497015  3.10624941  0.37049999
  H  3.09031853  2.18743863 -2.21113511
  H  3.88674332  3.00123021 -0.87156324
  H  3.77437676  1.01691278  0.52583022
  H  4.10347495  0.35191024 -1.08507879
  H  1.53023462  1.18732669  0.07626000
  H  1.67110201  0.46104003 -1.56243422
  H -3.77638394  1.95207746  1.61136360
  H -2.18394704  1.69302491  2.28847623
  H -2.92568905  3.31840484  2.39067692
  H -2.28718911 -2.37222658  3.64895076
  H -0.90372916 -3.43448222  3.29129309
  H -2.54305841 -3.93535048  2.80218923
