44
opt_min/./Product_1575_opt.xyz
  C  2.63482803  2.57526800 -1.14022291
  N  1.88728446  1.65555748 -0.31283853
  C  0.77915451  1.05421754 -0.76137082
  O  0.33803712  1.23040106 -1.88116540
  C  0.10828046  0.05663521  0.18854877
  C  0.78207827 -1.33658190  0.11655743
  C  2.22606256 -1.44964340 -0.39339130
  F  2.66838034 -2.70290781 -0.20163883
  F  3.14939961 -0.65477624  0.17509191
  F  2.35396664 -1.19886462 -1.70483993
  C  0.71701926 -1.73986404  1.64300082
  C  1.88183854 -1.00791133  2.29003099
  C  1.50131575  0.26380654  2.31948182
  C  0.10081529  0.28643841  1.73509454
  O -0.36738650 -0.99679149  2.13951946
  C -0.08118384 -2.10040234 -0.91380510
  C -0.17374295 -3.51629433 -0.61801614
  N -0.22555435 -4.63484347 -0.39299603
  N -1.38620443 -1.46747989 -0.98779069
  C -1.95376566 -1.58179659 -2.31416383
  C -1.37076226 -0.17739130 -0.30254177
  C -1.84238913  1.06489858 -1.08216520
  O -1.57691425  2.15030306 -0.32229596
  C -2.00263308  3.39814600 -0.85458135
  O -2.51412350  1.10067992 -2.07138173
  C -2.50069173 -0.29681085  0.75062540
  H  2.27696717  3.59913088 -1.00765657
  H  3.68866171  2.52009774 -0.87841044
  H  2.49665965  2.28858622 -2.18200574
  H  2.20696985  1.50144012  0.63003841
  H  0.60303839 -2.80190889  1.84070015
  H  2.78522714 -1.47056471  2.63226643
  H  2.02859521  1.11711435  2.70030683
  H -0.54461861  1.09368847  2.06091994
  H  0.40485665 -2.00250677 -1.90444944
  H -2.98846209 -1.25297090 -2.28468260
  H -1.41439887 -0.98661843 -3.06021523
  H -1.92804461 -2.63425861 -2.59703483
  H -2.94648927  3.27447584 -1.38752311
  H -1.24786697  3.77564338 -1.54730937
  H -2.11879814  4.07355047 -0.00966360
  H -2.41048506 -1.22355061  1.30487197
  H -2.53425037  0.54351563  1.43560999
  H -3.43630143 -0.32572005  0.19379293
