51
opt_min/./Product_2022_opt.xyz
  C  0.48641198  2.28760562 -1.27914268
  O  0.62802364  1.25106584 -0.33765165
  C  0.01643591  0.01273298 -0.53985748
  C -1.50656499 -0.13166141 -0.17568337
  C -2.29350962  1.09588966  0.20920899
  C -1.75119192  2.04878268  1.06663655
  C -2.50490562  3.12623889  1.49609187
  C -3.82231698  3.25923525  1.09541914
  C -4.38020608  2.30109860  0.26685697
  C -3.62740065  1.22569552 -0.16714114
  C -2.02046299 -0.89996980 -1.43538213
  C -2.08144629  0.11442085 -2.55925331
  C -0.81749479  0.31921529 -2.89862738
  C  0.00116745 -0.57829617 -1.99416821
  O -0.88590795 -1.67076012 -1.79675927
  N -1.48259333 -1.04807727  0.96934480
  C -2.57129980 -1.54571772  1.48938676
  N -3.55494486 -1.97788106  1.89671810
  N -0.22344770 -1.15017419  1.57773651
  C  0.72263821 -0.99507407  0.48540596
  C  0.87451643 -2.38675326 -0.15737981
  O  0.09140311 -3.27215944  0.42940323
  C  0.10202420 -4.59428359 -0.08771187
  O  1.64221652 -2.64319329 -1.05152866
  C  2.05942219 -0.44043128  0.96523585
  C  3.27352754 -0.86969217  0.44713613
  C  4.46860814 -0.33725318  0.90239896
  C  4.47804968  0.64502488  1.87401369
  C  3.27406563  1.10225850  2.37979264
  C  2.08265323  0.56844680  1.92796998
  H -0.55937576  2.50709640 -1.51020982
  H  1.03549476  2.06895735 -2.19858407
  H  0.93767526  3.15771433 -0.80168772
  H -0.72494622  1.96649633  1.38826259
  H -2.06091987  3.85712492  2.15542527
  H -4.41325745  4.09582683  1.43594208
  H -5.41306928  2.38347349 -0.03737995
  H -4.09180302  0.47467061 -0.78572886
  H -2.88148719 -1.54024488 -1.26469741
  H -2.97573535  0.55023645 -2.95583356
  H -0.40877893  0.95507266 -3.65791296
  H  0.97008368 -0.90520306 -2.35924404
  H -0.10758760 -0.41344541  2.27523373
  H -0.08256382 -5.26214169  0.75095463
  H -0.69171883 -4.69197898 -0.83013213
  H  1.06448519 -4.80926044 -0.55502535
  H  3.30236133 -1.62588623 -0.31921661
  H  5.39816194 -0.69686105  0.48697544
  H  5.41099101  1.05728232  2.22845599
  H  3.25976756  1.88323440  3.12579776
  H  1.16664294  0.97543428  2.33050784
