47
opt_min/./Product_2633_opt.xyz
  C -4.10852072 -1.89173086 -0.64960311
  O -3.32598189 -0.83092161 -0.10354040
  C -2.03687398 -0.87842960 -0.33840000
  O -1.48122267 -1.69794717 -1.01823462
  C -1.26749941  0.32436987  0.28113854
  C -2.12240729  0.90360183  1.42164443
  F -3.13455329  1.62930179  0.91921665
  F -1.50277461  1.69710591  2.29275273
  F -2.66661348 -0.06102660  2.16917618
  C  0.16092439 -0.18395846  0.63414591
  C  0.10733804 -1.73247852  0.83356925
  O -0.73643506 -2.23577380  1.51821371
  O  1.11785225 -2.34801577  0.26676217
  C  1.15738064 -3.77396831  0.35628617
  C  0.77450984  0.22888052  1.98791175
  F  0.04466446 -0.16244351  3.02703667
  F  1.01149070  1.52849941  2.15239394
  F  1.96932806 -0.38098957  2.11265379
  C  1.01625269  0.32516489 -0.58040107
  C  1.80215647  1.52384362 -0.28664179
  N  2.46356263  2.44973458 -0.19014037
  C  2.05593307 -0.66564547 -1.19720576
  O  1.89779299 -1.21524930 -2.24006217
  O  3.13491903 -0.68521548 -0.43363332
  C  4.22558309 -1.50114789 -0.85440145
  O  0.07970247  0.61316108 -1.58918489
  C -1.03752458  1.23685922 -0.98779555
  C -0.63935654  2.71894875 -0.74393187
  O -0.52346339  3.02737744  0.52822550
  C -0.07329789  4.33959176  0.86846720
  O -0.43942050  3.45123164 -1.67030638
  C -2.18036974  1.22494063 -2.00437687
  H -3.84270496 -2.05589643 -1.69476925
  H -3.92913098 -2.80523755 -0.08178894
  H -5.14405491 -1.57803041 -0.55186747
  H  2.19935234 -4.05221420  0.49877999
  H  0.54461859 -4.11134152  1.19288580
  H  0.77629006 -4.18412319 -0.57926590
  H  3.89692681 -2.19821278 -1.62611551
  H  4.58362613 -2.03279390  0.02511338
  H  5.01216704 -0.85652223 -1.24538249
  H -0.68874919  4.67479327  1.69963829
  H  0.97127656  4.26593400  1.17154300
  H -0.17149536  5.00015859  0.00678954
  H -3.14604057  1.27743880 -1.51007081
  H -2.10944438  0.32502746 -2.61006734
  H -2.06182520  2.08436437 -2.65956306
