51
opt_min/./Product_2023_opt.xyz
  C -3.57542996 -1.06587745 -0.85850853
  O -2.48196431 -0.57148601 -0.10970274
  C -1.40479311 -0.03730100 -0.82468109
  C -0.34052917  0.56860997  0.15095614
  C -0.57585395  0.19913120  1.59289443
  C -0.69251891 -1.14579266  1.93099353
  C -0.86850211 -1.52534086  3.24879373
  C -0.91797873 -0.56938703  4.24828395
  C -0.77851716  0.76688066  3.92050358
  C -0.60589852  1.15044305  2.60149014
  C -0.46812464  2.07099841 -0.23154546
  C -1.85448096  2.53549769  0.17179247
  C -2.67991402  2.02583920 -0.72978761
  C -1.79013518  1.23752312 -1.66778426
  O -0.59271210  1.98448353 -1.64576218
  C  1.01413914 -0.06322325 -0.33629043
  C  1.91211377 -0.39019006  0.86930074
  O  2.35341177 -1.63795518  0.79777471
  C  3.19296953 -2.09470775  1.85335019
  O  2.22074676  0.39757969  1.72318326
  C  1.84178394  0.81956181 -1.27321563
  C  1.84112917  0.59935343 -2.64657430
  C  2.61485600  1.37948729 -3.48703883
  C  3.40752992  2.38949575 -2.97389978
  C  3.41188329  2.61873258 -1.60935898
  C  2.63673307  1.84229264 -0.76700236
  N  0.57990898 -1.31398997 -0.93705936
  N -0.66817027 -1.01243124 -1.58916324
  C -1.13388301 -1.80705055 -2.51463420
  N -1.50422173 -2.49758057 -3.35826360
  H -3.95934048 -0.32121671 -1.56054436
  H -3.30620505 -1.97105556 -1.40912723
  H -4.33857095 -1.30247401 -0.12018676
  H -0.64039685 -1.90013579  1.16161714
  H -0.96285862 -2.57337255  3.49331012
  H -1.05070089 -0.86520823  5.27855262
  H -0.79544001  1.51744047  4.69694251
  H -0.45911513  2.19305142  2.37351682
  H  0.37033758  2.69889221  0.05132383
  H -2.09653616  3.13237508  1.02713473
  H -3.74474825  2.10123889 -0.81896723
  H -2.11863634  1.05187924 -2.68679111
  H  3.64901430 -1.24421779  2.36261245
  H  2.59148837 -2.66502433  2.56284663
  H  3.95323658 -2.73161922  1.40647457
  H  1.21490114 -0.15774197 -3.09676267
  H  2.59096016  1.19424814 -4.55072267
  H  4.01242557  2.99486504 -3.63173027
  H  4.02208825  3.40711092 -1.19437723
  H  2.66489997  2.02947943  0.29564827
  H  1.24573011 -1.66529488 -1.62300382
