44
opt_min/./Product_4636_opt.xyz
  C -4.44673300 -0.56337000 -0.04429200
  C -3.77204118  0.27361154  1.00393083
  C -4.62778577  0.78745038  2.12103414
  C -2.46981991  0.58523139  0.94697106
  C -1.55659974  0.17126095 -0.09028972
  C -0.26455709  0.50689697 -0.09348711
  C  0.74241331  0.09863844 -1.12781698
  C  0.14976850  0.18410176 -2.53552584
  C  2.04895061  0.91945873 -1.01974965
  C  3.10071824 -0.17678824 -0.70032741
  C  4.43116192  0.30887835 -0.15927775
  O  4.24230852  1.21320014  0.80616885
  C  5.40681765  1.74992440  1.42248755
  O  5.50705843 -0.05584406 -0.53658040
  O  3.28621076 -0.92057604 -1.90769678
  C  2.17928688 -1.67908581 -2.02960766
  O  1.95647018 -2.42632943 -2.93325877
  C  1.31012605 -1.35965102 -0.80914929
  C  0.32348612 -2.44348182 -0.46632031
  N  2.40683022 -1.14432633  0.12775086
  C  2.16912726 -0.85550103  1.51761452
  H -5.50183814 -0.69407984  0.18148621
  H -4.36410611 -0.09511951 -1.02512942
  H -3.98652154 -1.54995826 -0.10538906
  H -5.45447965  0.11165996  2.32779324
  H -4.04497731  0.92011138  3.03070597
  H -5.04792257  1.75873347  1.85081182
  H -2.04125294  1.19427667  1.73380570
  H -1.96785021 -0.42949698 -0.88492449
  H  0.11005376  1.11648145  0.71914407
  H -0.63811258 -0.55190271 -2.67182327
  H -0.27120708  1.17594635 -2.69533555
  H  0.90850704  0.00430875 -3.29415141
  H  2.30752142  1.42247173 -1.95009459
  H  2.02343425  1.65369853 -0.21503538
  H  5.10885119  2.06500966  2.41994779
  H  6.19233442  0.99331586  1.46869605
  H  5.76239302  2.60484866  0.84329770
  H -0.35717879 -2.13193633  0.32351443
  H  0.86565833 -3.33272746 -0.15258539
  H -0.25353268 -2.68763759 -1.35532762
  H  1.88969029  0.18569059  1.71232515
  H  3.08208750 -1.08034433  2.07266674
  H  1.37663971 -1.50831353  1.87517144
