37
opt_min/./Product_462_opt.xyz
  C -0.62908500  2.83616100  0.02369400
  C -0.39242905  1.53437730 -0.69662638
  O -0.01925562  1.52661619 -1.84461324
  C -0.57769209  0.21583773  0.05295645
  C -1.79234967 -0.05732356  0.98020213
 Cl -2.64530076  1.32397231  1.71604973
  C -2.74265377 -0.93746345  0.14819671
  C -2.24961167 -2.37577283  0.29021595
  C -0.88843244 -2.31426191 -0.43402499
  C -0.82264316 -0.89178736 -1.00536045
  C -2.30474492 -0.62342864 -1.28173951
  N -1.20013581 -0.75345639  2.12185745
  N  0.01428326 -0.72204144  2.13991297
  C  0.58892069  0.06452404  1.06585561
  C  1.94307258 -0.32463539  0.55322423
  C  2.38528229 -1.63728374  0.46788271
  C  3.63850203 -1.92263348 -0.04139040
  C  4.46804108 -0.90467095 -0.47655728
  C  4.04152913  0.40773288 -0.37770547
  C  2.79303632  0.69609383  0.14023008
  H -0.34952160  2.81568189  1.07238386
  H -0.08558516  3.62086785 -0.50000197
  H -1.69415512  3.06431119 -0.02546394
  H -3.79165571 -0.77662049  0.38868858
  H -2.15019470 -2.66653487  1.33616293
  H -2.93496680 -3.07123095 -0.19735275
  H -0.83618363 -3.02787682 -1.25636987
  H -0.07802081 -2.53321965  0.25474721
  H -0.13851661 -0.79859830 -1.84703741
  H -2.73847650 -1.31005284 -2.00931463
  H -2.51264551  0.40014743 -1.58834314
  H  0.71064547  1.05127579  1.54091596
  H  1.77156828 -2.44072298  0.83781470
  H  3.96890279 -2.94968880 -0.09764176
  H  5.44271697 -1.13181539 -0.88040474
  H  4.68512581  1.21257141 -0.70223432
  H  2.46947331  1.72477036  0.20961481
