27
opt_min/./Product_368_opt.xyz
 Cl  1.11438600 -0.67363800 -2.09552300
  C  0.25635057 -0.41662361 -0.53674162
  C -1.14727242 -1.10304469 -0.47073995
 Br -1.71016055 -2.08534847 -2.08403465
  C -2.10039070  0.08007214 -0.23712794
  C -1.89766014  0.61341293  1.18671587
  C -0.51565110  1.29532486  1.11351639
  C -0.08956290  1.07160893 -0.34431791
  C -1.42772450  1.16330374 -1.07936831
  C -0.93261644 -2.07969882  0.63919889
  N  0.22831864 -2.02359164  1.14238388
  N  0.97897268 -1.06590185  0.53994871
  C  2.24078188 -0.81357387  1.07158568
  C  3.03484036  0.29755123  0.43555720
  O  2.63909097 -1.45440175  2.00613304
  H -3.13346405 -0.15727894 -0.48190231
  H -2.68178648  1.33386911  1.41942563
  H -1.93139541 -0.17703393  1.93514529
  H -0.58833402  2.36311293  1.31464420
  H  0.19115566  0.87018070  1.82379999
  H  0.69324800  1.74389761 -0.68632157
  H -1.35739369  0.90629455 -2.13464415
  H -1.89783317  2.13788409 -0.97047990
  H -1.65718376 -2.80058807  0.96559067
  H  2.97502834  1.16807468  1.08847050
  H  2.70610943  0.56718399 -0.55863884
  H  4.07599647 -0.01831792  0.40196364
