42
opt_min/./Product_841_opt.xyz
 Cl  0.72721900  1.74435300  2.06730900
  C -0.08872374  1.47101570  0.49119545
  C -1.33155918  0.57569349  0.62491171
  C -2.47437570  1.64992765  0.63830140
  C -2.67590242  2.15449616 -0.77274488
  C -1.59423092  2.87407370 -1.03013774
  C -0.78408068  2.85951423  0.24595867
  O -1.80733017  2.75397831  1.22765320
  C -1.22457760 -0.45853489 -0.51497436
  C -1.15705201 -1.89435748  0.04208498
  C -2.25081001 -2.31488272  0.98839396
  O -0.28548362 -2.64957142 -0.30852607
  C -2.37128318 -0.53861363 -1.54120957
  N -0.00367261 -0.15149361 -1.25614077
  C  0.85067203  0.82660330 -0.54953875
  C  1.37899438  1.85517482 -1.55779796
  C  1.99118768  0.01939153  0.07660568
  C  3.24541623 -0.05435518 -0.52003251
  C  4.23131006 -0.88250666 -0.01089618
  C  3.98037867 -1.67380233  1.09332256
  C  2.72248366 -1.64845043  1.66749819
  C  1.73892831 -0.82329815  1.15781236
  H -1.33033725  0.06312857  1.58740791
  H -3.35333018  1.37292625  1.21313587
  H -3.54205201  1.96280879 -1.37274612
  H -1.32218532  3.40136341 -1.92269736
  H -0.13561261  3.71091114  0.43056968
  H -3.10024329 -1.64065225  0.97186007
  H -2.56343424 -3.32793877  0.74608615
  H -1.83826550 -2.34085622  1.99696327
  H -2.23006773 -1.44283051 -2.13168455
  H -2.31780969  0.30517749 -2.21772481
  H -3.34179610 -0.58040655 -1.05653547
  H  0.52020221 -1.01915310 -1.36760874
  H  0.67453986  2.66122579 -1.70931030
  H  1.53160677  1.36538868 -2.51610432
  H  2.31391512  2.28515435 -1.21123630
  H  3.47122440  0.53064832 -1.39575856
  H  5.19794858 -0.90890627 -0.49272055
  H  4.74891001 -2.31753638  1.49487397
  H  2.50022589 -2.28145817  2.51387630
  H  0.76025359 -0.85194690  1.60864703
