50
opt_min/./Product_1692_opt.xyz
  C  2.55395603  0.57484719  2.03977176
  C  1.45633640 -0.33205608  1.57349826
  O  1.55326239 -1.53702329  1.64785625
  C  0.14380653  0.28920128  1.12574337
  C  0.07433378  1.13802898 -0.18404133
  C  1.26679042  1.24914412 -1.11839526
  C  2.36867624  0.40631015 -1.10367481
  C  3.38532865  0.54338838 -2.03454655
  C  3.31904094  1.51804390 -3.01093052
  C  2.21224563  2.34818274 -3.05822385
  C  1.19951667  2.20945266 -2.12968694
  C -0.26362846  2.56063636  0.41773311
  C -1.70154271  2.51185139  0.88289270
  C -1.67245027  1.77844522  1.98598835
  C -0.21790994  1.42181251  2.18424541
  O  0.45041010  2.53440276  1.63273993
  C -1.11895173  0.53346183 -0.97124673
  C -0.66878308 -0.04577840 -2.23456344
  N -0.40330056 -0.51464694 -3.24377666
  N -1.78287640 -0.41558143 -0.09636935
  C -2.62904291 -1.38660161 -0.75854531
  C -0.92330028 -0.82349193  1.00192079
  C -1.64143173 -0.96151520  2.36782023
  C -3.11547071 -1.22725897  2.37231886
  O -0.99215040 -0.91196837  3.38111282
  C -0.35612374 -2.27310394  0.76513631
  C  0.36931399 -2.53544428 -0.53578207
  O -0.74513983 -3.17694536  1.46456495
  H  2.36075487  0.83156514  3.08087359
  H  3.50622560  0.04984809  1.99957798
  H  2.59333610  1.49702523  1.46927986
  H  2.45676579 -0.37921822 -0.37393714
  H  4.22820570 -0.12995585 -1.99426908
  H  4.11135464  1.62120196 -3.73596459
  H  2.12993805  3.10270766 -3.82563707
  H  0.33204737  2.84784628 -2.21784733
  H  0.03539505  3.41309760 -0.18232003
  H -2.52844785  2.97098496  0.37910994
  H -2.46770189  1.48979608  2.64199550
  H  0.09277689  1.20919356  3.20035499
  H -1.84040191  1.31674393 -1.25408691
  H -2.85311807 -2.20339843 -0.08025493
  H -3.56413283 -0.89923366 -1.05065917
  H -2.17705450 -1.80904134 -1.66333044
  H -3.25317531 -2.29915711  2.23085012
  H -3.52365978 -0.96904381  3.34779499
  H -3.62846743 -0.68525730  1.58600797
  H -0.28317157 -3.12294495 -1.18206862
  H  0.66798403 -1.63491581 -1.05905590
  H  1.24423145 -3.14422442 -0.32077012
