38
opt_min/./Product_4674_opt.xyz
  C -1.27177500  0.58798700  1.00284700
  O -1.49421849  1.50924908  1.76326192
  C -0.22743143 -0.48580649  1.41647925
  O -0.84219701 -1.59305458  1.99757070
  C -1.41523982 -1.36899983  3.27624693
  C  0.60671179 -0.84771954  0.15646545
  O  1.63673993 -1.77158411  0.36238328
  C  1.29900288 -3.07478649  0.79660140
  C -0.24928572 -1.19582596 -1.06150503
  O  0.02476593 -2.14354741 -1.75512185
  C -1.45933014 -0.37741889 -1.25783410
  C -2.12519713 -0.53561436 -2.58253566
  C -1.93291555  0.44614723 -0.29567004
  C -3.14996315  1.29517448 -0.48317220
  N  1.25596586  0.44733192  0.04548125
  C  1.65023396  1.01345120 -1.11820003
  O  2.53079797  1.99785594 -0.91720683
  C  2.91680172  2.74296085 -2.06535814
  O  1.18292296  0.67856146 -2.18207633
  N  1.67744130  0.84869807  1.33637624
  N  0.79166857  0.15802677  2.25015344
  H -1.92295431 -2.29768556  3.52700512
  H -2.13662287 -0.54788084  3.25637023
  H -0.63968729 -1.15667640  4.01610365
  H  0.46065521 -3.48631168  0.23339615
  H  1.05921175 -3.08228846  1.86260138
  H  2.19166183 -3.66856109  0.60946084
  H -2.06056576  0.39295224 -3.14835751
  H -1.62096631 -1.31793985 -3.14342112
  H -3.17671877 -0.79003931 -2.45995364
  H -3.07072704  2.17434747  0.15327552
  H -3.26862359  1.59784406 -1.51873457
  H -4.03969518  0.74269643 -0.17842857
  H  2.35963673  3.68152323 -2.08990643
  H  3.98224515  2.94453351 -1.97166769
  H  2.71152346  2.16951645 -2.97097903
  H  2.62244440  0.48562093  1.51594322
  H  0.33848078  0.87027893  2.83065758
