51
opt_min/./Product_1332_opt.xyz
  C -0.19298300 -0.01937800 -2.43670900
  C  0.76111543  0.53188771 -1.38251150
  C  0.32418638  0.37069427  0.09000497
  C  1.00143979  0.56544047  1.25986133
  C  2.26515851  1.29696536  1.74860173
  F  2.07970127  1.54397998  3.08757180
  F  2.28377197  2.56995786  1.21557591
  C  3.70642307  0.67538122  1.66891696
  C  4.24840766  0.35638116  0.24411408
  C  2.90474585  0.19734291 -0.43782284
  C  2.18532568 -0.06473462 -1.73431360
  C  0.22064032 -0.09180003  2.39691213
  N -0.68453514 -0.99600165  1.71083914
  C  0.01702432 -2.22784633  1.33819370
  C -1.06528655 -0.15274514  0.57105576
  C -1.85906925  1.03715478  1.22028313
  O -2.78241283  0.84314101  1.97392683
  N -1.48812889  2.27399938  0.82842819
  C -2.14100324  3.44373980  1.37496434
  C -2.15277508 -0.72788903 -0.31479373
  C -2.88456638  0.14121601 -1.12674000
  C -3.94789965 -0.30337838 -1.88751819
  C -4.33935056 -1.62968777 -1.82980800
  C -3.67629298 -2.48370912 -0.97077970
  C -2.60840597 -2.03544752 -0.20927293
  H  0.30723902  0.02592536 -3.40277081
  H -0.44670901 -1.05666306 -2.23522481
  H -1.10788013  0.55365387 -2.51321654
  H  0.86116237  1.61338978 -1.55811781
  H  3.65451565 -0.24044542  2.26007407
  H  4.34902474  1.38616282  2.19676480
  H  4.86959565 -0.53765126  0.26318906
  H  4.83090675  1.18853484 -0.14885904
  H  2.43972905 -0.54846684  0.20877866
  H  2.52114211  1.19450823 -0.26189752
  H  2.11566234 -1.12266031 -1.98488834
  H  2.57662863  0.48060596 -2.59233291
  H -0.35127454  0.64031556  2.97313325
  H  0.87094974 -0.62049186  3.09436340
  H  1.07989281 -2.18176014  1.59151804
  H -0.42016966 -3.06187549  1.88917279
  H -0.04999404 -2.42716553  0.27002193
  H -0.65425366  2.40505715  0.28005468
  H -1.82483740  4.32395946  0.82205636
  H -3.22154208  3.32079384  1.29507281
  H -1.89154420  3.57019064  2.43143330
  H -2.63504944  1.19253176 -1.15517866
  H -4.48626595  0.39536599 -2.51142862
  H -5.16934579 -1.98152244 -2.42394172
  H -3.99857116 -3.51015479 -0.87264893
  H -2.16036510 -2.71871240  0.48854968
