30
opt_min/./Product_160_opt.xyz
  C  4.08599800  0.14186600  0.96847900
  O  2.87200564  0.34182157  0.25831548
  C  1.98383135 -0.63963175  0.24992964
  O  2.12684657 -1.69459724  0.81077373
  C  0.74993791 -0.21353502 -0.54890683
  C -0.30088075  0.55070493  0.29796312
 Cl  0.08280219  0.64434065  2.04130993
  C -1.61571842 -0.17447952 -0.00567671
  C -1.60737752 -1.55901847  0.64779788
  C -0.56231921 -2.33502910 -0.17379122
  C -0.10106985 -1.30984191 -1.22101806
  C -1.40197906 -0.54226979 -1.47862972
  C -0.20421934  1.92829457 -0.32051818
  C -0.99627866  3.08876109  0.15234915
  N  0.60485172  1.96488776 -1.29491367
  O  1.17640585  0.75247123 -1.52929432
  H  4.03570800 -0.78972948  1.53756151
  H  4.21674849  0.99029188  1.63942726
  H  4.90227097  0.10010853  0.24613840
  H -2.48932217  0.42624400  0.24532045
  H -2.60071226 -2.00322719  0.55421816
  H -1.35683792 -1.50860895  1.70670318
  H -1.00579112 -3.19778647 -0.67013376
  H  0.26922031 -2.68078834  0.43361908
  H  0.40202197 -1.73486765 -2.08438385
  H -1.28449603  0.31188902 -2.14599607
  H -2.19136433 -1.18290753 -1.86729305
  H -1.94822414  3.12000827 -0.37905117
  H -1.18513636  2.99599318  1.21919823
  H -0.45804938  4.00914680 -0.05751885
