51
opt_min/./Product_5389_opt.xyz
  C -1.38303400 -1.41046900 -1.23681400
  C -1.29960131 -0.50896338 -2.43070289
  C -0.93990622  0.76557445 -2.30814310
  N -0.50773222  1.34980041 -1.13269907
  C -0.74093435  2.77916158 -1.02561837
  C -0.60740796  0.56855829  0.07168214
  C -1.65299953 -0.56057219  0.01561162
  C -3.05430123  0.03165292 -0.02858391
  N -4.05584695 -0.87118723 -0.13719862
  O -3.28106396  1.21954621  0.04242306
  C -1.30675661 -1.30268470  1.34320165
  C -1.79717404 -0.52022454  2.57639846
  C -1.81423642 -2.74104698  1.43233439
  N  0.14824668 -1.29680407  1.35150764
  C  0.68201361 -0.16501996  0.60333015
  C  1.40687121  0.77698467  1.60303238
  N  1.80352931  1.93957842  1.04474626
  C  2.54625247  2.93746315  1.77402309
  O  1.60281635  0.48852605  2.76012118
  C  1.77191385 -0.58514722 -0.37181114
  C  2.09170204  0.12222409 -1.52731136
  C  3.12443085 -0.28695479 -2.35406926
  C  3.89000268 -1.39250189 -2.03448828
  C  3.62242303 -2.07315873 -0.85975889
  C  2.58490156 -1.67022067 -0.03954063
  H -2.16932891 -2.14939831 -1.39931160
  H -0.43881003 -1.95582432 -1.11566466
  H -1.54209171 -0.92183046 -3.39464223
  H -0.91723019  1.42976870 -3.16014380
  H -0.47424513  3.12895817 -0.03094804
  H -0.12137752  3.30128595 -1.75982478
  H -1.78954280  3.03579148 -1.20190984
  H -0.91916544  1.24573460  0.87296194
  H -3.89505638 -1.85888823 -0.19976577
  H -4.99983152 -0.51788907 -0.15995538
  H -2.02657849 -1.20690167  3.38625202
  H -2.68359726  0.06980241  2.36014077
  H -1.00760700  0.13887915  2.92447033
  H -1.34897580 -3.21481331  2.29422282
  H -1.55993230 -3.32141821  0.54873516
  H -2.89119560 -2.76215278  1.57939043
  H  0.52138487 -2.18220835  1.04223992
  H  1.65587292  2.08493474  0.06006482
  H  2.00854255  3.88792065  1.78585920
  H  3.53242441  3.09092525  1.33048740
  H  2.66092243  2.57527897  2.79416000
  H  1.52233964  0.98494409 -1.82290139
  H  3.33127054  0.27333540 -3.25385275
  H  4.69350558 -1.71147085 -2.68030858
  H  4.22914447 -2.91876993 -0.57065362
  H  2.44248634 -2.18860198  0.89626108
