53
opt_min/./Product_1783_opt.xyz
  C -4.71470500  1.36244600 -2.04809700
  O -3.85855736  1.18457036 -0.92851032
  C -2.74426192  0.47197910 -1.10135325
  O -2.42477314 -0.04487625 -2.13758605
  C -1.92575003  0.45938013  0.18915242
  C -0.54748792  0.00621879 -0.14796868
  C  0.02661272 -1.21376559 -0.27536956
  C -0.34979786 -2.64210234 -0.03718705
  C -1.63606462 -3.05266580  0.68288391
  C -2.93908819 -2.51157586  0.08931682
  C -3.56645122 -1.39734107  0.92895917
  C -2.60552811 -0.29032811  1.34856860
  C  1.32962087 -0.97325433 -0.90613844
  C  2.31433919 -2.00760191 -1.34128351
  N  2.83364816 -2.71287856 -0.30677036
  C  3.86803562 -3.69921699 -0.50293569
  O  2.62039582 -2.18850260 -2.49913164
  N  1.55141634  0.26203840 -1.16691069
  C  0.48685301  1.01752242 -0.59600347
  C  0.97323294  1.61816439  0.77005061
  O  1.92326427  1.16210973  1.35984917
  N  0.18624373  2.60877092  1.21192571
  C  0.46017139  3.31145114  2.44284192
  C  0.10031133  2.16517216 -1.51946552
  O -0.89690937  2.85232854 -1.32960196
  N  0.99500747  2.38474022 -2.47961555
  C  0.86185203  3.43121032 -3.45932774
  H -4.23174021  0.97721580 -2.94805047
  H -4.90884913  2.42940879 -2.15086321
  H -5.64962245  0.82976425 -1.86811592
  H -1.88631119  1.51704747  0.46199529
  H -0.34658606 -3.11775036 -1.02428105
  H  0.46737308 -3.10258404  0.52600590
  H -1.65497929 -4.14509653  0.61504157
  H -1.57678518 -2.81808176  1.74717851
  H -3.66941134 -3.32510309  0.05703680
  H -2.77938022 -2.18888249 -0.93833080
  H -4.39847916 -0.95390437  0.37914381
  H -3.98481721 -1.84317028  1.83593955
  H -1.82542655 -0.69851576  1.99089392
  H -3.17024972  0.43795940  1.93401265
  H  2.66562255 -2.39013880  0.63335952
  H  3.94673056 -3.87490125 -1.57437849
  H  4.83021930 -3.34696221 -0.12554385
  H  3.60312945 -4.62928765  0.00275962
  H -0.45640778  3.03879408  0.55149712
  H  1.25739089  2.78221810  2.96240208
  H -0.43654370  3.32579138  3.06392181
  H  0.77731095  4.33736075  2.25011873
  H  1.78894240  1.75247289 -2.50627383
  H  1.83684707  3.87213734 -3.65934768
  H  0.44635065  3.04052995 -4.39147455
  H  0.18518039  4.18989198 -3.06685281
