36
opt_min/./Product_447_opt.xyz
  C  1.39257700  3.83341900  0.75645200
  O  1.34318921  2.60082120  0.06181947
  C  0.24089837  1.82787454  0.19042058
  C  0.17019061  0.46664283  0.02815393
  C  1.26751879 -0.45298439 -0.20562430
  C  1.07950051 -1.78167445 -0.60095314
  C  2.15952778 -2.62260281 -0.78623378
  C  3.45321731 -2.17584470 -0.57823838
  C  3.65578201 -0.86111986 -0.18947759
  C  2.58351436 -0.01198964 -0.01200565
  C -1.30942534  0.13448437  0.19391436
  C -1.95716391 -0.47493835 -1.07171245
  O -1.81359190 -1.61415827 -1.42523574
  O -2.67854214  0.43009764 -1.69491062
  C -3.37865222  0.02532190 -2.86895816
  C -1.65722569 -0.84416643  1.33773906
  O -2.71685043 -0.86783794  1.88913516
  O -0.63321273 -1.63448287  1.61555842
  C -0.83876034 -2.62304077  2.61942507
  N -1.97656115  1.37939637  0.46874295
  C -1.09939908  2.30735111  0.44321722
  H  1.37471782  4.65419588  0.03637570
  H  0.57128589  3.94763582  1.46358484
  H  2.33446791  3.86581032  1.30946758
  H  0.08850662 -2.15951249 -0.77624340
  H  1.98457773 -3.64317586 -1.09618405
  H  4.29191710 -2.84102880 -0.72032111
  H  4.65980779 -0.49595208 -0.02615544
  H  2.76695997  1.00693336  0.28396757
  H -3.31720786  0.84994138 -3.57541717
  H -4.41853024 -0.16886673 -2.60749503
  H -2.92561754 -0.87572056 -3.28531969
  H  0.15098293 -2.88797882  2.98412871
  H -1.45942549 -2.22483512  3.42278076
  H -1.32416881 -3.49692137  2.18390771
  H -1.39068091  3.33301123  0.58835678
