51
opt_min/./Product_5845_opt.xyz
  C  1.24720300 -0.98547400 -1.15561300
  O  1.56477913 -1.36143607 -2.26208039
  C  2.08797090 -1.21609882  0.03346622
  O  2.83825695 -2.31837636  0.15991886
  C  2.56001689 -3.43509501 -0.66906652
  C  2.24582608 -0.21820702  0.96406818
  O  3.15991939 -0.45051358  1.93219898
  C  3.25511114  0.40334166  3.05639324
  C  1.47728958  1.01978166  0.87108801
  O  1.74194145  2.03615730  1.48504136
  C  0.17239547  0.99273247  0.05535822
  C  0.04473010  2.35282713 -0.62923558
  C -0.03315099 -0.20059859 -0.91106727
  C -0.62288630  0.16499134 -2.27749202
  C -1.11547983 -1.03681991 -0.11903293
  C -1.69755041 -2.23073546 -0.83370856
  O -1.04569617 -2.94851575 -1.54237508
  O -2.97041606 -2.42617883 -0.50970770
  C -3.59046847 -3.60835313 -1.00909308
  C -0.40860776 -1.48947391  1.18712922
  O -0.04189665 -2.58175788  1.48655716
  O -0.33927902 -0.39523116  1.93726990
  C -0.94029444  0.67683219  1.16145515
  C -1.36097267  1.74676247  2.18777757
  N -1.88137078  2.87472220  1.66720342
  C -2.29462783  3.96957079  2.51525275
  O -1.26231835  1.53594515  3.36959382
  N -1.96400907 -0.02653947  0.46471940
  C -3.26510898  0.40743553  0.04369737
  H  3.09714913 -4.26496240 -0.21325309
  H  2.92288375 -3.26545435 -1.68496554
  H  1.49094917 -3.65345678 -0.69800324
  H  3.91746689 -0.12102499  3.74363947
  H  3.67941720  1.37423287  2.79685334
  H  2.27865116  0.54992556  3.52487950
  H  0.77773687  2.41158580 -1.43138296
  H  0.27966901  3.13802936  0.08649580
  H -0.94116772  2.51204765 -1.05910889
  H -0.73765603 -0.74872928 -2.85584525
  H -1.59006907  0.65059960 -2.18736508
  H  0.05487119  0.81147992 -2.82806826
  H -3.11579407 -3.91419914 -1.94289834
  H -4.64083814 -3.37107836 -1.16532134
  H -3.48899735 -4.40538291 -0.27168238
  H -1.88152494  3.03578030  0.67522499
  H -1.75621596  4.87899453  2.24798333
  H -2.06189329  3.69591838  3.54260668
  H -3.36798263  4.14355229  2.42285804
  H -3.34083600  1.49387205  0.08518048
  H -4.03396678 -0.01962004  0.69624407
  H -3.46027891  0.07895366 -0.97635662
