37
opt_min/./Product_607_opt.xyz
  C -3.49511200 -3.04326600  0.05423200
  C -2.90223815 -1.71321859  0.42220594
  O -3.53916711 -0.83462856  0.96272616
  C -1.48326544 -1.53144527  0.08625739
  C -0.67965287 -0.44434086  0.09240417
  C -0.84777590  0.91619015  0.54101209
  C -1.52692807  1.20353235  1.72562490
  C -1.65057229  2.51224154  2.14990169
  C -1.11245637  3.54520665  1.39951767
  C -0.44524188  3.26687314  0.21862362
  C -0.30231618  1.96217178 -0.20792644
  C  0.61434063 -0.97026241 -0.59719481
  C  1.86338518 -0.18442741 -0.43134489
  C  2.59277026  0.23890705 -1.53428331
  C  3.74571426  0.98116652 -1.35035869
  C  4.17257108  1.29951932 -0.07255692
  C  3.44606708  0.87399016  1.02619868
  C  2.29188712  0.13353146  0.85154516
  N  0.63942518 -2.35459922 -0.14519876
  N -0.72429189 -2.65053892 -0.49089882
  C -0.65390050 -2.22734348 -1.89096366
  O -1.27883086 -2.69999260 -2.77848706
  O  0.20688785 -1.20643562 -1.96618394
  H -3.77807105 -3.56206123  0.96988880
  H -2.79971758 -3.65009249 -0.51591976
  H -4.40683293 -2.87694951 -0.51717229
  H -1.95051521  0.40037941  2.30543215
  H -2.17422897  2.72686484  3.06921219
  H -1.21701496  4.56722990  1.73239803
  H -0.03188950  4.07051138 -0.37331866
  H  0.20540736  1.74716072 -1.13620861
  H  2.24836453 -0.01771246 -2.52418007
  H  4.31084415  1.31103403 -2.20915317
  H  5.07214979  1.88011301  0.06847164
  H  3.77618019  1.12076595  2.02434113
  H  1.71911690 -0.18752287  1.71037639
  H  0.77208445 -2.46343726  0.85735966
