38
opt_min/./Product_959_opt.xyz
  C  1.02890200  4.03786100 -1.95515300
  O  0.78936629  3.02289732 -0.98220270
  C  0.37650258  1.84176897 -1.41745026
  O  0.17209201  1.55267205 -2.56268382
  C  0.21099829  0.82773501 -0.27948617
  C  1.57214430  0.29725808  0.28568763
  F  2.66699918  0.94786393 -0.22073869
  C  1.38998501  0.53824320  1.81502829
  C  1.47969322  2.03807176  1.99915208
  C  0.33824685  2.51332530  1.52459872
  C -0.44568999  1.30371647  1.05807547
  O  0.00289797  0.28808971  1.94394397
  N  1.58232494 -1.07941244 -0.08977762
  C  2.24744590 -2.08618790  0.53546642
  O  3.04216143 -1.92726408  1.42422217
  O  1.89002596 -3.27691463  0.00689376
  C  2.52830646 -4.42619316  0.55330628
  N  0.65166366 -1.25271372 -1.16103479
  N -0.40753734 -0.36576040 -0.82192014
  C -1.76225512 -0.60812418 -0.79833969
  N -2.15043720 -1.85125494 -1.18131440
  C -3.54804371 -2.20287373 -1.26009297
  O -2.54682885  0.27105503 -0.50149480
  H  0.98994239  3.60919176 -2.95734415
  H  2.01428191  4.45410495 -1.75366230
  H  0.26489311  4.80788838 -1.84723278
  H  1.99275631 -0.10801434  2.44378149
  H  2.33700353  2.54461434  2.39156725
  H -0.01505064  3.52097318  1.45886556
  H -1.52777462  1.36501130  1.02609385
  H  3.41146031 -4.12515552  1.11809954
  H  2.80590510 -5.06853468 -0.28045481
  H  1.83040983 -4.94473769  1.21286330
  H  0.35609425 -2.23181350 -1.16661978
  H -1.48713500 -2.55911105 -1.44451856
  H -3.81756480 -2.91314529 -0.47486544
  H -3.77511228 -2.63587341 -2.23481322
  H -4.12232139 -1.28830192 -1.12591306
