45
opt_min/./Product_4796_opt.xyz
  C -1.70455100 -3.69710700 -1.22633400
  C -1.76935350 -2.24099208 -0.87306798
  C -3.10155282 -1.58939178 -1.10878405
  C -0.70127644 -1.60601568 -0.40654982
  C -0.62555694 -0.16127526 -0.00187286
  C -1.47654532  0.15890584  1.24755729
  C -1.88957694  1.61841821  1.33605201
  C -2.53796464  2.17799033  0.10232077
  C -1.78100772  2.36242698  2.42624604
  N -0.63989959 -0.34802414  2.33781740
  O  0.72129153 -0.40120254  1.86957946
  C  0.75627534  0.17523557  0.58377590
  C  0.92158774  1.70381653  0.63458772
  O  1.38474031  2.11375941  1.80646578
  C  1.64331445  3.49991414  1.96878960
  O  0.70322395  2.41847201 -0.31235288
  C  1.97580759 -0.28701134 -0.17445013
  C  1.97576078 -0.37961195 -1.55944417
  C  3.12933705 -0.75519318 -2.22569673
  C  4.28570508 -1.03464376 -1.51794667
  C  4.28928046 -0.93368589 -0.13646749
  C  3.14111747 -0.55415568  0.53408762
  H -2.36694023 -4.26635811 -0.57399170
  H -0.69530391 -4.08361394 -1.11793153
  H -2.03447422 -3.85314042 -2.25277853
  H -3.68202242 -2.16253046 -1.82819294
  H -3.68384247 -1.53655530 -0.18852606
  H -2.97639236 -0.57795347 -1.48997033
  H  0.22778057 -2.15139660 -0.31548789
  H -0.84829536  0.49582511 -0.84312828
  H -2.39376321 -0.44022900  1.26438715
  H -3.17442914  1.43457767 -0.37254321
  H -1.77595496  2.49083831 -0.61193751
  H -3.13884040  3.04872001  0.35207133
  H -1.33512227  2.02180744  3.34714140
  H -2.13377270  3.37945382  2.43922241
  H -0.62469009  0.30735911  3.11878531
  H  0.97714194  3.88698036  2.74056526
  H  1.47008690  4.02409632  1.02719239
  H  2.68100691  3.61574034  2.28091901
  H  1.08040770 -0.15732128 -2.11819968
  H  3.12260865 -0.82961643 -3.30286712
  H  5.18335887 -1.32812695 -2.04223324
  H  5.19113174 -1.14553914  0.41849137
  H  3.12590660 -0.47572591  1.60974912
