47
opt_min/./Product_5117_opt.xyz
  C  5.54772600 -0.24848107 -1.19598898
  C  4.51090575 -0.31053623 -0.10919268
  C  5.01173477 -0.27708195  1.30387206
  C  3.21715254 -0.42807886 -0.43767140
  C  2.11236164 -0.54988470  0.48031273
  C  0.84523367 -0.62150325  0.07317139
  C -0.37477979 -0.77949658  0.93331775
  C -0.07981595 -0.72793647  2.42734133
  C -1.10902681 -2.07350750  0.53392690
  C -1.93952510 -1.63706557 -0.69510295
  C -3.33554530 -2.28676554 -0.62976965
  O -3.25290273 -3.57874631 -0.95114968
  C -4.47307963 -4.31245571 -0.91657916
  O -4.33699763 -1.71987856 -0.30326373
  C -1.30286924 -2.04079648 -1.93915564
  N -0.80763612 -2.35057678 -2.92129415
  O -2.04054056 -0.22800504 -0.66344176
  C -1.44946421  0.27190812  0.52410890
  C -0.88692343  1.64858726  0.30851084
  C -0.42483311  2.05225116 -0.93607771
  C  0.13547796  3.30641897 -1.09914030
  C  0.24548803  4.16774822 -0.02143805
  C -0.22383234  3.77430614  1.22006909
  C -0.79055137  2.52346435  1.38369047
  H  5.63649973 -1.21903251 -1.68461340
  H  5.26601372  0.47615930 -1.95750093
  H  6.52370393  0.02317541 -0.80287095
  H  5.10862712 -1.29226108  1.69316112
  H  5.98916155  0.19511056  1.35575776
  H  4.33115259  0.26799192  1.95361612
  H  2.95566058 -0.44148927 -1.48814001
  H  2.35381564 -0.58422574  1.53295713
  H  0.63517868 -0.59621705 -0.98819949
  H  0.44827272  0.19117872  2.66871901
  H  0.53244680 -1.57671963  2.72273730
  H -1.00529930 -0.75542977  2.99915951
  H -1.78089217 -2.38408439  1.33743265
  H -0.43521348 -2.89467799  0.29401332
  H -4.85236790 -4.36728367  0.10568383
  H -4.23751341 -5.30384895 -1.29318940
  H -5.22202822 -3.82866547 -1.54587689
  H -2.21666685  0.30985836  1.31532654
  H -0.52530407  1.39131130 -1.78277542
  H  0.49002687  3.61129801 -2.07298341
  H  0.68725232  5.14499160 -0.14935358
  H -0.15362857  4.44570058  2.06384250
  H -1.16513028  2.22558314  2.35279442
