40
opt_min/./Product_4987_opt.xyz
  C -0.84878200 -1.63151500  0.65577500
  C -2.32560983 -1.65653445  0.92345366
  C -3.04501042 -0.58339153  0.61519668
  N -2.46426815  0.61733495  0.16888379
  C -2.64132425  0.83120133 -1.25962737
  C -1.18192241  0.92585008  0.77607783
  C -0.24034174 -0.29264884  1.08955352
  C  0.09881849 -0.31172551  2.57620504
  N -0.91114966 -0.68146137  3.38183885
  O  1.20334556 -0.02216634  2.98901246
  C  1.02018921  0.07614229  0.23426498
  C  1.89991603 -1.10416508 -0.14904703
  N  2.80280278 -1.39018888  0.79985616
  C  3.77891654 -2.44015434  0.62900263
  O  1.72936318 -1.74152750 -1.16577806
  O  0.45247270  0.78965195 -0.86579190
  C -0.21358585  1.75372081 -0.10163535
  C -0.70439557  2.99519786 -0.86347660
  C -0.04487420  3.17015955 -2.19168904
  O -1.47070121  3.76263277 -0.35286234
  O  0.81292937  2.27256055  0.77320674
  C  1.71230260  1.27446725  0.91598821
  O  2.83315504  1.41767759  1.29047959
  H -0.33215282 -2.45264398  1.15874407
  H -0.68159226 -1.75431899 -0.41965001
  H -2.77292040 -2.56281636  1.29618560
  H -4.12573175 -0.55836743  0.67156316
  H -3.58530792  0.37357219 -1.54889039
  H -1.83997101  0.38419770 -1.86029533
  H -2.69972924  1.89702278 -1.47570692
  H -1.38475960  1.48912170  1.69829800
  H -1.81652607 -0.92088539  3.00893386
  H -0.74732685 -0.72467455  4.37679973
  H  2.92804522 -0.75052896  1.57353729
  H  3.84693628 -3.03122609  1.54180922
  H  3.45611325 -3.06910326 -0.19885881
  H  4.76222090 -2.02365562  0.39762985
  H -0.46440672  4.02202550 -2.71914758
  H -0.13979039  2.25725388 -2.77496247
  H  1.01887431  3.33485649 -2.01763481
