54
opt_min/./Product_1730_opt.xyz
  F -0.90609400  2.16558000  0.57145500
  C -0.36238169  1.13730457 -0.18514751
  C  1.17939043  1.24739298 -0.18744389
  C  1.47247529  1.65937084 -1.63815073
  C  0.91635557  3.07749117 -1.84797986
  C -0.60412058  2.85484751 -1.95790145
  C -0.74841465  1.35570172 -1.66137588
  C  0.47007858  0.79514472 -2.40114160
  C  1.68493718 -0.15278188  0.24708413
  C  2.34931711 -0.08004291  1.63906434
  C  2.79625811 -0.61809536 -0.69993420
  O  3.88439195 -0.10081859 -0.73090100
  O  2.44641997 -1.63696156 -1.48318753
  C  3.42718938 -2.12741245 -2.38494925
  N  0.51372717 -1.00265536  0.16024868
  C  0.61526767 -2.34863114  0.69229544
  C -0.70962540 -0.25390813  0.41828739
  C -1.02877073 -0.19744978  1.94934770
  N -1.95794799  0.67997753  2.38483370
  C -2.35045964  0.72107718  3.77286467
  O -0.49735887 -0.97486350  2.71891453
  C -1.87710222 -0.92086358 -0.31316450
  C -1.61276562 -1.75285754 -1.40273489
  C -2.63683090 -2.34593853 -2.11628786
  C -3.95626643 -2.12198161 -1.76258801
  C -4.23397564 -1.29854795 -0.68805378
  C -3.20803702 -0.70277142  0.02702220
  H  1.51541452  2.00316252  0.52286377
  H  2.51767675  1.56871550 -1.91763669
  H  1.17147112  3.72874270 -1.01249779
  H  1.32010617  3.52244574 -2.75645522
  H -1.17082475  3.48093154 -1.27134560
  H -0.96290531  3.05791236 -2.96811770
  H -1.71932462  0.94249855 -1.92232687
  H  0.62036318 -0.26708811 -2.24296364
  H  0.43962165  1.00925771 -3.46517035
  H  3.15834972  0.64485320  1.61618523
  H  1.62041422  0.20336043  2.39249146
  H  2.76617869 -1.04663180  1.91162398
  H  4.04248526 -2.87893162 -1.88625331
  H  2.89020059 -2.57428885 -3.21781867
  H  4.06456217 -1.30928591 -2.72541283
  H  1.01173666 -2.38782582  1.70820946
  H -0.37589535 -2.79436771  0.70415364
  H  1.25545752 -2.93704209  0.03311863
  H -2.29793595  1.43478104  1.81370931
  H -3.43765113  0.75171185  3.84606213
  H -1.97281141 -0.17801067  4.25452819
  H -1.93201285  1.59607324  4.27426808
  H -0.59073221 -1.93471898 -1.68870670
  H -2.40176422 -2.98441633 -2.95558582
  H -4.75881286 -2.58300224 -2.31933102
  H -5.25820117 -1.11406631 -0.39850045
  H -3.46656609 -0.07024911  0.85867398
