55
opt_min/./Product_5589_opt.xyz
  C  5.63440300 -0.15249100  2.34085700
  C  4.78203091 -0.31693425  1.12168692
  C  5.50408915 -0.79104231 -0.10765178
  C  3.47095033 -0.04956684  1.14727570
  C  2.56685041 -0.16365559  0.03005839
  C  1.26805697  0.12170556  0.12131998
  C  0.25275698 -0.01038868 -0.98553853
  C  0.85274207  0.24007336 -2.37933419
  C -0.36597536 -1.42709062 -0.92047971
  C -1.89923630 -1.23732956 -0.82074614
  C -2.51169055 -1.68073142 -2.16337052
  C -3.30956139 -0.66584555 -2.94644977
  O -2.35097850 -2.79978354 -2.58270438
  C -2.45526547 -2.09925467  0.31505628
  C -2.56401090 -3.47810559  0.19543615
  C -3.03432237 -4.23803523  1.25243995
  C -3.38864616 -3.63360722  2.44565411
  C -3.26458935 -2.26146778  2.57647622
  C -2.80023747 -1.49902138  1.51975336
  N -2.08666219  0.15980279 -0.49067568
  N -0.87695789  0.88073084 -0.75296326
  C -0.78350136  2.14587483 -0.22599252
  C -1.89104375  2.74460816  0.39237497
  C -1.82713210  4.04169531  0.85712109
  C -0.66586870  4.78481768  0.72752818
  C  0.43289766  4.20425916  0.11695445
  C  0.38100484  2.91063014 -0.36029040
  H  6.02996506 -1.11953000  2.65400931
  H  6.48389194  0.49446411  2.12232897
  H  5.07027656  0.27517965  3.16547820
  H  6.51772789 -1.09539379  0.14063278
  H  4.99284079 -1.63743670 -0.56250566
  H  5.56134896  0.00554076 -0.84955562
  H  3.02532648  0.29136193  2.07330640
  H  2.99022702 -0.48648905 -0.90940405
  H  0.85692710  0.43628504  1.07187974
  H  1.44951429 -0.61182922 -2.69311963
  H  1.48612976  1.12172953 -2.38248394
  H  0.05266081  0.38437787 -3.10248779
  H  0.00947940 -1.97206551 -0.05421717
  H -0.12112342 -2.00475933 -1.81067960
  H -2.79066846  0.28643784 -3.03280448
  H -3.49728753 -1.06576713 -3.94012041
  H -4.26738087 -0.50464875 -2.45099263
  H -2.28859555 -3.96593780 -0.72598562
  H -3.11968296 -5.30874415  1.14076532
  H -3.75447677 -4.22726037  3.27042724
  H -3.52759118 -1.77860332  3.50619764
  H -2.70135961 -0.43053860  1.62654590
  H -2.83726841  0.58790445 -1.02628287
  H -2.79971330  2.17833772  0.52052189
  H -2.69385494  4.47514955  1.33562908
  H -0.61823215  5.79745412  1.09785582
  H  1.34822005  4.76800441  0.00496498
  H  1.25641471  2.49644321 -0.83193047
