37
opt_min/./Product_4292_opt.xyz
  O -2.52084000  3.53283500 -0.30245100
  C -2.95749065  2.90817928  0.55035933
  O -3.40481173  2.31525633  1.42080312
  C -2.24883590  0.33316719 -0.79751540
  C -1.05307738  0.69435141 -1.23078362
  C -1.09699124  2.09836593 -4.27461897
  O -1.83157225  1.28074747 -4.58907093
  O -0.35871518  2.91652473 -3.96770706
  C -0.07739921 -0.44398792 -1.10907912
  C  1.17873973 -0.06665887 -0.35992328
  C  1.09797262  0.30544945  0.97622288
  C  2.23693507  0.64945719  1.67975668
  C  3.47175871  0.63214699  1.05259532
  C  3.55996884  0.26892045 -0.28014220
  C  2.41888250 -0.08117850 -0.98127822
  N -0.87178303 -1.45075596 -0.45670179
  C -0.28516119 -2.66725399  0.00704950
  C -2.26170658 -1.08890807 -0.29948645
  C -3.19951495 -1.96290329 -1.14974687
  C -2.70548523 -1.13042814  1.17282526
  H -3.17110986  0.87594017 -0.90494791
  H -0.72821837  1.67869607 -1.51703418
  H  0.20790247 -0.77195737 -2.13176223
  H  0.13202509  0.32248862  1.45988908
  H  2.16310353  0.93430964  2.71951053
  H  4.36230303  0.90143547  1.60096429
  H  4.52029225  0.25551767 -0.77498009
  H  2.49165119 -0.36814068 -2.02125719
  H  0.39063244 -3.07331740 -0.75348328
  H -1.06349330 -3.40449787  0.19338003
  H  0.29403348 -2.53211999  0.93306319
  H -3.22066906 -2.98135383 -0.77014400
  H -2.85366715 -1.98060582 -2.18017826
  H -4.20963081 -1.56281598 -1.12405444
  H -3.74532066 -0.82716260  1.26162398
  H -2.59890287 -2.13524503  1.57283022
  H -2.09751081 -0.45365484  1.76807217
