44
opt_min/./Product_417_opt.xyz
  C -1.84907100 -1.14593600 -2.33986700
  C -2.24252616 -0.45917261 -1.05248854
  O -3.39267210 -0.12389887 -0.88398653
  C -1.19505615 -0.24636726  0.04077277
  C  0.17689321  0.37271130 -0.41374090
  C  0.36008291  0.78114517 -1.88488480
  C  0.30639086  1.61592651  0.49828074
  C -0.66809297  2.70679707  0.03496263
  C -2.04042338  2.10036335  0.39296072
  C -1.67765863  0.77490660  1.09355221
  C -0.38597812  1.20279437  1.79184805
  C  1.10850154 -0.81885007 -0.17950438
  C  2.54685648 -0.88154207 -0.60378422
  N  3.22585386  0.28612770 -0.51072637
  C  4.62345048  0.37909500 -0.85447435
  O  3.05544483 -1.90598161 -1.00548119
  N  0.55764392 -1.88114115  0.21750896
  C -0.81285761 -1.69516314  0.60695332
  C -0.81537829 -1.84542614  2.14374504
  C -1.68747229 -2.83938963  0.06301922
  H -2.58399545 -1.92134848 -2.55019379
  H -1.92150819 -0.42515048 -3.15341844
  H -0.85529070 -1.57396087 -2.31908254
  H  0.69077017 -0.05720827 -2.49430715
  H -0.55717464  1.17612134 -2.30793155
  H  1.12881980  1.54938327 -1.95347413
  H  1.32629696  1.98129412  0.63099174
  H -0.58263602  2.97059722 -1.01597206
  H -0.48071265  3.61270494  0.61384665
  H -2.58695737  2.74308058  1.08360067
  H -2.67019708  1.95471007 -0.47841609
  H -2.47774387  0.38876589  1.71973582
  H  0.14241612  0.44739745  2.35762431
  H -0.55296302  2.05943933  2.44557024
  H  2.77427310  1.10479605 -0.14142183
  H  4.75355860  0.83041270 -1.84200904
  H  5.15581286  0.97642003 -0.11497681
  H  5.03036566 -0.63093134 -0.87698723
  H  0.02559227 -1.33838453  2.60379743
  H -0.70418479 -2.89883501  2.38364173
  H -1.74578373 -1.48671041  2.57251596
  H -1.66072369 -3.68554997  0.74316031
  H -1.31833583 -3.19213057 -0.89411860
  H -2.72129793 -2.52212374 -0.03425423
