30
opt_min/./Product_3740_opt.xyz
  C  1.02049500  0.16650797  1.28348924
  C  2.37283498  0.21724223  0.58624262
  C  2.24142254 -0.97296398 -0.38635638
  C  2.64177456 -2.21633405  0.27389497
  N  2.96882077 -3.16268811  0.82212043
  C  3.09336822 -0.80231918 -1.55113454
  N  3.76133732 -0.65709059 -2.46660231
  N  0.82376414 -1.04495100 -0.74198165
  C  0.05039779 -0.16642552  0.13744246
  C -0.47151816  1.00620494 -0.69800444
  N -0.67421347  2.17859805 -0.07291910
  C -1.15978152  3.34476473 -0.77875717
  O -0.71855806  0.83351282 -1.88148580
  C -1.13065701 -1.03090810  0.68462922
  O -0.98507717 -1.74292612  1.65119069
  N -2.25974450 -0.95661710 -0.03436910
  C -3.37581731 -1.84257964  0.22755123
  H  0.78120732  1.08285508  1.82255559
  H  0.98806701 -0.67538630  1.98172266
  H  2.49181089  1.14536750  0.01808920
  H  3.21698690  0.10550692  1.26624300
  H  0.64436261 -0.82580124 -1.71748611
  H -0.48913238  2.27411458  0.91231333
  H -1.83580160  3.90949956 -0.14004650
  H -0.32875637  3.98051631 -1.09699117
  H -1.68155275  3.00527361 -1.67312777
  H -2.36071165 -0.27693810 -0.77286262
  H -2.98349919 -2.76511920  0.65106523
  H -3.90806660 -2.04079581 -0.70081990
  H -4.06393465 -1.39453783  0.95189706
