28
opt_min/./Product_4241_opt.xyz
  O -3.62758177 -1.87832546  0.09020173
  C -2.59347950 -1.96810962 -0.38753991
  O -1.55393915 -2.04153264 -0.85972618
  C -0.99347137  0.03429934  1.82419619
  C  0.19049967 -0.25695649  1.31638410
  C  0.14682903 -3.14958207  2.66680558
  O -0.91012518 -3.32332280  2.26183847
  O  1.20235318 -2.99724372  3.07608766
  C  1.03927425  0.98781651  1.28667752
  C  1.61746397  1.28739221 -0.12232309
  O  2.11735243  0.16853336 -0.63699197
  C  2.73195281  0.26959306 -1.92068102
  O  1.62166255  2.36238390 -0.63899890
  C  2.17860822  0.85639570  2.18902296
  N  3.05959084  0.74871357  2.90701553
  O  0.17796176  2.04057730  1.68463051
  C -1.05151459  1.50225232  2.17927477
  C -2.23204962  2.25711556  1.56501289
  C -1.09841729  1.61757736  3.63832060
  N -1.12572693  1.67745146  4.77829174
  H -1.83282538 -0.61839307  1.97656230
  H  0.56662839 -1.19506162  0.95718091
  H  1.97038533  0.17092256 -2.69677039
  H  3.44369813 -0.54993146 -1.98482714
  H  3.23187094  1.23365442 -2.02442790
  H -2.11559194  3.31958901  1.76298713
  H -3.16535222  1.90695585  2.00045015
  H -2.24430459  2.09925870  0.48911071
