61
opt_min/./Product_3047_opt.xyz
  C -4.29707368  1.86015069  0.32178430
  C -3.04366246  1.31209681  0.93791366
  O -2.50354458  1.87232337  1.85819467
  C -2.46730269 -0.06923362  0.46093805
  C -2.53750157 -0.77909090  1.73506774
  N -2.68974939 -1.29205637  2.74448274
  C -0.94971833  0.13640987  0.13547472
  C  0.14009616 -0.69404690 -0.05921233
  C  0.11295384 -2.17640811 -0.45282587
  C  0.75165890 -3.14721161  0.54783922
  F  0.14967947 -3.11880576  1.73001434
  F  2.05463786 -2.93676324  0.75378991
  F  0.64336501 -4.40975424  0.09685452
  C  0.69554706 -2.42868178 -1.85407232
  F  0.14018083 -3.50908695 -2.41888075
  F  0.42146510 -1.40416913 -2.67666732
  F  2.01181879 -2.62909594 -1.90304111
  C -1.40617546 -2.33141206 -0.49093694
  C -2.50308201 -3.21628959 -1.03698329
  C -3.68821768 -2.33977351 -0.54360227
  C -3.48954891 -0.78632472 -0.52207094
  C  1.38321645  0.13594890  0.10173326
  C  1.97709131 -0.02686820  1.56448389
  N  3.01788070  0.78578313  1.75114045
  C  3.68786342  0.84621009  3.03164997
  O  1.48051309 -0.74181653  2.39187337
  C  2.47406665  0.02089972 -0.94469137
  C  2.31718668  0.72470317 -2.13307212
  C  3.28744291  0.65724310 -3.11592308
  C  4.42260414 -0.10973837 -2.92053880
  C  4.58730984 -0.80416892 -1.73482815
  C  3.62072663 -0.73901952 -0.74664021
  N  0.91906345  1.48480091  0.17731142
  C -0.36487685  1.47957876  0.21129786
  C -1.03296681  2.78729116 -0.01800906
  O -1.93690144  2.91830803 -0.81171557
  O -0.45989179  3.76613338  0.65156319
  C -0.96175653  5.07701616  0.42684201
  H -4.36553367  1.67563510 -0.74378003
  H -4.31113202  2.93243774  0.50140814
  H -5.15757364  1.42717158  0.83336854
  H -1.66275791 -2.21724615  0.56203762
  H -1.63077508 -1.44417071 -1.06957810
  H -2.55687967 -4.21873773 -0.62193092
  H -2.47087140 -3.27385550 -2.12454294
  H -4.57286188 -2.52813026 -1.15443523
  H -3.93233044 -2.64957941  0.47516204
  H -3.32506712 -0.40472077 -1.53162988
  H -4.46802540 -0.43778182 -0.19000378
  H  3.29086868  1.41627399  1.01537113
  H  4.34659444  1.70903387  3.05015452
  H  4.27049306 -0.06164860  3.19897383
  H  2.94897760  0.92952896  3.82956297
  H  1.42751019  1.31696005 -2.28443226
  H  3.15112168  1.20434023 -4.03625756
  H  5.17755461 -0.16850615 -3.69009926
  H  5.46859900 -1.40593000 -1.57639646
  H  3.76059293 -1.28721155  0.17109363
  H -0.50993556  5.49773899 -0.47399965
  H -0.68346560  5.66629237  1.29692670
  H -2.04596398  5.05294889  0.30584514
