51
opt_min/./Product_5386_opt.xyz
  C  2.29654300  0.81044800  1.19750900
  C  0.85178925  1.03767368  0.78422015
  C  0.00236428 -0.24256443  0.76338864
  N  0.68644405 -1.32122742  0.08677607
  C -0.04913281 -2.52385303 -0.21693327
  C  2.04784871 -1.35882786  0.05373070
  C  2.87141138 -0.41113176  0.54051332
  C  4.32876506 -0.43189626  0.39721670
  N  4.90415747 -1.61653822  0.02022809
  O  5.02381605  0.55331293  0.58442232
  C -1.24954271  0.30140463  0.03338588
  C -2.08954361  1.25960238  0.93455286
  N -2.29105619  0.92464123  2.22375040
  C -3.08080299  1.74511104  3.11304294
  O -2.57986608  2.25465773  0.43710004
  C -2.27969591 -0.67984916 -0.48934250
  C -3.02241706 -1.48253454  0.37081823
  C -3.99314639 -2.33565691 -0.12356392
  C -4.24574555 -2.39367805 -1.48284433
  C -3.51528281 -1.59550427 -2.34639422
  C -2.54247919 -0.74516299 -1.85461261
  N -0.68072683  1.09703650 -1.04216119
  C  0.60670796  1.66865062 -0.61352041
  C  1.64351530  1.30035130 -1.67933115
  C  0.53693116  3.19260569 -0.48371596
  H  2.35189605  0.70119942  2.28747566
  H  2.91124040  1.67661796  0.94593688
  H  0.39207840  1.70768663  1.51953515
  H -0.24791821 -0.57816690  1.78488106
  H -0.63751914 -2.41241353 -1.12948087
  H  0.64232595 -3.35371675 -0.34991893
  H -0.73127912 -2.77526298  0.59894416
  H  2.43612228 -2.22658932 -0.46027479
  H  4.43386280 -2.49684913  0.10762129
  H  5.91049420 -1.62787034  0.00945299
  H -1.83349604  0.12478239  2.62821337
  H -3.63000562  2.45960700  2.50245860
  H -3.77870682  1.12381327  3.67241695
  H -2.44539517  2.29677356  3.81123847
  H -2.84590305 -1.45353735  1.43620557
  H -4.55759954 -2.95338533  0.55987536
  H -5.00923473 -3.05560088 -1.86346569
  H -3.70414578 -1.63252630 -3.40895922
  H -1.96008274 -0.12678236 -2.51822491
  H -1.34266229  1.83198058 -1.28211285
  H  2.64628781  1.57042108 -1.36817738
  H  1.40594442  1.83364453 -2.59554081
  H  1.60585904  0.23715358 -1.88734533
  H -0.30361211  3.48400148  0.14368483
  H  0.40533985  3.64980091 -1.46109042
  H  1.45338326  3.57713443 -0.04374374
