34
opt_min/./Product_445_opt.xyz
  C -3.34126700  2.28702400  0.28715300
  O -2.81557205  1.42362150  1.27658971
  C -1.85115437  0.47889979  0.93689274
  F -1.60684491 -0.12308605  2.15178494
  C -0.55255346  1.02875704  0.40593133
  C  0.71270161  0.47077390  0.45413448
  N  1.47712698  1.31505366 -0.30484079
  C  2.82711638  1.20927911 -0.75121886
  O  3.03693668 -0.00750295 -1.23598838
  C  4.36759836 -0.25639761 -1.68880259
  O  3.58922799  2.11998344 -0.73740893
  N  0.70629514  2.30031503 -0.78169529
  N -0.48005329  2.12458438 -0.38670366
  C  1.27305498 -0.71504015  1.18298328
  F  0.86759750 -0.71674129  2.47841665
  F  2.63617858 -0.58509352  1.27224350
  C  0.95043654 -2.05921317  0.53198720
  C -0.54785737 -2.37523266  0.48475619
  C -1.32467334 -1.58483994 -0.58132358
  C -2.37479156 -0.61224762 -0.03299384
  H -3.87046972  1.73885304 -0.49753506
  H -4.05175573  2.91528040  0.81957670
  H -2.56438321  2.90682258 -0.16193829
  H  5.06949450 -0.15070008 -0.86099286
  H  4.37118158 -1.27756860 -2.05967229
  H  4.63511346  0.44608933 -2.47856553
  H  1.46635400 -2.81865633  1.12690342
  H  1.39230889 -2.06792322 -0.46806618
  H -0.97010950 -2.19440049  1.47227534
  H -0.65163980 -3.44072425  0.28693172
  H -0.62729135 -1.04380769 -1.22561232
  H -1.85092217 -2.28277250 -1.23404801
  H -3.14974791 -1.16231475  0.50681180
  H -2.84937106 -0.10604589 -0.87354971
