61
opt_min/./Product_2691_opt.xyz
  C  1.71693200 -5.08976500 -0.66557000
  N  1.06119710 -3.81871942 -0.84905932
  C  1.50227228 -2.92869541 -1.76900725
  O  2.42723705 -3.18407695 -2.51994987
  C  0.74157787 -1.66017779 -1.77980846
  C  1.08466374 -0.39360072 -2.09382728
  C  2.27700059  0.22329247 -2.63754888
  C  2.56789938  1.55474639 -2.32140028
  C  3.69202045  2.16914440 -2.83664630
  C  4.53640852  1.47475348 -3.68844504
  C  4.25261781  0.15905414 -4.01403481
  C  3.13401574 -0.46677447 -3.49625164
  C -0.13189208  0.44074606 -1.68550763
  C -0.12998964  0.55459602 -0.13835679
  C -0.28215038 -0.91879653  0.25641343
  C -0.63149295 -1.53442687 -1.13825534
  O -1.20887631 -0.45968808 -1.86269234
  C -1.34756515 -0.96711122  1.36408009
  C -2.18318281 -2.23488255  1.30371702
  C -3.64665097 -2.10480103  1.61143361
  O -1.66800700 -3.29053574  1.01600681
  C -0.60616625 -1.10128417  2.73987771
  C -1.21594920 -0.31587023  3.84506926
  O  0.38987279 -1.76519255  2.83546818
  N -2.03142450  0.30337168  1.34423165
  C -1.41960991  1.23316585  0.41991304
  C -1.00017574  2.50013282  1.21185113
  N -0.48232680  3.47968188  0.46064705
  C -0.05111126  4.72490884  1.05876506
  O -1.10172964  2.55482548  2.41840384
  C -2.37212441  1.61761366 -0.71032091
  O -2.15485319  2.51696526 -1.48716884
  O -3.47921944  0.88562731 -0.71423991
  C -4.43207173  1.12421688 -1.74248519
  H  1.18274655 -5.88133868 -1.19793391
  H  1.75729844 -5.33383974  0.39394042
  H  2.72521143 -5.01776967 -1.07276251
  H  0.31035005 -3.59477134 -0.21547256
  H  1.91896266  2.10217293 -1.65354548
  H  3.90960542  3.19489860 -2.57534250
  H  5.41209512  1.95982939 -4.09415861
  H  4.90816344 -0.38500562 -4.67811049
  H  2.92125900 -1.49520301 -3.73642710
  H -0.28539521  1.36248186 -2.23737112
  H  0.77187560  1.01459238  0.26472558
  H  0.63902648 -1.35768713  0.63654523
  H -1.28142719 -2.39993228 -1.15904055
  H -4.13111953 -1.55501449  0.80382690
  H -3.79861336 -1.56380088  2.54138861
  H -4.09429990 -3.09328821  1.67690070
  H -2.29736923 -0.39277250  3.84716106
  H -0.79392625 -0.61627159  4.79945156
  H -0.98434409  0.73703310  3.65687545
  H -3.03109112  0.26498798  1.22542685
  H -0.50838787  3.41409562 -0.54545478
  H -0.84785522  5.14048853  1.67824537
  H  0.20870542  5.43004227  0.27598951
  H  0.81557023  4.54863317  1.69885026
  H -4.38953134  0.29155966 -2.44486259
  H -4.19736361  2.05648708 -2.25811323
  H -5.41445444  1.18160447 -1.27594721
