44
opt_min/./Product_4518_opt.xyz
  C  4.00951300  1.57167000 -0.61811900
  C  4.14582631  0.08990777 -0.81738343
  C  5.44162507 -0.36418679 -1.41072020
  C  3.18142287 -0.78102919 -0.49012333
  C  1.91326449 -0.42433675  0.08749159
  C  0.96878981 -1.31214420  0.41038712
  C -0.34563068 -0.91604046  1.04230285
  C -0.15209268 -0.70362286  2.54532819
  C -1.46151347 -1.96466318  0.77771520
  N -2.41374086 -1.26968951 -0.06764522
  C -3.70439585 -1.57896475 -0.33199072
  C -4.18693838 -2.85883393  0.31380575
  O -4.40253054 -0.86478269 -1.02018608
  N -1.84938730 -0.08134323 -0.57964649
  C -1.24252423 -0.30528528 -1.88919617
  N -0.91055288  0.27607869  0.39520280
  C -0.73153334  1.59599385  0.73126643
  N -1.56833936  2.42992980  0.05835174
  C -1.59569260  3.84354209  0.33285092
  O  0.13214476  1.97571248  1.49927070
  H  3.18498622  1.96814517 -1.20766946
  H  3.81127358  1.80479789  0.42602214
  H  4.92039818  2.08387905 -0.91715293
  H  5.46705276 -1.44241639 -1.54165102
  H  5.59597368  0.11162506 -2.37873493
  H  6.27186841 -0.07056614 -0.76821751
  H  3.34418378 -1.83932463 -0.65721862
  H  1.72664109  0.62334943  0.27016733
  H  1.13381663 -2.37106373  0.26628231
  H  0.57025094  0.08716841  2.71441097
  H  0.20908959 -1.62376747  2.99754626
  H -1.09252314 -0.41795531  3.01206008
  H -1.94174932 -2.26649832  1.71024406
  H -1.06368140 -2.85495828  0.28213714
  H -3.49857318 -3.67783962  0.12712363
  H -5.16400474 -3.10404548 -0.08959263
  H -4.27946197 -2.71480163  1.38869600
  H -2.04020068 -0.61614442 -2.55938870
  H -0.44583037 -1.05572003 -1.87227232
  H -0.83121306  0.64104587 -2.23452276
  H -2.33937682  2.01198163 -0.44040541
  H -1.51758160  4.41319211 -0.59577630
  H -0.73848739  4.06858745  0.96411822
  H -2.51233067  4.13365675  0.85131534
