24
opt_min/./Product_3273_opt.xyz
  C -0.90024200 -1.45120300 -0.69502200
  C -2.35452965 -1.44713370 -0.21477106
  N -2.36598966 -0.35691403  0.75768185
  C -3.48405008 -0.02201411  1.58013525
  N -1.16843761  0.17215342  0.96168232
  C -0.28836539 -0.36592263  0.19169480
  C  1.09826822  0.02431215  0.16560542
  C  1.55792239  1.02745116  1.02866303
  C  2.88141936  1.41256774  1.01891959
  C  3.77709965  0.80620423  0.14966327
  C  3.33503590 -0.18642664 -0.70754314
  C  2.00977078 -0.57788853 -0.70541729
  H -0.40818530 -2.41249906 -0.54938979
  H -0.81257272 -1.16900136 -1.74629463
  H -2.63939915 -2.38777035  0.27283248
  H -3.07251949 -1.24180875 -1.01539007
  H -4.39432187 -0.37533522  1.09894355
  H -3.53965343  1.06057397  1.70440443
  H -3.41238370 -0.47960733  2.57524029
  H  0.84554833  1.48478737  1.69742497
  H  3.22068210  2.18839357  1.68954543
  H  4.81379133  1.10997670  0.14107143
  H  4.02973995 -0.66367252 -1.38469355
  H  1.67744646 -1.35063341 -1.38145797
