56
opt_min/./Product_2222_opt.xyz
  C -1.72569400 -1.41766600  2.26646600
  O -0.60088703 -0.63473620  1.95339882
  C -0.33429633 -0.28020768  0.61171803
  C  1.17806385 -0.60229912  0.32238137
  F  1.68471906 -1.35522421  1.36528424
  C  1.11472959 -1.53770379 -0.89166805
  C  0.64097417 -0.77569826 -2.13035010
  C -0.86656388 -0.62902037 -1.88203485
  C -1.05133015 -1.14439294 -0.45089861
  C -0.12105431 -2.36030491 -0.51395166
  C  1.91584203  0.75086396  0.23455837
  C  2.72082846  1.03390580  1.52911715
  O  3.67156148  0.14259777  1.75591706
  C  4.46504336  0.33399830  2.92114604
  O  2.52477668  2.01052505  2.20131272
  C  2.94146040  0.86407535 -0.87894323
  C  3.90180671 -0.12310004 -1.05986222
  C  4.85586360  0.00476208 -2.05345078
  C  4.87030761  1.12165083 -2.87011813
  C  3.92874731  2.11789403 -2.67988675
  C  2.97447584  1.99455673 -1.68616752
  N  0.87986924  1.76702546  0.09788152
  C -0.43271943  1.27446062  0.47514221
  C -1.54116827  1.80572846 -0.45373621
  C -1.10366077  2.89881203 -1.38290656
  O -2.68706162  1.45455045 -0.32360852
  C -0.89483889  2.00194855  1.76695946
  O -0.37730158  3.03431384  2.10282577
  O -1.95376819  1.46396136  2.32967193
  C -2.47509509  2.13540970  3.46928824
  H -1.71648424 -1.48285499  3.35461550
  H -1.67174320 -2.42957224  1.85197768
  H -2.65014871 -0.92910398  1.93876042
  H  2.03282361 -2.10539051 -1.03255547
  H  0.85055063 -1.34761976 -3.03611756
  H  1.13605680  0.18827360 -2.22162571
  H -1.43611871 -1.28641708 -2.54451722
  H -1.22138377  0.37971516 -2.04912204
  H -2.09695079 -1.31873035 -0.21072759
  H  0.01744560 -2.86762814  0.43856446
  H -0.40923433 -3.07795235 -1.27775678
  H  5.40085276 -0.19393223  2.74736585
  H  4.64398190  1.39818942  3.08599929
  H  3.95049762 -0.08421479  3.78805062
  H  3.91822655 -0.98281743 -0.40856869
  H  5.59779812 -0.76948743 -2.18349142
  H  5.61765885  1.21978325 -3.64273788
  H  3.93858969  2.99963274 -3.30403949
  H  2.24637074  2.77366964 -1.52910377
  H  1.10963751  2.53725865  0.73817840
  H -0.21512524  2.60181599 -1.93119739
  H -0.84351969  3.76427300 -0.77452614
  H -1.91511646  3.16108603 -2.05892909
  H -3.47697365  1.74139836  3.62465829
  H -2.50615675  3.21291562  3.29328105
  H -1.84388917  1.93255318  4.33666216
