58
opt_min/./Product_5705_opt.xyz
  C  4.11415600  1.03140800 -0.56521400
  C  3.71697686 -0.41450711 -0.60490215
  C  4.70870542 -1.31406900 -1.27946961
  C  2.57195785 -0.89436765 -0.13519362
  C  1.45759934 -0.10285022  0.46820187
  C  0.33427075  0.12348693 -0.57795121
  C  0.48605088  1.42131958 -1.32442296
  C  0.64124887  2.70806670 -0.56262379
  C  0.52277272  1.42061347 -2.64926217
  C -0.99297490 -0.05754079  0.23262062
  C -1.71451664 -1.35165517 -0.12364318
  C -3.10453399 -1.43063059 -0.10404368
  C -3.75015020 -2.63699603 -0.30851386
  C -3.02098911 -3.79516199 -0.51199338
  C -1.63906406 -3.73716538 -0.49877665
  C -0.99213806 -2.52960896 -0.30180720
  C -1.87062771  1.15938664  0.05273714
  C -1.98953500  2.14333075  1.02436143
  C -2.77803982  3.25983664  0.80165494
  C -3.44504276  3.41541324 -0.40039536
  C -3.31512851  2.44787060 -1.38290891
  C -2.53449653  1.32950488 -1.15937564
  N -0.50626799 -0.16591745  1.62626262
  C -1.46868186 -0.59755295  2.60466891
  N  0.76227118 -0.81112802  1.54011729
  C  1.43757130 -1.61805939  2.39149899
  C  0.67286555 -2.57452673  3.28700744
  O  2.65867727 -1.63421706  2.37720138
  H  3.67523821  1.55181673  0.28014677
  H  3.78922675  1.52965763 -1.47932667
  H  5.19632595  1.12137346 -0.50070460
  H  5.68708557 -1.21678758 -0.81173507
  H  4.39998151 -2.35383496 -1.22525181
  H  4.81321989 -1.03164214 -2.32774456
  H  2.37206390 -1.95298176 -0.22844077
  H  1.82089195  0.85413917  0.85187419
  H  0.39121213 -0.67309217 -1.32330281
  H  0.64740761  2.54954940  0.51052508
  H -0.17686367  3.38589787 -0.79957943
  H  1.57072821  3.19989910 -0.84624060
  H  0.64784929  2.33199010 -3.20887826
  H  0.42608850  0.51856750 -3.22944507
  H -3.69060922 -0.54137608  0.07134123
  H -4.82981144 -2.67197718 -0.29803935
  H -3.52593311 -4.73647578 -0.66999127
  H -1.05637835 -4.63611097 -0.63699310
  H  0.08557023 -2.51934600 -0.27464886
  H -1.44936809  2.04829151  1.95294115
  H -2.86431480  4.01464750  1.56935895
  H -4.05629401  4.28832666 -0.57379492
  H -3.82179906  2.56602824 -2.32938195
  H -2.43420508  0.57957692 -1.92991059
  H -1.01958414 -0.52958880  3.59320498
  H -1.87461306 -1.60597548  2.45671195
  H -2.30591457  0.09764784  2.55495796
  H -0.25996850 -2.90617738  2.84728356
  H  0.49282296 -2.12803526  4.26255082
  H  1.31712246 -3.43806141  3.44068503
