44
opt_min/./Product_4847_opt.xyz
  C  1.44124371 -0.47333969 -1.00308050
  C  1.17664774  0.77630576 -0.15831883
  C  0.52490433  0.41361347  1.18324591
  N  1.08676851 -0.72982768  1.82596017
  C  0.67968459 -1.00800143  3.17815498
  C  1.85400267 -1.60814840  1.14000103
  C  2.12731380 -1.52662301 -0.17753791
  C  3.00227285 -2.55478795 -0.74292761
  N  3.14358960 -2.57402954 -2.10856935
  O  3.55102139 -3.40658303 -0.06244997
  C -1.00373631  0.36343114  0.83909699
  C -1.58612466 -1.04950544  0.65488152
  O -2.91797321 -0.99410242  0.67347174
  C -3.59662973 -2.22468095  0.45462487
  O -0.95990379 -2.05628860  0.48263562
  C -1.72812356  1.01104043  1.91849155
  N -2.25102461  1.54445183  2.78506209
  N -1.11704273  1.04388465 -0.44618541
  C -2.38057815  1.66811256 -0.74986883
  C  0.13069070  1.72433025 -0.78527435
  C  0.26388929  1.83628606 -2.30717510
  C  0.24124752  3.13992593 -0.18700453
  H  2.04086199 -0.17981223 -1.86575961
  H  0.49521293 -0.87935972 -1.37005590
  H  2.12092781  1.29521015  0.02007966
  H  0.65168379  1.26180671  1.87490042
  H -0.23924249 -1.60352747  3.20994792
  H  0.50434739 -0.07385299  3.71419165
  H  1.46586928 -1.56430749  3.68612818
  H  2.29413359 -2.40679999  1.71741045
  H  3.83654222 -3.23156523 -2.43438838
  H  3.03192343 -1.74324573 -2.65953291
  H -4.65743271 -2.00608532  0.53850221
  H -3.35872047 -2.61541755 -0.53655217
  H -3.29619949 -2.95858856  1.20437872
  H -2.73320738  2.35331586  0.03323571
  H -2.28885826  2.21852522 -1.68114733
  H -3.13840012  0.89449124 -0.88196165
  H  1.29637965  2.04867052 -2.57047737
  H -0.04684848  0.91752376 -2.79382093
  H -0.34925137  2.65129578 -2.68374256
  H  0.42559302  3.12042228  0.88321565
  H  1.05344487  3.68051618 -0.66534910
  H -0.68033453  3.69010572 -0.35990381
