44
opt_min/./Product_5229_opt.xyz
  C  1.12815500  1.28370000 -0.29225100
  C  0.00525941  0.32294599  0.10846569
  C  0.29052917 -1.18461878 -0.12530732
  N  1.49437561 -1.49768734 -0.85444753
  C  1.78614130 -2.91025574 -0.95706744
  C  2.58032432 -0.67631847 -0.67064156
  C  2.47683104  0.63052347 -0.39043513
  C  3.62569448  1.50536067 -0.09913632
  N  4.84227276  1.08217883 -0.55088910
  O  3.51519377  2.52785270  0.55343785
  C -1.01294865 -1.61565557 -0.94231357
  C -1.35760418 -3.09880831 -1.03625525
  C -1.52431507 -3.84532309  0.26275653
  O -1.50010713 -3.63153753 -2.10296969
  O -0.78053361 -1.08965844 -2.25530060
  C -0.90713648  0.23431711 -2.15148814
  O -0.65468864  1.02541941 -3.00702469
  C -1.33076054  0.50341218 -0.69500296
  C -2.20761116  1.73431238 -0.52664109
  N -1.58209249  2.85794121 -0.12087917
  C -2.30454721  4.11189886 -0.08729721
  O -3.40511898  1.66777267 -0.70021940
  N -2.05318301 -0.74181190 -0.46573776
  C -2.72964187 -0.94009625  0.78777974
  H  1.23312627  2.09534807  0.43357329
  H  0.90501409  1.72137519 -1.27114385
  H -0.23716547  0.46435305  1.16600313
  H  0.29687254 -1.71982834  0.83821612
  H  2.04151313 -3.35488931  0.01404551
  H  2.61959995 -3.04522600 -1.64233603
  H  0.92905551 -3.43698003 -1.36806717
  H  3.53713852 -1.15902323 -0.79970894
  H  5.61488676  1.70895455 -0.39174256
  H  4.91678031  0.45660493 -1.33156354
  H -1.02273545 -4.80806863  0.18264868
  H -2.58369342 -4.05349266  0.39948617
  H -1.15164206 -3.30030196  1.12158310
  H -0.58064555  2.92166054 -0.20193365
  H -3.27833370  3.93700635  0.36657020
  H -2.46119445  4.50973659 -1.09252540
  H -1.74243593  4.82930685  0.50496250
  H -3.37851819 -0.08030967  0.93707495
  H -2.06043599 -1.03791274  1.65432717
  H -3.35650683 -1.82561633  0.71780868
