45
opt_min/./Product_1106_opt.xyz
  C -2.04644000  3.83255700  1.58830900
  N -1.81962022  2.65822476  0.77807217
  C -0.68063588  1.95218120  0.88001231
  O  0.23565706  2.27943744  1.60233370
  C -0.53696930  0.68742900 -0.01462291
  C -1.72237727 -0.32645626  0.02159574
  F -2.81366538  0.16835529  0.72642685
  C -2.11493599 -0.51539074 -1.44991319
  C -0.97669672 -1.25711172 -2.16313088
  C  0.12792560 -0.18513018 -2.28160779
  C -0.46976638  1.01440535 -1.53331751
  C -1.93293087  0.90676215 -1.97611890
  N -1.21179062 -1.47331950  0.69567517
  C -1.92403197 -2.61744513  0.91076076
  C -1.25222109 -3.59790777  1.83897634
  O -2.98150733 -2.80872259  0.35076594
  N  0.01484867 -1.12790379  1.34398098
  N  0.55517115 -0.09990326  0.51748440
  C  1.90583509  0.07203348  0.33801213
  C  2.40388168  1.24182071 -0.25227255
  C  3.75255559  1.39953830 -0.48218054
  C  4.65527832  0.40763240 -0.13216228
  C  4.18068306 -0.73664151  0.48046983
  C  2.83008373 -0.90695080  0.72114769
  H -1.08822285  4.14554691  1.99797508
  H -2.72991826  3.61299187  2.41114424
  H -2.46572930  4.62822328  0.97320067
  H -2.61571302  2.30609019  0.27379137
  H -3.09457812 -0.97588911 -1.54710597
  H -0.65301620 -2.13421521 -1.60482932
  H -1.31085331 -1.59862319 -3.14093736
  H  0.29355731  0.09211316 -3.32170497
  H  1.08208982 -0.51179581 -1.87423815
  H  0.02099891  1.95963612 -1.75012766
  H -2.03434000  0.96734003 -3.05752275
  H -2.60892761  1.62712456 -1.52308970
  H -1.94989893 -4.39848017  2.06043381
  H -0.95183556 -3.09848458  2.75686067
  H -0.37153632 -4.02442076  1.35939204
  H  0.64355346 -1.93711772  1.30115432
  H  1.72844645  2.04208449 -0.49564711
  H  4.10568257  2.31501142 -0.93353944
  H  5.71083582  0.53334047 -0.31623283
  H  4.86826814 -1.51424877  0.78073153
  H  2.51781584 -1.81221280  1.22169395
