42
opt_min/./Product_931_opt.xyz
  C  0.27442400  3.67201600  1.40741800
  O  0.37061981  2.25539376  1.46945292
  C  0.11328262  1.57700647  0.35979987
  O -0.26534223  2.06081002 -0.67630695
  C  0.40241902  0.09590877  0.50927092
  C -0.68314646 -0.88965768 -0.00666097
  C -2.07925212 -0.34371866 -0.16317853
  C -2.93589668 -0.85708746 -1.13270705
  C -4.23265453 -0.39019578 -1.24948987
  C -4.70341469  0.58685038 -0.39021035
  C -3.87155726  1.07448702  0.60133141
  C -2.57422989  0.60837304  0.71970978
  C -0.70859593 -1.88111496  1.21912539
  C  0.62543497 -2.59210221  1.27733424
  C  1.47815660 -1.69328565  1.75244275
  C  0.64809791 -0.44200462  1.96154374
  O -0.61311815 -0.97557751  2.30340646
  C -0.05981721 -1.46409382 -1.29862481
  N  1.31164885 -1.04051287 -1.34567960
  C  1.55379825 -0.20754279 -0.42401302
  C  2.87783252  0.46851681 -0.28363438
  O  3.08711601  1.34716724  0.53026888
  N  3.78596988  0.00725592 -1.15893286
  C  5.12257319  0.54473776 -1.23209802
  H -0.15494783  4.00808134  2.34981101
  H -0.35728337  3.96719417  0.56707062
  H  1.27680504  4.08389935  1.28042355
  H -2.59763933 -1.63578276 -1.79965138
  H -4.88039642 -0.79499552 -2.01353497
  H -5.71385210  0.95486320 -0.48722180
  H -4.23207736  1.82276263  1.29213426
  H -1.95637191  0.97931342  1.52224973
  H -1.60563571 -2.49204440  1.28593678
  H  0.80447951 -3.59738007  0.95136751
  H  2.53347197 -1.76533676  1.92360987
  H  1.00004007  0.29768541  2.67107876
  H -0.11136550 -2.55249096 -1.36793235
  H -0.54240087 -1.03345803 -2.18078129
  H  3.47471859 -0.69380025 -1.81343559
  H  5.07730609  1.63294119 -1.16482155
  H  5.58287644  0.25120119 -2.17118234
  H  5.73091819  0.18029785 -0.40006942
