41
opt_min/./Product_490_opt.xyz
  C -2.02704300  3.17743700  0.07703400
  O -2.16179245  1.91188940 -0.54717464
  C -1.75480916  0.79664851  0.17801417
 Cl -2.52196681  0.84907979  1.82888709
  C -0.25887112  0.74144916  0.33267419
  C  0.51624981 -0.06905666  1.06844376
  C  0.13440834 -1.17549897  1.98310905
  C -0.02962411 -2.51226995  1.23876108
  C -0.76604450 -2.37482644 -0.09204715
  C -2.17790952 -1.78258126  0.04348695
  C -2.34137782 -0.39981574 -0.58842105
  C  1.96531191  0.27746826  0.76911270
  C  2.75795717 -0.98534173  0.42254414
  N  2.75194402 -1.27261767 -0.89119651
  C  3.30420776 -2.48589229 -1.43461797
  O  3.31243783 -1.65580300  1.26849614
  N  1.87752058  1.20175744 -0.37201997
  C  2.80836823  2.32548865 -0.33160682
  N  0.51036480  1.68008464 -0.35052549
  H -2.11790029  3.91331543 -0.71991088
  H -2.82728434  3.33177663  0.80633336
  H -1.06122727  3.28379740  0.57592738
  H  0.90786305 -1.29392811  2.74388100
  H -0.79824682 -0.92146294  2.48537314
  H  0.95563940 -2.94227245  1.05163990
  H -0.56994734 -3.20123662  1.89053202
  H -0.82880078 -3.36601450 -0.54785900
  H -0.17111264 -1.75466825 -0.76393697
  H -2.89312441 -2.44353160 -0.44947651
  H -2.46511632 -1.73163934  1.09282575
  H -1.88715506 -0.38716665 -1.58200843
  H -3.40384408 -0.17957815 -0.71300692
  H  2.43528057  0.73334516  1.65842997
  H  2.26636683 -0.62682643 -1.49639271
  H  2.51320520 -3.17518341 -1.74275357
  H  3.94056064 -2.26510676 -2.29226965
  H  3.89801143 -2.95519177 -0.65133959
  H  2.26562759  3.27116340 -0.31825566
  H  3.45091108  2.28636597  0.54940883
  H  3.43970416  2.29764287 -1.22184640
  H  0.19468783  2.04581350 -1.24074925
