40
opt_min/./Product_903_opt.xyz
  C  2.41695694  0.21204598  3.25957009
  N  1.60443770  0.26682361  2.06996326
  C  2.11359608 -0.02449588  0.86386505
  O  3.25710968 -0.42469715  0.69275104
  C  1.16853286  0.09214664 -0.27697813
  C  1.52366118  0.11346452 -1.57778990
  C  2.84564046  0.20440442 -2.30157920
  C  3.72978947 -0.98215499 -2.15841855
  O  3.08060183  1.18579740 -2.95533837
  N  0.40581376  0.18346147 -2.38429503
  C  0.30759643  0.05429403 -3.68578775
  N  0.22025794 -0.03751726 -4.82633194
  O -0.76800843  0.10255747 -1.58712824
  C -0.35262230  0.17071606 -0.20843393
  C -0.83642036  1.51528278  0.40377303
  N -1.50045585  2.30224387 -0.44325972
  C -2.05950507  3.57489705 -0.05840428
  O -0.62138559  1.79076199  1.57224972
  C -1.03283633 -0.96886220  0.53332255
  C -2.41070513 -0.90923382  0.70796237
  C -3.07494690 -1.93761832  1.35131607
  C -2.37088078 -3.03209637  1.82272340
  C -1.00150434 -3.10106615  1.63765635
  C -0.33328496 -2.07680569  0.98992491
  H  3.34736109 -0.29896791  3.01530543
  H  2.64485550  1.21572280  3.62459101
  H  1.88564570 -0.33725211  4.03773548
  H  0.71224902  0.75513942  2.13695038
  H  3.98884739 -1.06166643 -1.10107296
  H  3.19976074 -1.88734659 -2.44805555
  H  4.62380507 -0.85607950 -2.76213445
  H -1.67071079  1.94639178 -1.37411737
  H -3.10416048  3.46752203  0.24419188
  H -1.99515631  4.26998911 -0.89290474
  H -1.48945315  3.95702419  0.78749860
  H -2.96209002 -0.05797329  0.33722843
  H -4.14512159 -1.88160621  1.48403523
  H -2.89055714 -3.83188500  2.32821880
  H -0.44796367 -3.95660998  1.99404214
  H  0.73264514 -2.14824708  0.83939438
