32
opt_min/./Product_667_opt.xyz
  F -1.61136600  1.21570100  1.36084500
  C -1.08564656  0.77038170  0.18182504
  C  0.43202919  1.05179440 -0.00850861
  F  1.03656475  1.65554779  1.05431401
  C  0.41459506  1.93703691 -1.28406478
  C -0.22230291  3.24113684 -0.83549013
  C -1.51448664  2.97486052 -0.69877278
  C -1.66500174  1.50552969 -1.05720838
  O -0.63027685  1.31876206 -2.00784010
  C  0.94959067 -0.40297215 -0.17303775
  C  2.45639170 -0.55396421 -0.03926894
  O  2.76394870 -1.48521842  0.83592233
  C  4.15126186 -1.74277475  1.05502973
  O  3.21049409  0.11457143 -0.68786127
  O  0.14253147 -1.12112400  0.75200308
  C -1.09084190 -0.79841141  0.17369538
  C -2.34625819 -1.41930036  0.81865442
  C -2.09112002 -2.29398939  2.00019114
  O -3.42066599 -1.16062877  0.35795264
  O -0.94640540 -1.21243632 -1.18356451
  C  0.32811260 -0.92762239 -1.51515857
  O  0.84451139 -1.11490174 -2.56030428
  H  1.34361164  1.96599944 -1.84577188
  H  0.30639542  4.14928496 -0.63578394
  H -2.31045148  3.60094183 -0.35545709
  H -2.62483442  1.14747402 -1.41617310
  H  4.73985956 -1.37741055  0.21284413
  H  4.25636752 -2.81967924  1.16313355
  H  4.46868904 -1.24160316  1.96929827
  H -1.04579274 -2.29008251  2.28708400
  H -2.71372662 -1.95496990  2.82518024
  H -2.40440154 -3.30491742  1.74623310
