48
opt_min/./Product_5548_opt.xyz
  C  1.10769322 -1.72449677 -1.10587113
  C  0.43325636 -3.06071957 -1.16537897
  C -0.73082365 -3.28558612 -0.55969118
  N -1.40784489 -2.34255599  0.17296281
  C -2.54868945 -2.74385520  0.95536692
  C -0.85923521 -1.04238217  0.31236395
  C  0.67179374 -0.96333407  0.14572066
  C  1.33862571 -1.48617461  1.41836550
  N  2.68450655 -1.55611124  1.38197768
  O  0.70933449 -1.75363558  2.41895577
  C  0.83397062  0.57086888 -0.00188009
  C  2.10745337  1.01203750 -0.66852509
  C  3.24115187  1.24571360  0.10205107
  C  4.43367724  1.61235172 -0.49700527
  C  4.50382494  1.75895989 -1.87019899
  C  3.37079814  1.55427913 -2.64085089
  C  2.17882004  1.18455962 -2.04370332
  O -0.29148062  1.00735779 -0.74527708
  C -1.35104692  0.05659286 -0.69423884
  C -1.56056642 -0.47227304 -2.03360423
  N -1.73167687 -0.83250617 -3.10543772
  C -2.64584091  0.68648471 -0.21778169
  C -3.85731547  0.06032067 -0.48040611
  C -5.03606211  0.60396650 -0.00153849
  C -5.01267214  1.77422126  0.73915436
  C -3.80652571  2.40228034  0.99438892
  C -2.62527154  1.86026461  0.51970727
  H  0.84707394 -1.13968743 -1.99271893
  H  2.19531875 -1.85320094 -1.12623255
  H  0.90157447 -3.83348934 -1.75034889
  H -1.21471328 -4.24892476 -0.60522126
  H -3.40787620 -2.97363140  0.31593531
  H -2.82844919 -1.93911638  1.63272633
  H -2.31104915 -3.62944869  1.55292050
  H -1.10482600 -0.65955823  1.31543753
  H  3.21547953 -1.22175973  0.59538459
  H  3.17981940 -1.87284629  2.19959524
  H  0.78603397  1.01900523  1.00969080
  H  3.18698216  1.15471426  1.17795391
  H  5.30829450  1.79116168  0.11304270
  H  5.43276916  2.04285997 -2.34109375
  H  3.41544633  1.68227285 -3.71195082
  H  1.29196176  1.04497841 -2.64240325
  H -3.87775280 -0.84570355 -1.06679942
  H -5.97465327  0.11331500 -0.20864831
  H -5.93471354  2.19650213  1.11219343
  H -3.78349728  3.31953042  1.56609982
  H -1.68421918  2.35272655  0.70886219
