38
opt_min/./Product_4625_opt.xyz
  C -0.68463500 -1.22283200 -0.32805000
  O -0.09755658 -2.13051898 -0.86903796
  C  0.09226804 -0.08519668  0.39771973
  O  0.23899975 -0.30821430  1.75757523
  C  0.59153015 -1.62715067  2.14820709
  C -0.62131223  1.27494302  0.15768653
  O  0.07865990  2.21400632  0.93211093
  C -0.25654438  3.58461738  0.78888491
  C -2.11406627  1.21451653  0.41483429
  O -2.70751601  2.07854941  1.02175117
  C -2.81300893  0.00673134 -0.06617663
  C -4.30398378  0.09201704 -0.09717189
  C -2.15672617 -1.13687995 -0.35282743
  C -2.86956709 -2.38681549 -0.75347577
  N -0.26907844  1.44908882 -1.25153123
  N  0.93610220  0.91714140 -1.50870751
  C  1.28756583  0.12793018 -0.55569791
  C  2.61495308 -0.52152524 -0.53117457
  N  3.42109663 -0.07241957 -1.51520110
  C  4.76401957 -0.57338964 -1.67541057
  O  2.95065504 -1.38052683  0.26101775
  H -0.24812436 -2.31776203  2.00772146
  H  0.82822656 -1.54953023  3.20784431
  H  1.46711360 -1.98496680  1.60155464
  H -0.15110296  3.91019811 -0.25208734
  H  0.47200176  4.10722635  1.40603424
  H -1.26414004  3.79746704  1.14531691
  H -4.72944390 -0.53025802  0.69024042
  H -4.69430861 -0.26487374 -1.04933759
  H -4.61854943  1.11944900  0.06781701
  H -3.58392290 -2.18938861 -1.55131030
  H -2.14595102 -3.12575632 -1.08909360
  H -3.42293187 -2.79088871  0.09494947
  H -0.71131075  2.04468217 -1.92629361
  H  3.06607831  0.62891930 -2.14403629
  H  5.42014193 -0.17724460 -0.89554172
  H  4.75637765 -1.66055964 -1.58437414
  H  5.14743699 -0.28711511 -2.65106197
