68
opt_min/./Product_2986_opt.xyz
  C  1.89991900  2.77382600  1.29642000
  O  0.56428539  2.34158528  1.18413922
  C  0.20632281  1.48651313  0.12979512
  C -1.36312062  1.30647765  0.16084939
  C -2.00108081  2.05245260  1.34091591
  F -3.34239499  2.03168204  1.26661784
  F -1.69258410  3.35864481  1.40858842
  F -1.66725411  1.58725640  2.54789983
  C -1.81496346  1.88891760 -1.21015270
  C -1.64580950  3.40698497 -1.32273358
  C -0.11911203  3.58293699 -1.22032001
  C  0.40735294  2.13679603 -1.27103619
  C -0.66381910  1.45064400 -2.11427047
  C -1.58994395 -0.24516364  0.18065613
  C -2.02944704 -0.86980323  1.52251971
  O -1.33531174 -1.99074721  1.76084280
  C -1.68902146 -2.70458697  2.93624154
  O -2.93863834 -0.50802089  2.21347535
  C -2.71375072 -0.75313277 -0.73501415
  C -2.42693570 -1.58186709 -1.81299136
  C -3.43958332 -2.06722564 -2.62150973
  C -4.75803721 -1.74063838 -2.36168285
  C -5.05503517 -0.92875159 -1.28081294
  C -4.04468166 -0.44299575 -0.47020762
  N -0.32064411 -0.76624047 -0.28536891
  C  0.80620099  0.03161404  0.19739206
  C  1.22062835 -0.51996595  1.56597890
  C  0.93457456  0.04122264  2.80142108
  C  1.26499992 -0.62282722  3.97320500
  C  1.88123042 -1.85828469  3.93739628
  C  2.17131671 -2.43107230  2.70977932
  C  1.83955744 -1.77227591  1.54339427
  C  1.99143659 -0.15816344 -0.74668376
  C  3.26678391  0.24485042 -0.36370218
  C  4.35207829  0.08077111 -1.20507646
  C  4.19060291 -0.50762397 -2.44698738
  C  2.93549420 -0.94942205 -2.82457583
  C  1.85115276 -0.78077535 -1.98189236
  H  2.34207070  3.01125479  0.32702603
  H  1.85998310  3.67595020  1.90757625
  H  2.51372421  2.02920261  1.81275187
  H -2.81094738  1.55214972 -1.48851895
  H -2.00660214  3.70757129 -2.30789737
  H -2.19737591  3.98643854 -0.59111008
  H  0.27699710  4.16009734 -2.05526058
  H  0.15505424  4.08305143 -0.29460532
  H  1.42786533  2.05497412 -1.63850852
  H -0.73710388  1.87626905 -3.11305297
  H -0.54951010  0.37885360 -2.18053168
  H -2.61166767 -3.26422920  2.76949596
  H -0.86171477 -3.37926540  3.14208549
  H -1.83562368 -2.00978868  3.76469816
  H -1.40618091 -1.85297447 -2.02739015
  H -3.19288243 -2.70630281 -3.45638319
  H -5.54810648 -2.12133930 -2.99147364
  H -6.08010199 -0.67279312 -1.05956417
  H -4.29976051  0.16920387  0.37812022
  H -0.21202983 -1.74407976 -0.03755555
  H  0.45454935  0.99934815  2.87652400
  H  1.02526965 -0.16254084  4.92034997
  H  2.13084387 -2.37340561  4.85346298
  H  2.65310266 -3.39697301  2.65930117
  H  2.06741217 -2.23751217  0.59408882
  H  3.42629598  0.67242667  0.61306489
  H  5.32926526  0.40827760 -0.88195481
  H  5.03680031 -0.63397832 -3.10550126
  H  2.79605133 -1.43371189 -3.77982402
  H  0.88829618 -1.15369704 -2.28894962
