27
opt_min/./Product_3602_opt.xyz
  O -2.79912500  0.78497100 -2.94809200
  C -2.45650476  1.56379341 -2.18362332
  O -2.13762284  2.36802373 -1.43589844
  C -1.11874144 -0.55607795 -0.35003685
  C  0.03336607 -0.17135603 -0.86958137
  C  1.04915837 -2.94108065 -0.20812254
  O  0.58630413 -3.42852014 -1.13204241
  O  1.52226240 -2.48911060  0.73071603
  C  0.81185449  0.62172005  0.15617364
  C  2.28079120  0.23439560  0.18095552
  O  2.93441023  0.03472273 -0.81032970
  O  2.75530221  0.14281791  1.41967001
  C  4.12253524 -0.22072554  1.55342125
  N  0.09597180  0.42686133  1.41651885
  C -1.24753444 -0.05296760  1.06922986
  C -1.76700849 -1.09302146  2.05206791
  H -1.89275733 -1.12774750 -0.82853898
  H  0.42308408 -0.35155045 -1.85420960
  H  0.77621567  1.69118011 -0.11508511
  H  4.75997225  0.64205146  1.35088462
  H  4.37126912 -1.01901362  0.85202890
  H  4.25175781 -0.55390065  2.57981954
  H  0.57380600 -0.28997009  1.95403261
  H -1.92123695  0.81866541  1.07576744
  H -2.79253129 -1.36169661  1.81131590
  H -1.73867874 -0.69182473  3.06184788
  H -1.15304849 -1.99163192  2.01522574
