36
opt_min/./Product_683_opt.xyz
  F -2.52609142 -1.00813608 -0.80769308
  C -1.52524949 -0.53410088  0.01242127
  C -0.12112859 -0.60996481 -0.66037581
 Cl -0.19863732 -1.25500166 -2.33587735
  C  0.62043486 -1.63864725  0.21399679
  C  0.93658257 -1.08641084  1.61191303
  C -0.45420427 -0.96804964  2.26810469
  C -1.39481589 -1.51419498  1.19157771
  C -0.52526827 -2.59876125  0.54546183
  C  0.37735886  0.86480670 -0.70234447
  C  1.86269675  1.05039733 -0.37610017
  O  2.60802963  0.31904167 -1.18293140
  C  4.02551766  0.42696223 -1.06229383
  O  2.25401741  1.78993194  0.48692096
  C  0.23322889  1.43886283 -2.04061846
  N  0.13531191  1.98681645 -3.03816141
  N -0.46518319  1.62446110  0.19301469
  C -1.76854107  0.98329333  0.28815985
  C -2.70493259  1.58824273 -0.77404620
  C -2.40379563  1.22805686  1.56724519
  N -2.96444889  1.45332690  2.53806540
  H  1.48160128 -2.06393420 -0.29598406
  H  1.47689474 -0.14514898  1.61784875
  H  1.55107514 -1.81917116  2.13501789
  H -0.52629871 -1.58286594  3.16371436
  H -0.69250333  0.05299067  2.56245095
  H -2.36803793 -1.83104856  1.55917693
  H -0.98583836 -3.03903593 -0.33638842
  H -0.23528503 -3.37958185  1.24285859
  H  4.43154392 -0.58090535 -1.12144552
  H  4.28758646  0.89559909 -0.11297416
  H  4.40199600  1.02950981 -1.88919251
  H -0.00089927  1.89534111  1.05000461
  H -2.31576731  1.38962647 -1.76954466
  H -3.70075789  1.16122252 -0.68920647
  H -2.75816581  2.66343036 -0.62573506
