51
opt_min/./Product_5420_opt.xyz
  C  4.82436303 -0.15770007 -1.37563490
  C  3.70445412  0.26083421 -0.47676063
  C  4.03450266  1.35648674  0.49701031
  C  2.50234437 -0.29455769 -0.57460245
  C  1.30009826  0.04373962  0.23789968
  C  0.04791591  0.24566670 -0.63227168
  C  0.04381847  1.52163995 -1.42907359
  C -0.33837239  1.37265098 -2.86895856
  C  0.36262057  2.69824274 -0.91159966
  C -1.12665819  0.03328959  0.37397748
  C -2.29995233 -0.66182827 -0.32337193
  N -2.70932600 -1.77943814  0.28467756
  C -3.73549485 -2.63630468 -0.25566692
  O -2.81818762 -0.19184461 -1.32425616
  C -1.62307935  1.36866759  0.97717051
  O -1.30872430  1.67725494  2.11506193
  N -2.40241542  2.09528065  0.17798261
  C -2.87756831  3.40613538  0.54123293
  N -0.59003066 -0.77264674  1.47355135
  C  0.80055357 -1.10163128  1.16727950
  C  0.80550015 -2.37013006  0.45986659
  N  0.75484085 -3.37035723 -0.09274718
  C  1.70861967 -1.32630398  2.39298062
  C  1.01201602 -1.70657232  3.66752239
  O  2.90270357 -1.25155608  2.28914921
  H  5.67083775 -0.50517431 -0.78393101
  H  4.52099144 -0.96266596 -2.04144180
  H  5.16301085  0.68845923 -1.97430689
  H  3.70377793  1.09081994  1.49860769
  H  3.54461405  2.28574794  0.20522423
  H  5.10775169  1.52358518  0.52203994
  H  2.33814066 -1.07926292 -1.30448122
  H  1.46882224  0.91995929  0.86618502
  H  0.00497891 -0.59591240 -1.33724440
  H  0.18375499  0.53008393 -3.32044268
  H -0.10404433  2.27428330 -3.42991272
  H -1.40635808  1.16837932 -2.95424187
  H  0.38231743  3.58710333 -1.51970452
  H  0.61113472  2.82765956  0.12812454
  H -2.13968456 -2.12007457  1.04892935
  H -4.02129351 -2.24485809 -1.23150175
  H -4.60930094 -2.64652705  0.39873304
  H -3.35888641 -3.65268444 -0.37254135
  H -2.61637611  1.73954538 -0.74538126
  H -2.72233777  3.53566146  1.61212349
  H -3.93755712  3.49894774  0.30720200
  H -2.32029851  4.18330847  0.01266770
  H -0.63946235 -0.17172959  2.30074827
  H  0.24659881 -0.98791230  3.94369406
  H  1.74687689 -1.79006491  4.46472605
  H  0.53157667 -2.67410734  3.51877574
