34
opt_min/./Product_271_opt.xyz
  C  2.88619400  1.01521101  1.99432600
  C  2.30381331  0.11604181  0.97929107
  C  2.85446047 -0.51531180 -0.07167011
  C  4.16172430 -0.48999407 -0.55765021
  N  5.22606969 -0.46380957 -0.98770061
  C  1.68308160 -1.20520926 -0.76021903
  C  0.93363522  0.00547253 -1.42869867
  C  0.18607842  0.56462607 -0.19916518
  C  0.83216388 -0.27334215  0.93262213
  O  0.86609004 -1.55680623  0.33544308
  C -1.29379822  0.27141999 -0.52625916
  C -2.20770273  1.38766452 -0.00196162
  C -3.35717144  1.75257212 -0.88402975
  O -2.01099135  1.87172457  1.08608498
  C -1.97000797 -1.00772544  0.07567888
  C -2.00815365 -1.18980430  1.55800213
  O -2.54318497 -1.73919683 -0.69025265
  N -1.33240728  0.18566657 -1.98047760
  N -0.06065581 -0.40157777 -2.39593160
  H  2.67378426  0.63848485  2.99536323
  H  2.42992588  2.00389095  1.91625490
  H  3.96137927  1.10637705  1.86095302
  H  1.87356070 -2.05451090 -1.40776491
  H  1.66785661  0.70232168 -1.84474350
  H  0.31273890  1.63658198 -0.04994129
  H  0.32199839 -0.25046247  1.88696704
  H -3.79689552  2.69097980 -0.55429376
  H -3.04455811  1.80232967 -1.92247881
  H -4.10944278  0.96720391 -0.78967309
  H -1.91786581 -0.24574068  2.08474063
  H -1.19454525 -1.85418262  1.84599882
  H -2.94561663 -1.67947786  1.82054233
  H -2.04888384 -0.49859526 -2.24651559
  H  0.14263017 -0.02900227 -3.32077535
