67
opt_min/./Product_3121_opt.xyz
  F  2.43593500  2.81471800  0.08809500
  C  1.51602858  2.36471438 -0.80011147
 Br  2.51187135  2.58889378 -2.57769410
  C  1.28316085  0.91157426 -0.58886713
  C  0.19113271  0.08261136 -0.65816205
  C -1.29004297  0.41657438 -0.71535359
  C -1.60927395  1.26927646  0.51373231
  C -2.62403390  2.22245512  0.53646555
  C -2.90691671  2.93796869  1.68624751
  C -2.19254628  2.71181627  2.84978605
  C -1.20682427  1.74166528  2.85691939
  C -0.93033317  1.02447455  1.70719894
  C -2.15421207 -0.85358974 -0.64139184
  C -2.06894637 -1.80692635 -1.65455002
  C -2.90093610 -2.91086196 -1.67223280
  C -3.84457341 -3.08687880 -0.67652621
  C -3.92480212 -2.16349842  0.34906669
  C -3.08831194 -1.05920881  0.36688996
  C -1.71562913  1.06063852 -2.06016550
  C -0.78173917  2.05328462 -2.73601805
  C -0.51896957  3.38169073 -2.03301393
  C  0.33997508  3.31850569 -0.76979923
  C  0.71234237 -1.25728932 -0.38874317
  C  0.07168237 -2.61201518 -0.24881935
  N -0.41643542 -2.81365249  0.99592687
  C -1.03356143 -4.06085287  1.38006232
  O  0.17742632 -3.48085263 -1.08508253
  N  1.98565375 -1.26574193 -0.18421524
  C  2.45784733  0.07235037 -0.18165101
  C  3.79338252  0.24361281 -0.94204876
  O  4.54201409  1.17138489 -0.76168686
  N  4.01997099 -0.77743165 -1.78154099
  C  5.19507839 -0.83834064 -2.61594190
  C  2.84272457  0.24811608  1.34148674
  O  2.37586371  1.07574223  2.07433507
  N  3.73539443 -0.69656988  1.67400173
  C  4.37889819 -0.71084137  2.96588076
  H -3.21209573  2.42312069 -0.34480745
  H -3.69302017  3.67858686  1.66923817
  H -2.40719562  3.28047164  3.74152177
  H -0.63992170  1.54243591  3.75289485
  H -0.15220670  0.27622528  1.74822612
  H -1.32836020 -1.71008330 -2.43467454
  H -2.80872394 -3.63109322 -2.47030833
  H -4.50724246 -3.93940080 -0.69640106
  H -4.64318231 -2.29575485  1.14527595
  H -3.17828024 -0.35957597  1.18374797
  H -1.83519745  0.25116899 -2.78194246
  H -2.70736591  1.49708603 -1.94125923
  H -1.24257970  2.29688168 -3.69805791
  H  0.15440907  1.55138623 -2.96828547
  H -0.01900540  4.02966596 -2.75598523
  H -1.46762768  3.85556930 -1.77353766
  H -0.25482418  3.05568731  0.10523376
  H  0.75657484  4.31319930 -0.58566717
  H -0.58403922 -2.01792850  1.59289048
  H -0.74433817 -4.80342387  0.63880484
  H -0.67196977 -4.36036678  2.36370889
  H -2.12185461 -3.97766326  1.39897610
  H  3.33528872 -1.51786820 -1.84119740
  H  5.70305191  0.12162856 -2.54106290
  H  4.90910320 -1.02033617 -3.65138336
  H  5.86795891 -1.63024299 -2.28090571
  H  3.79862028 -1.49421332  1.05684947
  H  4.68094003 -1.72570315  3.21203047
  H  3.68768959 -0.33755098  3.72233965
  H  5.25887119 -0.06436402  2.95321829
