36
opt_min/./Product_5197_opt.xyz
  O  0.71733805 -1.41761507 -3.09311381
  C  1.50687112 -0.59404765 -3.03381941
  O  2.29553729  0.23442806 -2.98440784
  C  0.26693130  0.91657138 -0.24627768
  C -0.94223852  0.40387586 -0.37787628
  C -1.68349754  2.49656653 -2.48861623
  O -2.51603660  2.88781017 -1.81055544
  O -0.84914009  2.11272519 -3.17195509
  C -1.47751365  0.01511015  0.98784218
  C -2.40116879  1.06434007  1.40335381
  N -3.12312905  1.89342247  1.71068155
  C -2.23836430 -1.32562028  1.03436618
  C -2.62119541 -1.74962735  2.41599717
  O -2.49225649 -1.93025408  0.03119463
  N -0.30567194  0.04887166  1.87304475
  C  0.68641026  0.88472196  1.20995989
  C  0.70599554  2.28827904  1.83273359
  O  1.13832352  3.18191416  0.94887314
  C  1.23620273  4.53663832  1.37788550
  O  0.37293429  2.52072708  2.95748404
  C  2.07034681  0.23405734  1.30838089
  O  2.22100540 -0.95807183  1.24281841
  O  3.03812438  1.12446098  1.44377988
  C  4.36794387  0.61208010  1.49906757
  H  0.90622932  1.32888013 -1.00081937
  H -1.50693181  0.20669855 -1.26824975
  H -1.72908740 -1.90951174  3.01764115
  H -3.20523001 -2.66462072  2.37642509
  H -3.19255378 -0.95534368  2.89306455
  H  0.07806644 -0.88684202  1.98678810
  H  0.49950768  5.12639184  0.83157487
  H  2.24110379  4.88574619  1.14607278
  H  1.04260469  4.60227322  2.44890095
  H  5.02607668  1.47598621  1.44854158
  H  4.51894148  0.06745444  2.43318645
  H  4.54812770 -0.06320060  0.65973266
