49
opt_min/./Product_2260_opt.xyz
  N -1.07732076 -3.39059992  1.37287502
  C -0.64852993 -2.42004554  0.94686823
  C -0.04055926 -1.31108439  0.24490151
  C  1.48554895 -1.12067757  0.49461319
 Br  2.25476954 -2.24170485  1.90240911
  C  2.11611070 -1.40203702 -0.87758253
  C  1.95304626 -2.88447887 -1.24093867
  C  0.44940216 -3.01379301 -1.54818821
  C -0.07990372 -1.59711022 -1.28917761
  C  1.08704562 -0.75572752 -1.80932617
  C  1.60477931  0.35774868  0.93528815
  C  2.86550026  1.06243491  0.41838413
  N  2.62456504  2.15473161 -0.32435290
  C  3.67872091  2.99285666 -0.83728565
  O  3.97544181  0.65929301  0.69064683
  O  0.43213345  1.00305733  0.47884770
  C -0.64089397  0.07686679  0.62162355
  C -1.14723027  0.09166418  2.09351883
  O -1.72828235 -0.84189799  2.59688016
  N -0.93370313  1.26744170  2.70769579
  C -1.33799156  1.50944062  4.06959625
  C -1.83502348  0.48688569 -0.20134511
  C -1.86185990  1.69168809 -0.88846346
  C -2.98366227  2.05312641 -1.61389500
  C -4.08659350  1.21935694 -1.64943854
  C -4.06895088  0.02147117 -0.95304411
  C -2.95077691 -0.34666789 -0.22879919
  H  3.14511008 -1.05568119 -0.93355815
  H  2.55874034 -3.11385458 -2.11896720
  H  2.27424505 -3.54528920 -0.43776195
  H  0.27991334 -3.28256272 -2.59174163
  H -0.04285146 -3.76475119 -0.93093203
  H -1.05905623 -1.40603665 -1.72250086
  H  1.29979882 -0.94661373 -2.85992204
  H  0.95118161  0.31185631 -1.66044978
  H  1.65938066  0.40929314  2.03662664
  H  1.66670253  2.41320520 -0.50124106
  H  4.60696040  2.42370710 -0.79794211
  H  3.79092762  3.89491713 -0.22983774
  H  3.46445171  3.27605979 -1.86715458
  H -0.43916534  1.99417225  2.21243916
  H -2.07714318  0.75531406  4.33858085
  H -1.77538628  2.50336827  4.15518212
  H -0.48808868  1.42412680  4.75295529
  H -0.99905435  2.33954992 -0.85554049
  H -2.99455733  2.99144507 -2.14940878
  H -4.96143919  1.50304012 -2.21595044
  H -4.92860312 -0.63111583 -0.96912965
  H -2.93649077 -1.27199404  0.32741602
