30
opt_min/./Product_4119_opt.xyz
  O -0.15613000  2.73640200  1.09968500
  C -0.25311897  3.05197122  0.00464146
  O -0.36373995  3.37158983 -1.08858345
  C -0.76791423  0.20524271 -1.31979978
  C  0.58036857 -0.14920749 -1.30908563
  C  3.15129269  1.97429334 -1.21259476
  O  2.52112199  2.60982749 -0.50105641
  O  3.78622598  1.33798145 -1.91846114
  C  0.87695036 -0.59885381 -0.03420227
  C  2.19031198 -1.04380493  0.50495412
  C -0.07143501 -3.10774727 -1.06108747
  O  1.00598489 -3.48502157 -1.14303290
  O -1.16294201 -2.77172509 -0.98811368
  C -1.27203366 -0.02054914 -0.04431079
  C -2.61164783  0.25155050  0.44988472
  C -3.67618117  0.34503063 -0.61808818
  O -2.88686084  0.38480070  1.62915727
  N -0.23016032 -0.47111848  0.73237399
  C -0.32841101 -0.89921205  2.10218354
  H -1.30452098  0.60755581 -2.15499814
  H  1.25993815 -0.11345906 -2.13811799
  H  2.66258548 -0.23996127  1.07276874
  H  2.84753189 -1.31708057 -0.31618949
  H  2.08120590 -1.90581705  1.16075241
  H -4.60966095  0.67507077 -0.17028825
  H -3.38509899  1.03236907 -1.40639328
  H -3.81466391 -0.64101635 -1.05738517
  H -0.50146729 -1.97792020  2.15872695
  H  0.59101181 -0.65488303  2.63179717
  H -1.16255831 -0.38310785  2.57269885
