59
opt_min/./Product_2739_opt.xyz
 Br  1.08125100 -2.94287700  0.65303000
  C  0.79907251 -1.30944371 -0.41755487
  C -0.64751690 -0.71881213 -0.24567357
  C -1.40472188 -1.31764711  0.92582278
  C -2.52115920 -2.13418289  0.79648557
  C -3.16162117 -2.64025658  1.91418575
  C -2.70077274 -2.34596734  3.18467419
  C -1.58654972 -1.53856385  3.32791099
  C -0.95137458 -1.03101311  2.21086837
  C -1.27583174 -1.01067964 -1.63541057
  C -0.68085542 -0.08389630 -2.70128823
  C  0.75001145 -0.62211507 -2.87404468
  C  0.80730171 -1.78938497 -1.88111224
  C -0.61591916 -2.34249787 -1.99414206
  N -0.40190122  0.69096244  0.01623224
  C -1.36059298  1.67630411 -0.07000347
  C -1.02485841  2.99679648 -0.40463931
  C -1.97379074  3.99785206 -0.36519593
  C -3.28295341  3.72004765 -0.01331991
  C -3.63312088  2.41290720  0.28133748
  C -2.69478305  1.40270969  0.25454112
  N  0.94118321  1.00221999 -0.41557802
  C  1.75345092 -0.14659190 -0.04891250
  C  2.23487060 -0.14031760  1.42454703
  C  2.13374742  1.17342456  2.16468351
  O  2.76589483 -1.10050271  1.91585663
  C  3.07623356 -0.15715941 -0.80319990
  C  3.86087538 -1.30386260 -0.82692964
  C  5.08116955 -1.30078694 -1.47767275
  C  5.54056591 -0.15300007 -2.09975815
  C  4.77290744  0.99767828 -2.06260477
  C  3.55219117  0.99975404 -1.41271601
  H -2.91270806 -2.39618375 -0.17386236
  H -4.02808711 -3.27168446  1.78303935
  H -3.19899224 -2.74664565  4.05439035
  H -1.20579003 -1.30186154  4.30978684
  H -0.07998718 -0.41023755  2.35001235
  H -2.36244976 -0.97696497 -1.63995838
  H -1.25883700 -0.18095267 -3.62094222
  H -0.70325202  0.96256198 -2.40869777
  H  1.50074881  0.13706359 -2.67660317
  H  0.91508245 -1.00625245 -3.88054107
  H  1.61760646 -2.48482987 -2.09017040
  H -0.82757822 -3.14207965 -1.28617582
  H -0.85985372 -2.68333674 -2.99919322
  H -0.02384769  3.23408109 -0.73127814
  H -1.68458889  5.00708996 -0.62248198
  H -4.02318929  4.50457724  0.01863968
  H -4.65496604  2.17110807  0.53591665
  H -2.99006508  0.39420034  0.49291571
  H  1.23054249  1.84785753  0.06924860
  H  2.43555561  1.01313388  3.19688142
  H  1.12941939  1.59363738  2.14418944
  H  2.82576388  1.88391455  1.70957111
  H  3.53397427 -2.19691181 -0.31981269
  H  5.67757373 -2.20042325 -1.49104390
  H  6.49405474 -0.15421399 -2.60637894
  H  5.12444916  1.90280090 -2.53571842
  H  2.95343384  1.89765509 -1.40343211
