30
opt_min/./Product_3786_opt.xyz
  C -0.58998366 -1.36591986  0.67835972
  C  0.84642462 -0.98102690  1.01109384
  C  1.18760864 -0.02194296 -0.15159739
  C  2.26714688  0.99111591  0.26592147
  O  3.46409558  0.59883414 -0.15087756
  C  4.57930820  1.41746749  0.19278527
  O  2.04006954  1.95854452  0.93420895
  C  1.60529270 -0.79087004 -1.31603304
  N  1.90554477 -1.44213367 -2.20574689
  O -0.00556068  0.68584110 -0.40179742
  C -1.13071799 -0.11570297 -0.05144365
  C -2.07282516  0.71209710  0.84750785
  C -2.11717724  2.17432464  0.53947903
  O -2.74148606  0.17143976  1.69066262
  C -1.90750886 -0.51410522 -1.32135353
  C -3.12979803 -1.35355169 -1.07270849
  O -1.56188683 -0.13262501 -2.40378867
  H -0.61515329 -2.23472759  0.01832958
  H -1.18817186 -1.57258314  1.56611263
  H  0.88565445 -0.41395122  1.94376679
  H  1.52563603 -1.82903289  1.06897183
  H  4.41849783  1.88038207  1.16843213
  H  4.70337252  2.19706617 -0.56081879
  H  5.44790367  0.76391318  0.20646464
  H -1.29448520  2.46464962 -0.10464226
  H -3.06970137  2.40052051  0.06126441
  H -2.07939072  2.73587997  1.47212506
  H -3.19437542 -2.13555303 -1.82647881
  H -4.00317344 -0.71226828 -1.19353387
  H -3.14501312 -1.77860912 -0.07508416
