21
opt_min/./Product_33_opt.xyz
  C  3.57155490 -0.75770721  0.30378869
  O  2.14828886 -0.82289735  0.25538902
  C  1.48768324  0.30722429  0.00730115
  O  1.97902787  1.38928592 -0.17092529
  C  0.02985699  0.04918533 -0.02058301
  C -0.70423855 -1.02083866 -0.37756175
  F -0.28529502 -2.20240689 -0.80284136
  C -2.12406682 -0.69762963 -0.21474749
  C -3.23537851 -1.61881482 -0.52502895
  N -2.28412959  0.49530855  0.22268753
  C -0.97943056  1.12276270  0.34366771
  C -0.75857291  1.69846375  1.65609109
  N -0.56621447  2.14797577  2.68585329
  C -0.91512822  2.20232672 -0.64430414
  N -0.89272709  3.01564762 -1.43964805
  H  3.97222361 -1.20891612 -0.60408837
  H  3.89215413  0.28213300  0.38861341
  H  3.88480145 -1.32775702  1.17753314
  H -3.03298198 -2.15114191 -1.45237331
  H -4.16502539 -1.06324037 -0.61434725
  H -3.34504506 -2.35340645  0.27556932
