66
opt_min/./Product_3159_opt.xyz
  C  3.66995319 -2.80003457  2.45106326
  O  3.24835591 -2.08226745  1.29719658
  C  2.17803112 -1.29842438  1.41708070
  O  1.55896279 -1.13733837  2.43034483
  C  1.94474476 -0.56670209  0.09276927
  C  3.28414176  0.18412643 -0.03112669
  O  4.06423929  0.06102931 -0.93106754
  O  3.51043492  0.93398011  1.04900589
  C  4.77311749  1.59376236  1.09315396
  C  0.77361425  0.38649928  0.09651850
  C -0.54593973  0.15955140  0.05430988
  C -1.33080043 -1.12041235  0.04757398
 Br -1.55428502 -1.62688661 -1.87842531
  C -2.70227660 -0.91764402  0.68516205
  C -3.90492021 -0.92594115 -0.00245529
  C -5.10930081 -0.77337519  0.66340806
  C -5.13613610 -0.62079079  2.03649986
  C -3.94328347 -0.64192415  2.73936792
  C -2.74259598 -0.79514778  2.07505815
  C -0.70674044 -2.31661103  0.77252333
  C  0.30023287 -3.29023939  0.12786029
  C  1.34929567 -2.91898343 -0.94561101
  C  1.78933997 -1.47296598 -1.14635273
  C -1.25553430  1.48932539 -0.17718501
  C -2.13265675  1.46224826 -1.44141002
  O -1.36774332  1.48236206 -2.51982131
  C -2.03596031  1.45629440 -3.77570370
  O -3.33378431  1.45369961 -1.44221200
  C -2.02032918  2.10477160  1.02792904
  C -2.70596100  3.39236696  0.68358510
  O -1.99018448  1.63826350  2.12901154
  O -0.22036760  2.44165807 -0.41955170
  C  1.04236901  1.86796597 -0.08287349
  C  1.91198936  2.12843218 -1.21666319
  N  2.50198917  2.38140231 -2.16353814
  C  1.46543489  2.59249692  1.23632095
  C  2.16739111  3.90738393  1.04479596
  O  1.10130889  2.17517281  2.29547252
  H  2.87684874 -2.81167870  3.20002962
  H  4.55599635 -2.31919914  2.86751893
  H  3.91249683 -3.81195561  2.13216108
  H  4.73393370  2.26457000  1.94570856
  H  4.94676421  2.14009688  0.16429832
  H  5.56805886  0.85758000  1.22415823
  H -3.93276515 -1.05198624 -1.07388217
  H -6.02729623 -0.77606698  0.09518691
  H -6.07450641 -0.49566570  2.55553865
  H -3.94092217 -0.53696959  3.81302689
  H -1.82927024 -0.80911068  2.64799122
  H -1.54086463 -2.95491764  1.08443032
  H -0.26580950 -1.89517869  1.67252595
  H  0.82748120 -3.74040176  0.97510212
  H -0.28161420 -4.10393798 -0.31709089
  H  0.99273553 -3.26061946 -1.91870493
  H  2.23214414 -3.51929864 -0.71217270
  H  1.10039741 -0.97083140 -1.82580257
  H  2.75483753 -1.49873921 -1.65909310
  H -2.54023145  2.40756923 -3.95058189
  H -2.77173561  0.65113982 -3.79346321
  H -1.26473627  1.28691910 -4.52150377
  H -2.68667516  4.05893596  1.54141935
  H -2.25773279  3.86845612 -0.18404675
  H -3.74533001  3.15537815  0.45947209
  H  2.86593471  4.07334001  1.86068281
  H  1.41072074  4.68961544  1.09858460
  H  2.67165047  3.97832792  0.08728707
