40
opt_min/./Product_1429_opt.xyz
  C -3.35757600  3.31806800  0.16626200
  N -2.30246943  2.33362417  0.17348698
  C -1.18830234  2.49048187 -0.55578986
  O -0.96545631  3.40147874 -1.32078512
  C -0.20417148  1.37734077 -0.35015250
  C  1.02824116  1.39051079  0.16839793
  C  1.84129930  2.54993441  0.62704384
  F  2.58552131  3.05687544 -0.37436551
  F  1.08487416  3.54398142  1.09572419
  F  2.70934514  2.23640108  1.59563997
  C  1.54782813 -0.03252844  0.00545430
  C  2.77607787 -0.50338426  0.79204424
  N  3.85188367 -0.72470485  0.02961526
  C  5.12253043 -1.10824599  0.59465775
  O  2.71242996 -0.66797708  1.98664397
  O  1.74130915 -0.15643772 -1.49399066
  C  0.51895019 -0.17372222 -1.99151071
  O  0.22450332 -0.28694702 -3.14373006
  C -0.45465493 -0.05925214 -0.76742115
  C -1.92170497 -0.45090388 -0.91535666
  O -2.59600716 -0.67723713  0.07034849
  N -2.38768933 -0.41194294 -2.16662665
  C -3.76766755 -0.69704890 -2.47783374
  N  0.34218361 -0.76197614  0.23877168
  C  0.36121347 -2.20654424  0.21438920
  H -4.17756479  2.99196811 -0.47817827
  H -2.95287224  4.25125047 -0.22350451
  H -3.73315004  3.47144418  1.17587932
  H -2.40297317  1.52645792  0.77313426
  H  3.79322094 -0.60467312 -0.96989362
  H  4.99544899 -1.18564903  1.67307695
  H  5.44375458 -2.06998796  0.19215586
  H  5.87770533 -0.35318917  0.37100445
  H -1.75034907 -0.26637143 -2.94130660
  H -3.85680571 -1.64956206 -3.00439264
  H -4.17221717  0.09516954 -3.10787233
  H -4.32172499 -0.74962254 -1.54266053
  H  0.99812250 -2.54613084  1.02825521
  H  0.72084983 -2.62237639 -0.73636511
  H -0.65517835 -2.54899187  0.40055513
