41
opt_min/./Product_1020_opt.xyz
  C  3.29640700  2.17994801  1.00623398
  N  2.34772145  1.42346641  0.22445698
  C  1.49851243  0.54752068  0.79785748
  O  1.45038172  0.37451598  1.99389781
  C  0.60355817 -0.23753523 -0.19212771
  C -0.69285096  0.54281425 -0.57651548
  C -0.88576654  1.89454575  0.12653699
  C -0.11115151  3.08636043 -0.35571299
  O -1.68230770  1.98671748  1.02479067
  C -0.47981911  0.69688275 -2.12070521
  C -0.60982088 -0.65054958 -2.79210904
  C  0.49630568 -1.31271474 -2.47009706
  C  1.28398429 -0.36834298 -1.59624485
  O  0.93126581  0.89660304 -2.16137169
  C -1.77456844 -0.40900616  0.01952840
  C -3.09817740  0.15717659  0.17578174
  N -4.18033722  0.51525963  0.24186939
  O -1.88859465 -1.61807557 -0.77684521
  C -0.77863088 -2.32403747 -0.48588361
  O -0.55022936 -3.42439694 -0.88780819
  C  0.01586172 -1.48492659  0.53342471
  C  0.98169489 -2.31706476  1.35027844
  N -1.09964788 -0.82304537  1.22665506
  C -1.87701791 -1.59247152  2.17229114
  H  3.26391405  1.80405402  2.02757899
  H  4.30037641  2.05221045  0.60005353
  H  3.04637705  3.24295170  1.00940702
  H  2.29602772  1.63454293 -0.76009135
  H  0.59864992  3.35823918  0.42441319
  H -0.80532784  3.91982404 -0.45449420
  H  0.41569886  2.91960482 -1.28795322
  H -1.02125435  1.52334235 -2.57331668
  H -1.45563836 -0.96470899 -3.36949020
  H  0.80728719 -2.30217589 -2.73670049
  H  2.36046475 -0.51586478 -1.56537543
  H  0.63991931 -3.34931611  1.38254122
  H  1.07067264 -1.91468376  2.35478978
  H  1.96528056 -2.29477172  0.88622241
  H -2.48868936 -2.37137928  1.69833618
  H -2.52617498 -0.90090323  2.70834882
  H -1.19464119 -2.05504403  2.87967591
