48
opt_min/./Product_5816_opt.xyz
  O  1.16739500  2.53457800 -2.96488400
  C  1.12158852  1.18151527 -3.14754513
  O  1.55612378  0.76588093 -4.17173323
  C  0.35726887  0.39310543 -2.11183541
  C -0.73048920  1.21645519 -1.41143932
  C -0.15773437  2.54800553 -0.97565862
  O  0.82370791  3.08767400 -1.72054711
  O -0.44674252  3.13792180  0.02495730
  C -1.07653648  0.33071983 -0.17762117
  C -1.60343780  1.17363641  1.00260695
  O -2.68291538  1.69165141  1.05293580
  O -0.72069591  1.18870467  2.00226548
  C -1.07453497  2.01431341  3.10849697
  C -2.11755619 -0.69906958 -0.61570985
  C -1.74957353 -2.00515017 -0.91629350
  C -2.69251475 -2.92143069 -1.35026826
  C -4.01568339 -2.54695269 -1.49607917
  C -4.38598168 -1.24226335 -1.21957354
  C -3.44457683 -0.32238364 -0.79321241
  N  0.21108157 -0.24300512  0.17306295
  C  1.17646584 -0.10617111 -0.90195875
  C  1.90404088 -1.44189589 -1.14577602
  N  2.50808966 -1.87759995 -0.01969780
  C  3.34575346 -3.05807568 -0.02200489
  O  1.88133443 -2.04345963 -2.19009309
  C  2.26046039  0.94584804 -0.55582375
  O  3.11134536  1.24166769 -1.36684542
  N  2.17082947  1.43025627  0.69176858
  C  2.99670140  2.52759461  1.13843111
  H -0.05674781 -0.48071192 -2.62794210
  H -1.61571400  1.37905160 -2.03151062
  H -0.22531156  1.99658707  3.78644299
  H -1.96793364  1.62568260  3.59996616
  H -1.27095736  3.02743875  2.75486329
  H -0.72278648 -2.33433634 -0.84361357
  H -2.38189690 -3.92901258 -1.58117353
  H -4.74943717 -3.26375951 -1.83169165
  H -5.41238700 -0.93164516 -1.34224786
  H -3.74851707  0.68947338 -0.58131815
  H  0.13902490 -1.17367064  0.56160050
  H  2.45937013 -1.31346660  0.81628126
  H  2.78352883 -3.90420937 -0.41922920
  H  3.66718063 -3.27490196  0.99240356
  H  4.21865470 -2.90232831 -0.65849078
  H  1.34017907  1.19872150  1.22604974
  H  2.54121255  3.48750740  0.88276465
  H  3.96099254  2.45533111  0.63726566
  H  3.12953174  2.46483979  2.21631740
