67
opt_min/./Product_3168_opt.xyz
  C  3.75992377 -0.75341604  3.20191662
  O  3.48141195 -0.55593815  1.82202259
  C  3.19073699  0.67327435  1.42238591
  O  3.22412159  1.64528865  2.11786483
  C  2.84175796  0.65084839 -0.08807107
  C  3.60376479  1.65143707 -0.80339407
  N  4.34568930  2.25755693 -1.42472160
  C  1.32664631  0.64386847 -0.23696378
  C  0.49365483 -0.39840473 -0.57758949
  C  0.60568444 -1.70730078 -1.46510476
  C -0.39804033 -1.44150769 -2.63267075
  F -1.65771350 -1.18336838 -2.29506328
  F -0.48711312 -2.46348716 -3.49662078
  F  0.01938293 -0.38046686 -3.33620735
  C  0.13540459 -2.94136277 -0.64949130
  F -1.14283228 -3.28430934 -0.88280907
  F  0.82128381 -4.06072751 -0.90317239
  F  0.22752965 -2.76085775  0.67127878
  C  1.85683195 -2.23598513 -2.35194444
  C  3.23020827 -2.71342673 -1.79426244
  C  4.16177977 -1.58394793 -1.28439666
  C  3.06709991 -0.71280545 -0.73005504
  C -0.80286581 -0.02474862  0.20197647
  C -2.28472590 -0.35072622 -0.09119711
  N -2.74017696 -1.56561443  0.26323729
  C -4.14318353 -1.88175521  0.10274943
  O -3.01285000  0.52465393 -0.50033701
  C -0.49587585 -0.28300867  1.72673569
  O  0.63400913 -0.44355714  2.13346011
  N -1.57115488 -0.14043870  2.50971923
  C -1.47393015 -0.11793314  3.95023425
  O -0.81838614  1.39825827  0.17197236
  C  0.50604330  1.86438746  0.06126237
  C  0.59833447  2.78253162 -1.22939660
  O  1.61750796  3.34443677 -1.53494684
  N -0.55306636  2.82187460 -1.90301559
  C -0.70766706  3.59675882 -3.10929350
  C  0.88906688  2.76604191  1.24933000
  O  1.70349703  3.63619692  1.19789180
  O  0.11881365  2.48422646  2.29855101
  C  0.31916317  3.27022007  3.46843441
  H  4.67413892 -1.34099152  3.27373146
  H  2.92254270 -1.29856357  3.63778695
  H  3.88302347  0.20837938  3.70205501
  H  1.45021928 -3.12084576 -2.85046410
  H  2.04324061 -1.50355474 -3.14007633
  H  3.06092746 -3.40943813 -0.97294729
  H  3.70251365 -3.27400445 -2.60199408
  H  4.70657167 -1.09263689 -2.08890954
  H  4.86789190 -1.97662795 -0.55637146
  H  2.54257593 -0.48786832 -1.65024170
  H  2.50240042 -1.37551904 -0.07303683
  H -2.17656919 -2.23847422  0.75188506
  H -4.26511203 -2.96044941  0.07946364
  H -4.73903671 -1.46000470  0.91604994
  H -4.48733988 -1.45081303 -0.83598664
  H -2.46856394  0.05160675  2.09033004
  H -2.04668857  0.71704284  4.34938166
  H -0.42408600 -0.00316721  4.21250807
  H -1.84794800 -1.05168431  4.37657798
  H -1.35077149  2.30681640 -1.55298103
  H  0.23543749  4.10454289 -3.30404613
  H -1.50180548  4.33420937 -2.98736065
  H -0.94957530  2.94268790 -3.94839295
  H -0.59055066  3.83976428  3.66110300
  H  1.16500995  3.94284279  3.31888944
  H  0.52260229  2.59283820  4.29706591
