23
opt_min/./Product_28_opt.xyz
  C -2.56310917 -0.67924291 -0.25725486
  C -1.11812414 -0.95659809 -0.63086275
  F -1.10290950 -1.91821163 -1.63600126
  C -0.23842238  0.23832054 -1.11753380
  C -0.71487391  1.62461085 -0.71588127
  F -0.08370103  0.17645838 -2.46940290
  N  1.05409160 -0.06355444 -0.46525975
  C  2.22949996  0.64729387 -0.69504610
  C  3.42760814  0.07329897 -0.00450533
  O  2.22949227  1.59920691 -1.43031997
  N  0.95092924 -1.00793502  0.46450756
  C -0.22924018 -1.50565093  0.49052890
  C -0.68931849 -2.47640228  1.38417195
  N -1.15731673 -3.22848944  2.11119324
  H -3.13720734 -1.58543961 -0.43942571
  H -2.98438835  0.11902992 -0.86092768
  H -2.64880098 -0.42135034  0.79538310
  H -0.88182083  1.66367107  0.35743936
  H -1.62953265  1.87922315 -1.24305784
  H  0.05455716  2.33982827 -0.99814314
  H  3.84750381 -0.70823486 -0.63618351
  H  4.17406011  0.85327465  0.11810746
  H  3.15717367 -0.36359552  0.95149778
