58
opt_min/./Product_2502_opt.xyz
  F  1.70190100  1.81085900  0.62081000
  C  1.17070113  0.68420058  1.20259632
  C -0.32699951  0.46364958  0.77972313
  C -0.83344278  1.36432294 -0.32865906
  C -0.03654789  1.66449234 -1.42766541
  C -0.52781722  2.43351676 -2.46953761
  C -1.82920641  2.89910261 -2.44338170
  C -2.64085827  2.58053764 -1.36666854
  C -2.15115966  1.81870179 -0.32220493
  C -1.04329527  0.63501700  2.13854371
  C -0.94204469  2.11433206  2.55580714
  C  0.51812503  2.26369021  3.01501228
  C  1.10765331  0.88128177  2.72949642
  C -0.05689759 -0.03037427  3.10320252
  C -0.34298194 -1.01025903  0.24710490
  C -0.88936716 -1.09671181 -1.19487247
  O -0.17462829 -1.32856516 -2.13772206
  O -2.19328355 -0.92878541 -1.25207860
  C -2.81662357 -0.96409426 -2.53319702
  C -1.21714049 -1.98707958  1.05181268
  O -2.37738570 -1.80748504  1.30635636
  O -0.53404423 -3.08222931  1.35386679
  C -1.22284356 -4.12102737  2.04254581
  O  0.97782086 -1.49156620  0.21071961
  C  1.93784918 -0.57158520  0.71060775
  C  2.96963215 -0.18123143 -0.41534267
  N  2.64640104 -0.68418899 -1.61160567
  C  3.43336459 -0.40355186 -2.78870046
  O  3.95819788  0.46658420 -0.16938147
  C  2.84514389 -1.29896574  1.71122943
  C  2.92913681 -2.78416295  1.50103221
  O  3.48849209 -0.72101342  2.54586043
  H  0.98188754  1.31538073 -1.48148071
  H  0.11525241  2.66362574 -3.30556419
  H -2.21179539  3.49703394 -3.25691006
  H -3.66547238  2.92147358 -1.34045976
  H -2.80807147  1.55761713  0.49065823
  H -2.05552389  0.24183524  2.15823495
  H -1.64236952  2.32641903  3.36336724
  H -1.16684046  2.78469564  1.73009095
  H  0.57879789  2.46435651  4.08443379
  H  1.04871925  3.05418915  2.48978761
  H  2.06665269  0.71536266  3.20973056
  H -0.35267798  0.07194856  4.14373483
  H  0.13528011 -1.07897391  2.88261967
  H -2.15862991 -1.44220244 -3.26014575
  H -3.03211255  0.05959836 -2.84117453
  H -3.74247997 -1.52435367 -2.42138137
  H -0.97595596 -5.05847318  1.54747054
  H -0.88034561 -4.14558795  3.07758866
  H -2.29853849 -3.94097180  2.01328074
  H  1.75114560 -1.14658646 -1.73693041
  H  3.96403792 -1.30040094 -3.11514293
  H  2.78700503 -0.05885667 -3.59487826
  H  4.16001262  0.36844231 -2.53866509
  H  2.62383162 -3.06875912  0.50102624
  H  2.26118639 -3.26137906  2.21625190
  H  3.94242335 -3.11488330  1.71275784
