51
opt_min/./Product_3128_opt.xyz
  C -4.50646200 -2.13632500 -0.00164200
  N -3.44620216 -1.16344433  0.09172431
  C -3.62564045  0.10922465 -0.31650190
  O -4.64915427  0.52537631 -0.80378027
  C -2.41950837  1.03683049 -0.02995614
 Br -2.44639199  0.90646497  2.00268933
  C -1.13557726  0.44887985 -0.47969246
  C  0.15745266  0.72650511 -0.14425413
  C  0.81460565  1.91260312  0.42421269
 Br  1.56241967  2.92570867 -1.19150792
 Br  2.44416708  1.34941703  1.39856673
  C  0.14355831  2.95654491  1.30408460
  C -0.84107499  3.96163956  0.69358891
  C -2.30853993  3.61801495  0.43404809
  C -2.71174407  2.45968219 -0.46991839
  C  0.91837996 -0.54384797 -0.47649190
  C  0.65266497 -1.40582912  0.84448826
  N  1.69712818 -1.81905017  1.54189724
  C  1.50085209 -2.56410994  2.76888554
  O -0.50186547 -1.62411760  1.14068861
  C  2.28954114 -0.42353424 -1.12143064
  O  2.48747816  0.33016002 -2.03054914
  O  3.18991159 -1.28761575 -0.65137481
  C  4.47131798 -1.30259658 -1.28081023
  N  0.09872813 -1.25485474 -1.41379405
  C -1.07380684 -0.72871507 -1.35386178
  C -2.11629805 -1.15697119 -2.33165421
  C -2.04685210 -2.60498504 -2.70415212
  O -2.85759143 -0.34669308 -2.82914744
  H -4.92883738 -2.34073669  0.98538346
  H -4.13452154 -3.06812228 -0.42695142
  H -5.28256465 -1.72204300 -0.64355026
  H -2.58648119 -1.44461795  0.54794912
  H  0.97140813  3.58151340  1.65708640
  H -0.28512869  2.47086400  2.18328767
  H -0.88646959  4.77118673  1.42865844
  H -0.39817184  4.38559517 -0.20937941
  H -2.81819483  3.49837671  1.39309073
  H -2.73082245  4.51312020 -0.03120950
  H -2.30564277  2.58356236 -1.47854505
  H -3.80296744  2.51663101 -0.56411198
  H  2.64261208 -1.64750898  1.24060038
  H  1.22799864 -3.59897696  2.55311483
  H  2.41944141 -2.54001206  3.34684401
  H  0.69247374 -2.10981075  3.34217878
  H  5.18564001 -0.79260084 -0.63312756
  H  4.41776003 -0.79508672 -2.24443870
  H  4.75348503 -2.34567870 -1.40872370
  H -2.32109470 -3.21986607 -1.84985687
  H -2.70959011 -2.81381734 -3.53912080
  H -1.01525697 -2.84102487 -2.95696707
