45
opt_min/./Product_1151_opt.xyz
  C  1.90268500 -2.86690900  2.44089200
  O  1.46054539 -1.93420406  1.46090205
  C  0.33670300 -2.21443695  0.80387750
  O -0.34926180 -3.17463108  1.01442619
  C  0.02968889 -1.11054615 -0.20987198
  C -1.10046693 -0.13347146  0.26615745
  O -1.58977055 -0.56290292  1.51166870
  C -2.64134473  0.18063515  2.08761866
  C -2.09612959 -0.17183465 -0.91752310
  C -2.77116927 -1.54809563 -0.91124969
  C -1.67741684 -2.48529664 -1.46437542
  C -0.46318909 -1.56397222 -1.60081058
  C -1.13980585 -0.28335414 -2.10562374
  C -0.32636928  1.18078798  0.31910905
  C -0.88987314  2.51573291  0.54724701
  O -2.07107450  2.77037747  0.57888762
  O  0.07880094  3.43519854  0.67158795
  C -0.33839906  4.78322489  0.84775007
  N  0.91228800  1.03769350 -0.00768503
  N  1.18131741 -0.21740072 -0.32491760
  C  2.44144427 -0.61392518 -0.80057989
  N  3.35380929  0.37267224 -0.72797408
  C  4.70413685  0.18010981 -1.20032972
  O  2.63427510 -1.72339878 -1.23740714
  H  1.23549748 -3.72976094  2.45863414
  H  2.91450617 -3.17078883  2.17262934
  H  1.90534537 -2.37351699  3.41323031
  H -3.46860714  0.32949160  1.38981177
  H -2.98167702 -0.41490464  2.93543094
  H -2.30499345  1.15835823  2.44259721
  H -2.77112635  0.68193729 -0.92529889
  H -3.65904013 -1.54527891 -1.54298657
  H -3.05977554 -1.83937945  0.09641840
  H -1.94463092 -2.86873624 -2.44938924
  H -1.49140678 -3.32664669 -0.80590457
  H  0.33992010 -1.96301047 -2.21614830
  H -0.46594138  0.56694274 -2.20475511
  H -1.66135429 -0.43988138 -3.04666635
  H  0.41817860  5.41250085  0.38298471
  H -0.40851645  5.01144033  1.91327882
  H -1.31244997  4.93870512  0.38059570
  H  3.06505165  1.26068443 -0.34770772
  H  4.73564381  0.15472805 -2.29254789
  H  5.08649737 -0.77246868 -0.83000320
  H  5.33015656  0.99160737 -0.83981286
