45
opt_min/./Product_5093_opt.xyz
  C  0.10227200 -1.79243900  1.17129100
  C  0.34902609 -1.13143856 -0.18304726
  C  0.46822580 -2.19053523 -1.27183282
  C -0.71815037 -0.04973094 -0.57443668
  C -1.96705472 -0.08059654  0.24509752
  C -2.47236208  0.90753393  0.98143446
  C -3.69660956  0.82937064  1.75954021
  C -4.45098469 -0.46777332  1.80537446
  C -4.12382985  1.90669155  2.41999058
  C  0.15973494  1.23866059 -0.57691470
  C -0.39587417  2.43758481 -1.34695152
  O -1.41012323  3.00672818 -1.01827233
  N  0.34608752  2.74527388 -2.42068234
  C -0.01117022  3.84288891 -3.29321432
  C  0.60322411  1.47702761  0.87980796
  O  0.27229033  2.29061357  1.68045613
  O  1.54322979  0.53604253  1.09413327
  C  1.62292261 -0.21972769 -0.13167898
  C  3.00325175 -0.87721165 -0.28841336
  N  3.81450254 -0.65720744  0.75393232
  C  5.15785345 -1.19460588  0.78327500
  O  3.29297741 -1.52960078 -1.26480191
  O  1.39252701  0.74746446 -1.11421472
  H  1.00241950 -2.30791137  1.49889180
  H -0.69846293 -2.52069141  1.08232590
  H -0.17904354 -1.06500921  1.92832853
  H  0.75849663 -1.73957464 -2.21668342
  H  1.22343306 -2.92698355 -1.01253958
  H -0.48809821 -2.69384330 -1.39277163
  H -0.99042668 -0.22247917 -1.62195046
  H -2.48829219 -1.02488703  0.17309720
  H -1.98743016  1.87097108  1.00771732
  H -4.79107072 -0.74368201  0.80860990
  H -3.81876855 -1.26774658  2.18513490
  H -5.31948596 -0.37671233  2.45220984
  H -5.02491243  1.89157562  3.00911170
  H -3.58503870  2.83652798  2.38554280
  H  1.18202713  2.22448418 -2.63223304
  H  0.48333159  4.76777367 -2.99105425
  H  0.26905647  3.60078293 -4.31554027
  H -1.08808361  3.99053167 -3.22809240
  H  3.51884315 -0.07902075  1.52430382
  H  5.45315973 -1.37529967  1.81334917
  H  5.86928532 -0.51046475  0.31640877
  H  5.16644467 -2.12860512  0.22341245
