42
opt_min/./Product_5711_opt.xyz
  O -0.81091800 -0.68554200 -3.29582400
  C -1.58037142 -1.49394283 -3.02961322
  O -2.31853192 -2.34143638 -2.82966739
  C  0.56167053 -1.41671715 -0.04225829
  C  1.83858279 -1.11059301  0.11239583
  C  1.65864477  0.49808023 -2.72893096
  O  2.15894438 -0.44503759 -3.13247483
  O  1.18229272  1.46149667 -2.33104427
  C  1.96005113  0.08394365  1.01499579
  C  2.64161970  1.25985603  0.29280687
  O  3.62128709  1.13140808 -0.38968096
  O  2.00521611  2.39570492  0.51422171
  C  2.55795592  3.56174719 -0.09102891
  C  2.75003015 -0.21737696  2.31227695
  O  3.55809115  0.52007676  2.79983097
  O  2.36735881 -1.38286539  2.80500112
  C  2.91751337 -1.75739415  4.06565007
  O  0.63046142  0.40546356  1.39726479
  C -0.28273150 -0.46495456  0.74643754
  C -1.24522536  0.32497478 -0.19097763
  N -1.04163210  1.63787692 -0.15319592
  C -1.76798821  2.57024429 -0.97742826
  O -2.07665831 -0.25092195 -0.86369455
  C -1.17710354 -1.16656567  1.77903504
  O -1.37230038 -0.75592430  2.88755219
  O -1.71811769 -2.25748400  1.25671198
  C -2.65513812 -2.94855406  2.07607717
  H  0.11997330 -2.20676004 -0.61641312
  H  2.70219812 -1.57735864 -0.31843980
  H  3.64067754  3.57438577  0.04074540
  H  2.32490396  3.56897384 -1.15714980
  H  2.09758328  4.41002688  0.40877927
  H  2.78073545 -2.83238488  4.15045389
  H  2.38438369 -1.24186360  4.86591793
  H  3.97544278 -1.49332986  4.10789111
  H -0.29659847  1.98335702  0.43969452
  H -1.09777567  3.03638214 -1.70114462
  H -2.22722687  3.34127063 -0.35803121
  H -2.54239333  2.01835778 -1.50763078
  H -3.47704449 -2.28506083  2.34968867
  H -3.01806981 -3.78035389  1.47881129
  H -2.16895510 -3.30643065  2.98575943
