46
opt_min/./Product_5335_opt.xyz
  C -1.31170029 -2.06636483  0.05923307
  C -0.82652337 -0.86845871 -0.76858347
  C -1.53209635 -0.88796120 -2.12041240
  C  0.71252192 -0.89057682 -0.95477485
  C  1.25621277 -2.23660627 -1.32917398
  O  1.45426358 -2.59397328 -2.45540655
  C  1.23089316 -0.31922446  0.38667686
  C  1.41546477 -1.34997428  1.40539067
  N  1.57061127 -2.11533269  2.24123195
  C  2.55043016  0.40477793  0.17782210
  C  3.74433914 -0.30448706  0.20575412
  C  4.94031453  0.34805145 -0.03241234
  C  4.95218248  1.70694597 -0.30149355
  C  3.76193820  2.41224167 -0.33524973
  C  2.56326162  1.76332909 -0.09850758
  O  0.21249421  0.56390505  0.84129805
  C -0.97713971  0.44055066  0.05548266
  C -0.99144336  1.77193630 -0.73319126
  N -1.26707312  2.80871786  0.07734954
  C -1.14693443  4.17967200 -0.36041423
  O -0.72454882  1.89116496 -1.90909492
  C -2.19795146  0.40208642  0.99217733
  O -2.11978272  0.28139653  2.19127653
  N -3.36282658  0.56000152  0.32477190
  C -4.64285524  0.51740340  0.99192780
  H -0.89688020 -2.05847625  1.06381219
  H -2.39678359 -2.04611373  0.14592292
  H -1.03291623 -2.99617606 -0.43127604
  H -1.25516995 -1.80156007 -2.64312646
  H -2.61302470 -0.89024087 -1.99615408
  H -1.24205814 -0.04034100 -2.73256467
  H  0.95010122 -0.17146038 -1.74859610
  H  1.45481036 -2.90612224 -0.46960217
  H  3.73899305 -1.36439472  0.41463598
  H  5.86538487 -0.20727828 -0.00761096
  H  5.88794761  2.21248163 -0.48599545
  H  3.76179243  3.47030921 -0.54988364
  H  1.63343413  2.31009492 -0.12698067
  H -1.31719481  2.64309224  1.07209883
  H -1.97089413  4.76632492  0.04255465
  H -0.20050091  4.61944591 -0.03826246
  H -1.18779782  4.18680777 -1.44852335
  H -3.35510781  0.66368962 -0.67725075
  H -5.26131911  1.35541650  0.67235647
  H -5.16677929 -0.41719248  0.77926655
  H -4.45790267  0.58307961  2.06245058
