35
opt_min/./Product_3830_opt.xyz
  C -2.80253500 -1.18683500  0.83500900
  C -1.86676931 -0.74864723 -0.28518751
  C -2.55880530 -0.96629768 -1.64014855
  C -0.46294706 -1.41670165 -0.27207311
  C -0.07974581 -1.73980022  1.15032900
  O -0.01771104 -2.84315349  1.61364165
  C  0.44178260 -0.29271712 -0.83360179
  C  1.87887744 -0.26008062 -0.36656581
  C  2.54829610 -1.40627233  0.03685172
  C  3.86068239 -1.31895796  0.47427236
  C  4.51954987 -0.10263229  0.47783087
  C  3.86768631  1.03657663  0.03916033
  C  2.55161390  0.95547959 -0.38285740
  N -0.24871199  0.94710106 -0.52235781
  C -1.45435113  0.71474782 -0.22600585
  C -2.39271279  1.81955369  0.13008932
  C -2.51721883  2.86489849 -0.94021487
  O -2.97536231  1.85060382  1.18266452
  H -2.30055890 -1.17686478  1.80028599
  H -3.65617034 -0.51602152  0.89930158
  H -3.16307138 -2.19617799  0.64499690
  H -3.55633464 -0.53190509 -1.62205696
  H -1.99718073 -0.51395774 -2.45646720
  H -2.65681754 -2.03180730 -1.83766379
  H -0.43894660 -2.33215562 -0.86525319
  H  0.14674941 -0.84232152  1.75977251
  H  0.46566303 -0.35111478 -1.93478364
  H  2.06226087 -2.36920839  0.01354832
  H  4.36745245 -2.21251007  0.80681623
  H  5.54316147 -0.04240363  0.81837901
  H  4.39633126  1.97642331 -0.01846313
  H  2.01159566  1.84394694 -0.67490525
  H -1.52864205  3.28347496 -1.12275626
  H -3.21177791  3.64238547 -0.63148708
  H -2.86260521  2.40309606 -1.86424356
