54
opt_min/./Product_2980_opt.xyz
  C  3.20998200  1.84279000  3.13665100
  N  2.72468003  1.48309869  1.82052072
  C  1.74642719  0.56458656  1.65296529
  O  1.11822250  0.09799783  2.57802647
  C  1.59601283  0.09758263  0.19605260
  C  0.17882571 -0.30347594 -0.08158762
  C -0.39000426 -1.41003811 -0.61902997
  C  0.09830989 -2.36983845 -1.66797909
 Br  0.41821050 -1.27739385 -3.30837407
 Br -1.34809538 -3.55215635 -2.31756897
  C  1.27783825 -3.27721492 -1.33053560
  C  2.68894986 -2.81513167 -1.68092656
  C  3.06415049 -1.38229160 -1.30725949
  C  2.65487942 -1.01887065  0.11933425
  N -1.78046958 -1.42590922 -0.39235681
  C -2.34291602 -2.55904497  0.25133579
  N -3.65802734 -2.39895563  0.47965095
  C -4.44244052 -3.42975008  1.11331294
  O -1.69297631 -3.54400459  0.52065287
  N -2.17174884 -0.17220036  0.15937477
  C -0.96885498  0.64735995  0.28658246
  C -1.04568143  1.69051417 -0.88158613
  O -1.87645386  1.56338750 -1.74502934
  N -0.08478523  2.63797284 -0.88889505
  C -0.05997727  3.65844639 -1.91288410
  C -1.00900486  1.28613513  1.67358248
  O -1.77440711  0.90813100  2.52055343
  O -0.24333206  2.37492773  1.81863898
  C -0.33088016  2.99251680  3.10166858
  H  2.39982485  2.25607816  3.73649838
  H  3.59479371  0.96126881  3.65459747
  H  4.00049451  2.58106015  3.03871534
  H  3.25399964  1.79707264  1.02400371
  H  1.87716258  0.92031468 -0.47471772
  H  1.14136070 -4.23099343 -1.84605358
  H  1.18010099 -3.49792571 -0.26260067
  H  3.37177065 -3.50593108 -1.17875418
  H  2.85475448 -2.93479592 -2.75458002
  H  2.58409293 -0.68677447 -1.99346693
  H  4.14088791 -1.27711985 -1.44538539
  H  3.53087346 -0.68619129  0.68221662
  H  2.28142532 -1.89667423  0.64731700
  H -4.11683983 -1.58304824  0.10748885
  H -5.40041374 -3.53015323  0.60689545
  H -3.89188215 -4.36695746  1.04239176
  H -4.61291355 -3.19909016  2.16824658
  H -2.56739850 -0.30227132  1.09636396
  H  0.42713573  2.81885081 -0.04000363
  H  0.96969033  3.85654057 -2.20853704
  H -0.62218505  3.28394168 -2.76613292
  H -0.52039804  4.58655503 -1.56511529
  H  0.37624120  3.81784210  3.09052287
  H -0.08244251  2.26059488  3.87205079
  H -1.34550004  3.35645479  3.27199613
