54
opt_min/./Product_1375_opt.xyz
  C -2.70987400 -1.20221600  1.80817300
  C -2.70250851  0.07613339  0.93764786
  C -1.96078614 -0.17127409 -0.38292324
  C -0.68523404 -0.25025180 -0.86348242
  C  0.62755500  0.13247903 -0.16669960
  C  1.47078368 -1.05907523  0.21157227
  C  1.23369920 -2.33853004 -0.27079059
  C  2.01386180 -3.40587540  0.14230005
  C  3.04098269 -3.21103662  1.04844675
  C  3.27918248 -1.93994507  1.54584223
  C  2.49881780 -0.87676582  1.13425349
  C  1.35685586  1.17305867 -0.99529237
  C  2.70787539  1.06632971 -1.30421581
  C  3.34157692  2.03750375 -2.06125224
  C  2.63466598  3.12986370 -2.52847703
  C  1.28493985  3.24094656 -2.23857775
  C  0.65373591  2.27176656 -1.48282370
  C -0.06156291  0.71962558  1.07785566
  C  0.16678380  1.53872140  2.32711956
  C -1.28828047  1.45652154  2.88209637
  C -2.44941069  1.34903289  1.83988240
  N -0.70535943 -0.59084790 -2.19555764
  C  0.27617081 -0.71681866 -3.21080532
  O -2.07121070 -0.49447116 -2.64396216
  N -2.86829943 -0.53095026 -1.46664499
  C -3.48413500 -1.85227191 -1.32578035
  H -3.51407956 -1.86730609  1.50689323
  H -2.86817723 -0.94977616  2.85356658
  H -1.77593100 -1.75506432  1.72830061
  H -3.73332971  0.23159633  0.59536745
  H  0.43239244 -2.51342418 -0.97190186
  H  1.81632887 -4.39493818 -0.24464980
  H  3.64965336 -4.04297878  1.37007598
  H  4.07332341 -1.77868049  2.26015651
  H  2.68351832  0.11169309  1.52917201
  H  3.28044898  0.21703624 -0.95984383
  H  4.39250630  1.93347197 -2.28813714
  H  3.12939649  3.88619600 -3.11985784
  H  0.71937827  4.08454311 -2.60586120
  H -0.40336454  2.36767086 -1.28436345
  H -0.52940492 -0.17547162  1.47470029
  H -0.77751390  1.35928977  0.58471730
  H  0.47053115  2.56420922  2.11793489
  H  0.86011141  1.10469257  3.04913564
  H -1.34203539  0.58368770  3.53432799
  H -1.50255517  2.33179638  3.49856393
  H -3.36048986  1.42720043  2.44126939
  H -2.43927776  2.23366632  1.19840104
  H  0.24232959  0.13190801 -3.90519972
  H  1.25893220 -0.75900637 -2.75005743
  H  0.10426637 -1.63683260 -3.77938715
  H -2.81663242 -2.59280568 -0.87222602
  H -3.76896134 -2.18726084 -2.32148807
  H -4.38567802 -1.74990240 -0.72650178
