56
opt_min/./Product_5774_opt.xyz
  C  1.20189300  1.28256300 -0.51055300
  C  0.49262591  0.50527867  0.60419671
  C -1.01161350  0.78294125  0.62307403
  N -1.34405864  2.17094246  0.55927766
  C -2.60188427  2.63511529  1.08845085
  C -0.48734550  3.03295294 -0.02966809
  C  0.71383746  2.70590582 -0.55332328
  C  1.47211475  3.77951590 -1.19782942
  N  2.58397718  3.40441726 -1.89802995
  O  1.11691146  4.94764029 -1.19035362
  C -1.51153115 -0.07697922 -0.56603630
  C -2.96228819 -0.44961324 -0.41018825
  C -3.90491789  0.06500994 -1.29140119
  C -5.24809181 -0.22963842 -1.14245924
  C -5.66708886 -1.05186277 -0.11051542
  C -4.73636987 -1.57303806  0.77171730
  C -3.39392888 -1.26892928  0.62834253
  N -0.56407981 -1.17341190 -0.60883890
  C -0.97902206 -2.46116816 -1.09874789
  C  0.50638966 -1.02515726  0.36241484
  C  0.15841757 -1.78637156  1.66927266
  C  0.84196792 -1.42792422  2.97311627
  O -0.68244058 -2.65071983  1.66577509
  C  1.83523348 -1.49606497 -0.21774478
  C  2.95118563 -1.74235406  0.57338603
  C  4.15287691 -2.13222206  0.00593115
  C  4.26802215 -2.28026377 -1.36391558
  C  3.16677662 -2.02843960 -2.16289300
  C  1.96618612 -1.64029735 -1.59572876
  H  1.02877398  0.79855468 -1.47556868
  H  2.27740700  1.24692395 -0.31568798
  H  0.94644378  0.79889326  1.55147603
  H -1.43708920  0.35774309  1.54225223
  H -3.20949267  1.78032268  1.37954830
  H -2.44682683  3.27534507  1.96201260
  H -3.15119906  3.20293733  0.33449147
  H -0.80164037  4.06608180 -0.07781578
  H  3.14448709  4.13911752 -2.29764774
  H  2.95280294  2.47172030 -1.87891148
  H -1.41189223  0.52750020 -1.48622299
  H -3.58323232  0.70487238 -2.10147284
  H -5.97067149  0.18025165 -1.83272938
  H -6.71486122 -1.28730731  0.00541597
  H -5.05400362 -2.21896906  1.57690631
  H -2.67967867 -1.68692777  1.32197265
  H -0.16093071 -3.16760490 -0.98076319
  H -1.85663872 -2.86767873 -0.58621066
  H -1.22175094 -2.37731475 -2.16493325
  H  1.49913711 -0.56859789  2.92332272
  H  0.06899992 -1.25047102  3.72126360
  H  1.40457777 -2.30075275  3.30521857
  H  2.90927586 -1.63362590  1.64272512
  H  5.00501496 -2.31947650  0.64317640
  H  5.20318417 -2.58639842 -1.80820389
  H  3.23959865 -2.13308358 -3.23530880
  H  1.12134289 -1.44534778 -2.23534968
