54
opt_min/./Product_5850_opt.xyz
  C -1.24985961  0.59186296 -0.43643476
  O -0.97762034  1.70734721 -0.81926319
  C -2.62692704  0.18845823 -0.08286048
  O -3.68711702  0.68939004 -0.76216215
  C -3.47060188  1.47744953 -1.91689195
  C -2.80289889 -0.60954391  1.01350353
  O -3.95564962 -0.99192469  1.59637940
  C -5.20405331 -0.50953167  1.14877173
  C -1.64616968 -1.09655754  1.79633409
  O -1.78754006 -1.59004411  2.89135809
  C -0.25165454 -0.96653776  1.18906066
  C  0.48354900 -2.28117811  1.45624422
  C -0.21074161 -0.52211988 -0.28682177
  C -0.55014077 -1.58750343 -1.32097796
  C  1.18205601  0.15559542 -0.38341656
  C  1.24499382  1.13005501 -1.58759953
  N  1.81102923  2.30859965 -1.28607353
  C  1.92287338  3.36570484 -2.26140993
  O  0.95778228  0.75327294 -2.70487538
  C  2.40311233 -0.73000320 -0.59037403
  C  2.53992612 -1.54857436 -1.70492946
  C  3.68900192 -2.30061101 -1.88580829
  C  4.72740948 -2.23421799 -0.97470081
  C  4.61892115 -1.38197249  0.11128854
  C  3.47531221 -0.62860348  0.29261940
  O  1.28545598  0.85929246  0.85628443
  C  0.43839566  0.27377564  1.84815584
  C  1.21133764 -0.01332459  3.13783132
  C -0.57803988  1.27051834  2.18632085
  N -1.29871232  2.10399778  2.48984655
  H -4.45643403  1.59225401 -2.36473320
  H -3.06500312  2.45710321 -1.65668404
  H -2.79617974  0.99056055 -2.62446094
  H -5.93973751 -0.99685034  1.78837164
  H -5.39512098 -0.76897309  0.10675141
  H -5.27485751  0.57305738  1.27290920
  H  0.40782573 -2.52843705  2.51200899
  H  1.52751767 -2.22362174  1.16418683
  H  0.00506241 -3.08087384  0.89719592
  H -0.38946172 -1.17083100 -2.31312831
  H  0.06722736 -2.47184478 -1.19602138
  H -1.59516875 -1.88015482 -1.22383925
  H  1.77579173  2.57065237 -0.31165966
  H  2.90404614  3.83457323 -2.17972198
  H  1.80997215  2.91931977 -3.24737512
  H  1.14814611  4.12177998 -2.11868584
  H  1.77866495 -1.57953108 -2.46415393
  H  3.77196153 -2.93414152 -2.75623846
  H  5.62088369 -2.82243346 -1.11872199
  H  5.43222604 -1.29296916  0.81645074
  H  3.40615369  0.04682351  1.13150997
  H  2.01847576 -0.71437140  2.94956788
  H  0.53246227 -0.41605796  3.88455204
  H  1.63575170  0.91933077  3.50676527
