43
opt_min/./Product_4815_opt.xyz
  C -0.44799700  0.79822100  1.32383600
  C -0.65682602  0.51945015 -0.16440327
  C -0.84623158  1.83166599 -0.91753206
  C  0.48074707 -0.34703218 -0.78851558
  C  1.73352463 -0.48561636  0.00026347
  C  2.92619197 -0.12341104 -0.46786481
  C  4.19408457 -0.24315445  0.23251194
  C  4.23492189 -0.96466337  1.54674969
  C  5.29229575  0.30699215 -0.28637100
  C -0.27860099 -1.70633093 -0.97125896
  C  0.60057569 -2.95824719 -1.07902189
  C  0.23284453 -4.04164019 -0.11977580
  O  1.48908225 -3.01091152 -1.88239508
  O -1.22341358 -1.72676819  0.04225897
  C -1.85114771 -0.49483112 -0.29200005
  C -3.11866147 -0.22923053  0.51961524
  N -3.85500419  0.76817361 -0.00707792
  C -5.10725246  1.17738408  0.58708524
  O -3.39937330 -0.84672731  1.51867938
  C -2.05138564 -0.70491320 -1.80292197
  O -2.87599670 -0.21828538 -2.52118032
  O -1.06764106 -1.52476994 -2.17356647
  H -1.32525579  1.30071004  1.72689173
  H  0.42042171  1.43831322  1.46589207
  H -0.31095473 -0.12610695  1.87839837
  H  0.12105125  2.31427783 -1.04346561
  H -1.27896514  1.67611150 -1.90407212
  H -1.48942307  2.50529369 -0.35448280
  H  0.72350573  0.02484436 -1.78948943
  H  1.63394303 -0.92367540  0.98215740
  H  2.99101278  0.31763320 -1.45494588
  H  3.89236187 -0.30737934  2.34664826
  H  3.59561116 -1.84424707  1.52975290
  H  5.25065910 -1.27822015  1.77336022
  H  5.27280883  0.84296307 -1.22033462
  H  6.24880198  0.23761757  0.20275021
  H -0.65824087 -4.53781043 -0.50561339
  H -0.02421325 -3.62871030  0.85169662
  H  1.04183297 -4.76467483 -0.05014544
  H -3.62735376  1.12843456 -0.92123158
  H -5.88646938  1.22816715 -0.17181374
  H -5.37715897  0.44198868  1.34428799
  H -5.00445512  2.15529974  1.06418940
