37
opt_min/./Product_1209_opt.xyz
  N  4.97994574  1.83928012 -2.14801026
  C  4.18406208  1.36279196 -1.47514353
  C  3.28616351  0.74809564 -0.59321409
  C  2.39987713  1.26772215  0.27563924
 Cl  1.87585971  2.85960730  0.45638894
  C  1.92645933  0.10518802  1.13620247
  C  0.94812087 -0.82112735  0.36017752
  C  1.86429917 -1.29838096 -0.78181417
  C  3.24224298 -0.74573586 -0.29655522
  O  3.06974901 -0.73668634  1.11352092
  C  1.19585771 -0.77214819 -2.07251077
  C  1.00746986 -1.88292386 -3.11210423
  C  1.83741998  0.34596864 -2.76176688
  N  2.19111187  1.21021254 -3.42049487
  O -0.08993940 -0.25519745 -1.70185319
  C -0.32099584 -0.30257629 -0.31883460
  C -1.48473967 -1.29178737 -0.07374327
  O -1.75194093 -1.40762230  1.22320361
  C -2.83041993 -2.26956747  1.58075729
  O -2.05099931 -1.87636244 -0.95031352
  C -0.78021749  1.08039185  0.17094821
  O -1.07900417  1.98540929 -0.55009461
  O -0.84564237  1.11003645  1.50154632
  C -1.32839641  2.32319440  2.07443829
  H  1.61894670  0.36322080  2.14403919
  H  0.70918016 -1.62278457  1.06129989
  H  1.90037026 -2.38813611 -0.83487986
  H  4.11451834 -1.32588523 -0.58336748
  H  1.97605684 -2.22883563 -3.46609261
  H  0.43323903 -1.49602610 -3.95033959
  H  0.45215554 -2.70917048 -2.67377206
  H -2.83549712 -3.15327304  0.94022256
  H -3.77809330 -1.74038584  1.46779289
  H -2.67126398 -2.54203199  2.62088621
  H -1.28866979  2.18281784  3.15104757
  H -0.69811917  3.15989460  1.76916467
  H -2.35216053  2.51280083  1.74782107
