46
opt_min/./Product_1684_opt.xyz
  C -1.37538071  2.54091159 -2.68129001
  O -1.05623078  1.65595172 -1.61425578
  C -0.20882812  2.07726857 -0.68944538
  O  0.30765817  3.16110018 -0.66271299
  C  0.05463614  0.98337385  0.34800030
  C  1.04265816 -0.07730385 -0.24472498
  O  1.40884571  0.35706760 -1.52094313
  C  2.46276025 -0.28573773 -2.20840125
  C  2.19281732 -0.02681710  0.82475083
  C  2.92261403  1.27300906  0.54258664
  C  2.10623568  2.22262666  0.97312858
  C  0.89974224  1.49908057  1.54254485
  O  1.47533604  0.28122378  2.00742201
  C  0.17805086 -1.39511721 -0.19714502
  C  0.39189353 -2.38211758 -1.36833677
  C  1.44704297 -3.43682035 -1.16401450
  O -0.28364664 -2.30205172 -2.35377005
  C  0.39835716 -2.08663814  1.07065888
  N  0.56573144 -2.67157054  2.03869192
  O -1.15375052 -0.92633321 -0.27101872
  C -1.24639773  0.17658976  0.61100450
  C -1.66324705 -0.39014796  2.00522885
  C -1.35156004  0.35136080  3.26153888
  O -2.34888823 -1.37939144  1.98715326
  C -2.50402438  1.02064425  0.31395788
  C -3.55317998  0.33687371 -0.49269307
  O -2.61165136  2.11072275  0.81859733
  H -2.42351768  2.82615329 -2.58905074
  H -0.74087440  3.42681549 -2.63167336
  H -1.21212769  2.00152483 -3.61305461
  H  2.77215119  0.42656095 -2.97172052
  H  2.12186697 -1.19995330 -2.69896785
  H  3.30896492 -0.50317601 -1.55181661
  H  2.77750588 -0.93481800  0.94794285
  H  3.87754396  1.34917067  0.06366396
  H  2.21895630  3.28584289  0.95135059
  H  0.35223867  2.03661652  2.30616473
  H  2.44061422 -3.02172111 -1.32312694
  H  1.40970558 -3.84356498 -0.15698389
  H  1.28430499 -4.23052144 -1.88989733
  H -1.67184052  1.38756161  3.15683944
  H -1.89303184 -0.12319207  4.07675510
  H -0.28686111  0.31083402  3.47427749
  H -3.10836315 -0.38172824 -1.17228786
  H -4.15205764  1.07168569 -1.02461012
  H -4.20080328 -0.19898030  0.20174491
