40
opt_min/./Product_4343_opt.xyz
  C -1.56464576 -0.54990329  1.61653911
  C -0.97481453 -1.01738969  0.29365126
  C -2.06159154 -1.11503219 -0.79127864
  C -2.93662251 -2.36239023 -0.70142024
  N -1.26073387 -1.08910945 -1.99975054
  C -1.57532403 -1.60134858 -3.15425730
  N -1.88595769 -2.01819903 -4.18383120
  N  0.01747793 -0.51243605 -1.75505117
  C  0.09044307 -0.09280738 -0.36172877
  C -0.25823883  1.38024552 -0.15356326
  C  0.21516218  2.06697499  0.95890482
  C -0.08588254  3.40376129  1.14428263
  C -0.86882501  4.07647869  0.22116186
  C -1.35215003  3.40171203 -0.88507037
  C -1.04794995  2.06398423 -1.07106214
  C  1.51915745 -0.32727385  0.09648361
  C  1.84917596 -0.99801826  1.26559506
  C  3.17364253 -1.15919853  1.63724524
  C  4.19159894 -0.64968275  0.85246021
  C  3.87093421  0.02962211 -0.31076993
  C  2.55038671  0.18949068 -0.68384950
  H -1.85578208  0.49659305  1.56504619
  H -2.44918355 -1.14165558  1.84284205
  H -0.86199543 -0.66158783  2.43727970
  H -0.51951272 -2.00639725  0.40678544
  H -2.68976595 -0.21133390 -0.73946420
  H -3.88095459 -2.13632289 -0.21392499
  H -2.43765815 -3.15511923 -0.14898479
  H -3.15153071 -2.73902672 -1.69976791
  H  0.28610763  0.16381780 -2.46130076
  H  0.82408870  1.54947130  1.68517714
  H  0.30028580  3.92374744  2.00717694
  H -1.09361680  5.12325512  0.35965597
  H -1.97782141  3.90985243 -1.60227211
  H -1.44266678  1.56036474 -1.94282795
  H  1.08065577 -1.40030662  1.90479259
  H  3.40945596 -1.70086948  2.54237857
  H  5.22197622 -0.76649318  1.15161051
  H  4.65471297  0.44124152 -0.93019405
  H  2.31964129  0.72363597 -1.59223070
