69
opt_min/./Product_2570_opt.xyz
  C -3.83181300 -1.94497200  3.17334100
  N -3.27414361 -1.21806571  2.05428028
  C -1.95008849 -1.23604818  1.78549842
  O -1.16653083 -1.82660722  2.50109212
  C -1.59131171 -0.46717753  0.50830014
  C -0.15210922 -0.00830363  0.47688074
  C  1.03926877 -0.59043804  0.25445511
  C  1.35816225 -1.98599965 -0.26676470
  C  1.08987995 -3.04184431  0.82437909
  C  2.83712086 -2.15648307 -0.64891816
  C  0.58240558 -2.19851741 -1.60260625
  C -0.64464785 -3.10657945 -1.65045302
  C -1.76011550 -2.74510998 -0.67836263
  C -2.11867223 -1.25897221 -0.70509650
  C  2.10668089  0.46331965  0.61508597
  C  3.47609575  0.50499550 -0.00120827
  C  3.66078427  1.01677923 -1.28088182
  C  4.92871329  1.12278630 -1.82143612
  C  6.03323742  0.72269726 -1.08828362
  C  5.86130215  0.22356139  0.19101723
  C  4.59224529  0.12349224  0.73238300
  N  1.40806605  1.69955691  0.30470259
  C  2.06174367  2.91890155  0.71161490
  C  0.01778607  1.49526571  0.71123771
  C -0.17830243  2.00232727  2.15143077
  C -0.31277515  0.98717905  3.25041432
  O -0.16280649  3.18693085  2.38947752
  C -0.88466562  2.25656256 -0.24941620
  C -0.52361795  2.31778355 -1.58961219
  C -1.32492137  2.96879872 -2.50803229
  C -2.50514878  3.56646704 -2.09920821
  C -2.87982942  3.49857473 -0.76954680
  C -2.07754811  2.84481363  0.15081139
  H -3.79215281 -1.34525990  4.08631695
  H -3.24263442 -2.84759937  3.33378623
  H -4.86464869 -2.21187498  2.96392745
  H -3.90909105 -0.75119472  1.42927657
  H -2.19171556  0.45009286  0.54488744
  H  0.74744076 -3.97740225  0.39312755
  H  2.00895468 -3.24910936  1.36698983
  H  0.35705093 -2.69627870  1.54408303
  H  3.14887367 -1.43084671 -1.39235768
  H  3.49052296 -2.07874638  0.21519285
  H  2.96845471 -3.15312077 -1.06902562
  H  0.31174618 -1.21029707 -1.97836240
  H  1.27834379 -2.61737089 -2.33145587
  H -0.34845315 -4.14212881 -1.47584314
  H -1.03060022 -3.05531945 -2.67276822
  H -2.64134987 -3.34349389 -0.92231850
  H -1.45214775 -3.02514473  0.32500770
  H -1.74480540 -0.78874519 -1.61224657
  H -3.20564982 -1.14722242 -0.72685120
  H  2.25338483  0.36786269  1.71586684
  H  2.79790814  1.32448603 -1.85254700
  H  5.05680893  1.52107138 -2.81741006
  H  7.02399411  0.80446677 -1.51044251
  H  6.71898418 -0.08074001  0.77310131
  H  4.46621763 -0.25380233  1.73784288
  H  2.95601098  3.05895359  0.10423509
  H  2.35914636  2.92549580  1.77028425
  H  1.38486659  3.75254503  0.53696917
  H -0.07894227  1.45372920  4.20575418
  H  0.31639510  0.11772180  3.08155675
  H -1.34449296  0.64237092  3.28231779
  H  0.39821247  1.85056077 -1.89803178
  H -1.02914145  3.00903943 -3.54646048
  H -3.12765519  4.08582427 -2.81195851
  H -3.80163250  3.95780058 -0.44224242
  H -2.38454317  2.81202530  1.18633831
