44
opt_min/./Product_1085_opt.xyz
  C -0.46506300 -1.46770800 -1.32007300
  C -0.37495402 -0.19075761 -0.49920825
  C -1.44562797 -0.03665982  0.62708399
  C -2.21398952 -1.29003714  1.07517025
  F -1.39998219 -2.27914256  1.45929930
  F -3.01854570 -1.83277234  0.14275956
  F -3.00266306 -1.01218382  2.11757684
  C -2.32439490  1.13074711  0.12958254
  C -3.00946085  0.81921569 -1.20935076
  C -1.86118784  0.93549937 -2.23294564
  C -0.63331537  1.10315299 -1.33210138
  C -1.22234747  2.09103620 -0.31936926
  O -0.75044908  0.32672563  1.80236646
  N  0.57083514  0.77700331  1.41517916
  C  1.37953172  0.88889953  2.61463243
  C  0.97017828 -0.09600841  0.30524258
  C  2.03342907  0.58798739 -0.57529175
  N  2.38377407  1.82374542 -0.18384724
  C  3.38338217  2.57565033 -0.91482049
  O  2.49509285  0.06331593 -1.56697445
  C  1.51574954 -1.46535322  0.81782471
  C  2.21756031 -2.40009761 -0.12784058
  O  1.42998797 -1.73238186  1.98825626
  H -0.39103455 -2.34432903 -0.68398068
  H  0.34550032 -1.48351062 -2.04511236
  H -1.40873409 -1.53847428 -1.84902821
  H -2.99809194  1.47817742  0.91069989
  H -3.48422861 -0.15711903 -1.22757163
  H -3.78448708  1.56186891 -1.39771164
  H -1.97582186  1.83794458 -2.83741636
  H -1.80190136  0.10005790 -2.92288819
  H  0.25264882  1.43582747 -1.86770633
  H -0.55251229  2.39282501  0.47838372
  H -1.62602454  2.97838727 -0.80777937
  H  1.03159103  0.20287630  3.38728332
  H  2.42154016  0.66777878  2.39446567
  H  1.28695396  1.91400920  2.98319812
  H  1.93071162  2.26896127  0.59549263
  H  2.96816626  2.96879141 -1.84644256
  H  3.73781667  3.39851816 -0.29948821
  H  4.21501255  1.91777414 -1.17016380
  H  3.12900088 -2.73692064  0.36935547
  H  1.59700976 -3.28070669 -0.27584175
  H  2.46463399 -1.94542211 -1.07775031
