56
opt_min/./Product_2828_opt.xyz
  F  1.79672700  3.42522500 -1.22381200
  C  1.99558295  3.41314813  0.12862461
 Br  3.84083423  4.08489324  0.34961056
  C  1.97525956  1.99825249  0.61581872
  C  1.23146467  0.92389149  0.31718503
  C -0.15446403  0.83269601 -0.28432958
  C -0.13252972  0.37948620 -1.74419788
  C -1.32463505  0.20061021 -2.44523172
  C -1.32341503 -0.16904482 -3.77735323
  C -0.12817609 -0.34501871 -4.45266078
  C  1.05911689 -0.11665556 -3.78438918
  C  1.05472767  0.24992596 -2.44851344
  C -0.97247779 -0.07714830  0.63304993
  C -1.72255291 -1.15619179  0.18201587
  C -2.48196260 -1.91266359  1.05712008
  C -2.50805746 -1.61661637  2.40816276
  C -1.72348340 -0.58198400  2.88162625
  C -0.95513491  0.16506512  2.00516187
  C -0.84058342  2.23583503 -0.35895388
  C -1.18029629  3.02858145  0.90611657
  C -0.01685252  3.63221183  1.69705369
  C  1.00054739  4.36058843  0.81861487
  C  2.01362536 -0.22795838  0.97216387
  C  3.17718925 -0.69710439  0.03270008
  O  3.59627502 -1.89749355  0.38386334
  C  4.74815171 -2.38934860 -0.29819972
  O  3.69822865  0.01409275 -0.77831749
  C  1.32289047 -1.49936351  1.46659589
  C  1.47479570 -1.81105331  2.92550723
  O  0.79923943 -2.24053451  0.67722562
  O  2.71877507  0.43531158  2.01977391
  O  2.97600869  1.74396164  1.52432290
  H -2.27705358  0.36188024 -1.96063993
  H -2.26345051 -0.31069684 -4.29067690
  H -0.12657121 -0.63655239 -5.49244542
  H  2.00219308 -0.21207683 -4.30149660
  H  1.99601290  0.45854651 -1.97245728
  H -1.68733654 -1.45395729 -0.85180079
  H -3.05087953 -2.74726077  0.67582843
  H -3.11246482 -2.20078017  3.08617448
  H -1.69655070 -0.35574926  3.93809313
  H -0.31584973  0.93026466  2.41662560
  H -0.24538138  2.84422467 -1.03468146
  H -1.79515139  2.07302139 -0.86244749
  H -1.78008232  2.40780717  1.57713135
  H -1.82121390  3.85230013  0.57995509
  H -0.42800485  4.34285524  2.41661687
  H  0.49752300  2.86653164  2.27894824
  H  1.54431358  5.09145735  1.41693306
  H  0.48043881  4.91038472  0.02774544
  H  4.47948211 -2.67912833 -1.31522678
  H  5.52116045 -1.61976575 -0.33476905
  H  5.08807643 -3.25369097  0.26605128
  H  1.92626564 -0.99014872  3.47118847
  H  0.49902419 -2.05778965  3.33822243
  H  2.10033941 -2.69813142  3.01270233
