47
opt_min/./Product_5570_opt.xyz
  C  1.11326718 -1.36679208  1.12148874
  C  2.56227211 -1.61908410  0.83548783
  C  3.26758312 -0.81813964  0.04102095
  N  2.74844636  0.28616396 -0.57927690
  C  3.48407586  0.98174282 -1.60353609
  C  1.36733323  0.57894467 -0.47455333
  C  0.46656802 -0.59354874 -0.03984058
  C  0.23054033 -1.49396171 -1.26458149
  N -0.36849454 -2.67241979 -1.01350952
  O  0.61664813 -1.17796154 -2.36686173
  C -0.81254136  0.17537552  0.40636251
  C -1.73653158  0.40655425 -0.80146066
  N -1.77019427  1.65024688 -1.26990314
  C -2.54475870  2.00404018 -2.43720529
  O -2.38692876 -0.51331463 -1.28549539
  C -1.54927409 -0.55868476  1.56017048
  O -1.33115274 -0.26266168  2.71342630
  N -2.33591336 -1.56996105  1.15604735
  C -3.16639050 -2.28685072  2.09949583
  O -0.36750243  1.41635975  0.93357700
  C  0.97671602  1.69628399  0.57260847
  C  1.02439194  2.98619739 -0.08170173
  N  1.00229247  3.99755190 -0.61853252
  C  1.94760261  1.76282921  1.77161715
  C  1.31967745  1.68610531  3.12525879
  O  3.12287141  1.91674461  1.56575099
  H  0.59637377 -2.31457693  1.28335795
  H  1.00620161 -0.79195610  2.04519397
  H  3.02724166 -2.45819098  1.32135050
  H  4.31299985 -0.99369175 -0.15455994
  H  4.54647560  0.79677864 -1.46575482
  H  3.18740761  0.64918159 -2.60590663
  H  3.30458407  2.05524541 -1.51758018
  H  1.01567280  0.92602129 -1.45816409
  H -0.62346256 -3.22374318 -1.81782775
  H -0.86868623 -2.83118260 -0.15529764
  H -1.25275471  2.37394700 -0.79242681
  H -2.66578584  3.08260069 -2.47016036
  H -3.51787451  1.51538294 -2.38574758
  H -2.04013636  1.66418816 -3.34519127
  H -2.62203636 -1.55468435  0.17469134
  H -4.13533282 -1.80022174  2.23419613
  H -2.65150802 -2.30934652  3.05829392
  H -3.32470119 -3.30118717  1.73646869
  H  0.37237017  1.15047780  3.11445533
  H  2.02150078  1.24791024  3.83003660
  H  1.11067737  2.70894982  3.44594860
