27
opt_min/./Product_367_opt.xyz
 Cl -1.19575300  2.29708600 -1.44026900
  C -0.61289564  1.17403693 -0.18936657
  C  0.22454050 -0.04288418 -0.70886066
 Br  0.60464602 -0.04059451 -2.63309771
  C -0.58172775 -1.25313306 -0.22789986
  C -1.90849277 -1.30439559 -0.99613171
  C -2.73116192 -0.15015087 -0.37778991
  C -1.74294773  0.49019002  0.60376984
  C -1.02526738 -0.75127276  1.15333062
  N  1.48169311  0.12535723  0.00112041
  C  2.52599066 -0.77002014 -0.06990772
  C  3.74807619 -0.34290468  0.69282568
  O  2.40779644 -1.80030995 -0.68995764
  N  1.52484458  1.26019864  0.73030435
  C  0.41211029  1.86839918  0.66632563
  H -0.01523030 -2.18323804 -0.24471441
  H -2.39113437 -2.26682680 -0.85631623
  H -1.75646246 -1.15922645 -2.06295404
  H -3.08650603  0.55044927 -1.12517374
  H -3.58760279 -0.52732464  0.17533593
  H -2.19341669  1.15089623  1.34343668
  H -0.20272064 -0.52313509  1.82727839
  H -1.71577589 -1.44149257  1.62837214
  H  3.64657231 -0.67330474  1.72283981
  H  4.61663369 -0.81776136  0.25253333
  H  3.85862726  0.73676711  0.69078335
  H  0.25222013  2.80617931  1.16042355
