39
opt_min/./Product_4186_opt.xyz
  C -5.24268815 -1.36424200 -0.26548163
  C -3.87738919 -0.83245836  0.04289956
  C -3.76784405  0.65158227  0.22782802
  C -2.84362133 -1.67044263  0.19230216
  C -1.50249804 -1.29541557  0.55775290
  C -0.52557725 -2.18104420  0.76603912
  C  0.87357797 -1.79907449  1.15173042
  C  1.61266199 -2.94684762  1.86854595
  C  1.67472830 -1.24817962 -0.05549413
  N  2.33019235 -0.05906892  0.48680543
  C  3.40738379  0.59831265 -0.07086852
  C  4.02576900  1.62954816  0.63999029
  C  5.09950629  2.29954103  0.09289535
  C  5.57694778  1.95488929 -1.16284615
  C  4.96164811  0.93665301 -1.87033060
  C  3.87808133  0.26096794 -1.33963394
  N  1.82073300  0.30112862  1.65275000
  C  0.94790143 -0.55943233  2.05076455
  C  0.15467214 -0.39730650  3.18669252
  N -0.55479795 -0.28800515  4.08405368
  H -5.80888706 -1.47364796  0.66105411
  H -5.79412207 -0.68400173 -0.91127978
  H -5.18663400 -2.33941234 -0.74233779
  H -4.64324736  1.15544610 -0.17401038
  H -2.88682028  1.04706702 -0.27381685
  H -3.69098268  0.89750146  1.28692094
  H -3.00803185 -2.73080732  0.04703866
  H -1.30164114 -0.23819148  0.67295254
  H -0.73133352 -3.23865484  0.68235424
  H  2.62475557 -3.06170385  1.48638283
  H  1.08741084 -3.88990535  1.73986749
  H  1.68189859 -2.74867340  2.93754862
  H  2.39460235 -1.96475408 -0.45312457
  H  0.99755520 -0.93917516 -0.86129034
  H  3.64933563  1.88260078  1.61853453
  H  5.56697625  3.09856737  0.64862362
  H  6.42020588  2.47590458 -1.58842289
  H  5.32715386  0.66342128 -2.84911681
  H  3.39971686 -0.51583231 -1.91415269
