38
opt_min/./Product_651_opt.xyz
  C  4.40308000  2.42322200  0.31978300
  N  3.42536611  1.41297644  0.64196311
  C  2.24157004  1.35973462  0.01245855
  O  1.93025483  2.10251088 -0.89375088
  C  1.30382902  0.19408100  0.38889328
 Br  1.61737850 -0.39328687  2.26483416
  C -0.08794594  0.70078246  0.30433473
  C -1.21779786  0.12525234 -0.16019280
  C -1.48498413 -1.28150435 -0.54903434
  C -1.11259980 -2.20842572  0.62162009
  C  0.22129962 -2.96915658  0.53679913
  C  1.46534998 -2.40217930 -0.19255714
  C  1.60836818 -0.93047026 -0.60929442
  C -2.28634609  1.18055640  0.00318244
  C -3.36469301  0.76904591  1.01322795
  C -2.91567829  1.61851692 -1.31773954
  N -1.54952455  2.29242479  0.59168831
  N -0.36158877  2.00292632  0.74833356
  H  5.19663963  2.01240642 -0.30974298
  H  3.89869407  3.21803644 -0.22840553
  H  4.83889625  2.82279146  1.23289601
  H  3.62967451  0.79022671  1.40765549
  H -2.54870053 -1.37494277 -0.77927114
  H -0.94590181 -1.57431064 -1.45143899
  H -1.89042488 -2.96417004  0.72142224
  H -1.12362368 -1.61008215  1.53249188
  H  0.51037617 -3.21013948  1.56141504
  H  0.01462908 -3.92947195  0.05486023
  H  2.32252622 -2.64249877  0.44257974
  H  1.61121059 -2.97534232 -1.11312521
  H  0.98773749 -0.72409574 -1.47998773
  H  2.64902730 -0.82090617 -0.92503910
  H -3.93774255 -0.07251626  0.63107008
  H -2.90755775  0.49043148  1.95937454
  H -4.02677834  1.61267823  1.17942971
  H -2.14320665  1.79648599 -2.06227017
  H -3.59684507  0.85589982 -1.68565847
  H -3.46301757  2.54337678 -1.15953631
