41
opt_min/./Product_1001_opt.xyz
  C -1.20078206  0.86615034 -2.69610484
  O -1.68378349  0.00416916 -1.68621869
  C -1.32570650  0.27463318 -0.37441361
  C -2.10451762 -0.67180156  0.58838489
 Cl -3.27299595 -1.71333446 -0.21106263
  C -2.81431410  0.36758201  1.50620587
  C -3.89940459  0.97590676  0.63975705
  C -3.26022607  1.78306377 -0.19336534
  C -1.79878275  1.66981288  0.18220443
  O -1.85496673  1.40400587  1.57282993
  C -1.03067138 -1.49677639  1.27183573
  N  0.10315775 -0.59437901  1.34448565
  C  1.31908754 -1.24026799  1.83212322
  C  0.18088643  0.02848656  0.00427712
  C  1.00094109  1.32524733 -0.08824768
  O  1.05700454  1.95979314 -1.12476209
  N  1.64074092  1.68547037  1.02760562
  C  2.44132809  2.88005484  1.11928426
  C  0.79946170 -0.99041352 -0.96492151
  O  0.24879209 -1.97461193 -1.37489800
  O  2.08738580 -0.70365539 -1.18530517
  C  2.81550581 -1.57496035 -2.04450151
  H -1.55679141  1.88970953 -2.55122007
  H -1.60124965  0.46209136 -3.62366627
  H -0.10953037  0.87889002 -2.73289115
  H -3.08835789  0.00361738  2.49130831
  H -4.93649443  0.71624475  0.69732063
  H -3.63551326  2.37305607 -1.00486933
  H -1.15361201  2.51244075 -0.04110818
  H -1.32003637 -1.80366925  2.27986825
  H -0.82051967 -2.39204733  0.66850147
  H  2.19047778 -0.96588795  1.24085605
  H  1.22355186 -2.33117955  1.80415756
  H  1.47450583 -0.95822005  2.87652408
  H  1.51541447  1.12049381  1.84488708
  H  3.46034187  2.63313059  1.42110367
  H  2.45722768  3.34251620  0.13376052
  H  2.01111435  3.57647162  1.84096695
  H  2.31996266 -2.54593583 -2.09801756
  H  3.81663256 -1.67299010 -1.62882364
  H  2.86612598 -1.13234497 -3.04009429
