49
opt_min/./Product_1910_opt.xyz
  N -3.10185140 -0.72196303 -2.13496941
  C -2.03671112 -0.56525207 -1.75162256
  C -0.66752993 -0.47749761 -1.28690960
  C  0.26549508  0.31708689 -2.23869451
  C -0.40828743  1.30538659 -3.03639375
  N -0.91978794  2.11767535 -3.65756448
  C  0.84188660 -0.86248442 -3.12604088
  C  1.94840960 -1.48230545 -2.30424996
  C  1.31597407 -2.11591008 -1.32262680
  C -0.15659127 -1.93617424 -1.59774994
  O -0.17204418 -1.83951847 -3.01966623
  C  1.22800569  1.05859658 -1.26630569
  C  2.72171936  0.81077149 -1.51437968
  O  3.30917180  0.25525820 -0.45986556
  C  4.71650988  0.04379243 -0.52156434
  O  3.28779497  1.17243782 -2.51224220
  N  0.85603744  0.68236661  0.08151927
  C -0.50008360  0.11816564  0.12246950
  C -1.46238042  1.23887020  0.50772568
  C -1.40412113  1.65067575  1.84015272
  C -2.17616710  2.70186343  2.29268921
  C -3.01897180  3.36882352  1.41817108
  C -3.06975498  2.97925886  0.09411693
  C -2.29563130  1.92283277 -0.36338476
  C -0.60274907 -1.01223535  1.13105046
  C  0.53631243 -1.59905589  1.66310126
  C  0.42170343 -2.65350124  2.55262635
  C -0.82685286 -3.13084292  2.91199712
  C -1.96514273 -2.54402498  2.38486116
  C -1.85464569 -1.48647351  1.49965792
  H  1.03254972 -0.59800200 -4.16151881
  H  2.98984796 -1.45953867 -2.55277260
  H  1.71760778 -2.65163382 -0.48785254
  H -0.81429699 -2.72982178 -1.25106036
  H  1.12885012  2.14612576 -1.45417958
  H  5.10225661  0.37757931 -1.48689999
  H  5.18282694  0.61083849  0.28380923
  H  4.90588852 -1.02118649 -0.38510308
  H  0.93196565  1.46440799  0.72093032
  H -0.75467112  1.12568062  2.52734552
  H -2.12205394  3.00157778  3.32891642
  H -3.62430526  4.18950654  1.77192056
  H -3.71184348  3.49462416 -0.60341241
  H -2.34753138  1.67265284 -1.40958193
  H  1.50336184 -1.19755999  1.40195229
  H  1.31132384 -3.10298096  2.96960992
  H -0.91345422 -3.95349497  3.60589626
  H -2.94270345 -2.90674322  2.66344389
  H -2.74376098 -1.03383337  1.08311909
