44
opt_min/./Product_4866_opt.xyz
  N -1.45595800 -0.97717000  0.32161700
  C -0.50658527 -0.06655569  0.96106563
  N -1.34231077  0.92958553  1.58557614
  N  0.33505796 -0.71417882  1.94397261
  C -0.29218562 -1.37036424  3.07588358
  C  0.42046069  0.53966959 -0.17887805
  C  0.66997290  2.05799986 -0.06538806
  O  1.10634694  2.51356850 -1.23800981
  C  1.37543424  3.90578300 -1.27731483
  O  0.72267834  2.67941798  0.96757908
  C  1.82298942 -0.06368673 -0.18702985
  C  2.78121172  0.37658302  0.72330373
  C  4.06225349 -0.14458946  0.69819130
  C  4.40272928 -1.11183619 -0.23328529
  C  3.44974846 -1.56544111 -1.12778897
  C  2.16667091 -1.04577150 -1.10674990
  O -0.12490558  0.25038634 -1.45283124
  C -1.45752409  0.39148762 -1.61641603
  C -2.04442035 -0.55851828 -2.60852050
  C -2.10512869  1.57312350 -1.16099208
  C -3.59743956  1.71377246 -1.36596806
  O -1.46014697  2.50447628 -0.64454868
  H -2.36327098 -0.89873234  0.75567761
  H -1.14785608 -1.93465529  0.22339432
  H -0.88664958  1.83331944  1.62672470
  H -1.54058845  0.64334143  2.53691332
  H  1.10878217 -1.23225148  1.56074734
  H -0.27920279 -0.71720108  3.95430480
  H -1.33057762 -1.65977356  2.87485858
  H  0.25985187 -2.27434292  3.32817500
  H  2.14445317  4.16639442 -0.54616131
  H  0.46371089  4.46120946 -1.05135363
  H  1.72134149  4.11949569 -2.28556609
  H  2.51610848  1.11746715  1.46102927
  H  4.79788885  0.20829518  1.40509118
  H  5.40432510 -1.51539183 -0.25686486
  H  3.70801849 -2.32648062 -1.84961331
  H  1.42723874 -1.40208064 -1.80568687
  H -2.13357429 -0.09014602 -3.59063682
  H -3.04077304 -0.86734390 -2.30326295
  H -1.40628606 -1.43188924 -2.69962326
  H -3.77589336  2.22362106 -2.31263007
  H -4.09987922  0.75398001 -1.38863066
  H -3.99613897  2.33389826 -0.56856885
