49
opt_min/./Product_5099_opt.xyz
  C -0.52035089  3.52628006  1.33472825
  C -0.89447267  3.31993403 -0.09997063
  C -1.06153327  4.57807915 -0.90821038
  C -1.03608995  2.13832393 -0.69314422
  C -0.84379197  0.79140223 -0.08083119
  C -1.93033841 -0.23512971 -0.47585169
  C -2.90382854 -0.38300961  0.67456760
  C -2.49477273 -1.31160815  1.77593906
  C -4.00135140  0.35485518  0.71896771
  N -1.20312777 -1.44820348 -0.79823602
  C -1.78929092 -2.59158642 -1.22404009
  C -3.23493283 -2.42533697 -1.65348354
  O -1.23516512 -3.67493711 -1.26991304
  N  0.16348194 -1.32250475 -0.37301415
  C  1.10121021 -2.19384747 -1.05718671
  C  0.46947677  0.10437541 -0.54247215
  C  0.74887403  0.43433281 -1.93035722
  N  0.96404230  0.59974346 -3.04214394
  C  1.61740263  0.53663317  0.34370954
  C  1.91099220 -0.17030126  1.50118642
  C  2.92510260  0.26286764  2.33674748
  C  3.64194716  1.40577830  2.02610299
  C  3.34261158  2.11946826  0.87813768
  C  2.33223730  1.68700252  0.03722382
  H -0.63626120  2.62726696  1.93240461
  H  0.52135379  3.84216397  1.39791227
  H -1.13434911  4.31129314  1.77112694
  H -0.17153004  4.75144976 -1.51199666
  H -1.90826391  4.49668008 -1.58552895
  H -1.20765274  5.44110281 -0.26494028
  H -1.28263942  2.11878783 -1.74781788
  H -0.80244267  0.86825177  1.00605551
  H -2.46571756  0.11476868 -1.36701743
  H -3.30868499 -1.45241949  2.48101790
  H -2.19836739 -2.27991281  1.37694354
  H -1.63846858 -0.90537327  2.31522337
  H -4.67899863  0.31110114  1.55395895
  H -4.26676702  1.02786424 -0.07780707
  H -3.56324659 -3.37489574 -2.06784097
  H -3.35367417 -1.64797282 -2.40330886
  H -3.85535973 -2.17600801 -0.79506485
  H  1.07243255 -2.09653655 -2.14746618
  H  2.09806971 -1.93461087 -0.70091429
  H  0.87627409 -3.22331427 -0.79411208
  H  1.34342025 -1.05819006  1.73459885
  H  3.15739606 -0.29236171  3.23299759
  H  4.43285736  1.74102923  2.68052390
  H  3.89571494  3.01356244  0.63297162
  H  2.09797651  2.24365332 -0.85863579
