34
opt_min/./Product_149_opt.xyz
  C -1.43359800 -2.35356700 -1.57557700
  C -0.67189995 -2.11266774 -0.30200316
  O -0.44045708 -3.02602300  0.45267026
  C -0.20115473 -0.69235869  0.03199401
  C  0.85566237  0.00364261 -0.87124652
 Cl  1.07462696 -0.68671722 -2.50705657
  C  0.25709245  1.40876145 -1.03399402
  C  0.14129483  2.12622789  0.32559283
  C -1.07525800  1.45575344  0.99097491
  C -1.38799588  0.31428634  0.02104209
  C -1.20241367  1.05516804 -1.30762376
  C  2.18310600 -0.17301635 -0.10105975
  C  3.23920567  0.91701225 -0.25274213
  N  1.79760579 -0.42160973  1.26690261
  C  0.57631392 -0.73792058  1.34861525
  C -0.03693360 -1.20803547  2.61941859
  H -2.10368704 -3.19691142 -1.41430748
  H -1.99122184 -1.49375295 -1.92163757
  H -0.71881340 -2.63865226 -2.34787805
  H  0.76058735  1.99608730 -1.80035817
  H  1.03091016  2.01189977  0.93817087
  H -0.02514221  3.19076910  0.16366826
  H -1.92655886  2.13788343  1.03841841
  H -0.85786079  1.12370820  2.00144152
  H -2.35475822 -0.16046425  0.18595913
  H -1.32445723  0.44872094 -2.19972985
  H -1.84177694  1.93355607 -1.38169540
  H  2.64170790 -1.11329890 -0.44275917
  H  3.93516224  0.83208665  0.57834038
  H  3.78265801  0.78284370 -1.18453480
  H  2.80810880  1.91276668 -0.24826150
  H -1.11877625 -1.10912349  2.60279224
  H  0.38590020 -0.66429408  3.46077665
  H  0.20388589 -2.26476590  2.74532389
