43
opt_min/./Product_1342_opt.xyz
  C -3.43792904  0.92978044 -1.52303485
  C -1.95929457  1.14956828 -1.36247651
  O -1.29624987  1.67193518 -2.22402778
  C -1.32134900  0.67740784 -0.04818386
  C -1.64051122  1.71197871  1.09801404
  C -2.13964728  3.06254205  0.67801920
  O -1.51199018  1.38578526  2.24243458
  C  0.21416364  0.85488757 -0.26013987
  C  1.26704155  0.29320878 -0.91223702
  C  1.68838828 -1.00013045 -1.64037486
  F  2.83203406 -1.44495888 -1.02006036
  F  2.10210058 -0.65761754 -2.89318401
  C  0.69915921 -2.19944788 -1.74003183
  C -0.43093976 -1.60696630 -0.93456536
  C -1.79671876 -1.92664889 -0.38042130
  C -1.95545552 -0.65619043  0.49492872
  C  2.45112949  1.26039197 -0.73271813
  C  3.50345712  0.68154109  0.25865589
  O  2.87587689  0.16433968  1.30478950
  C  3.70500946 -0.37578073  2.32753751
  O  4.68696850  0.74048294  0.10619636
  C  3.09185833  1.65321495 -1.97587231
  N  3.54785126  2.06179415 -2.93942546
  N  1.86054641  2.43543621 -0.08344847
  O  0.52536144  2.08248241  0.24284145
  H -3.82031951  1.62984083 -2.26199725
  H -3.98285392  1.03148346 -0.59017503
  H -3.59946212 -0.07819702 -1.90277457
  H -3.19155888  2.99361145  0.40639704
  H -2.04131763  3.75448656  1.51048777
  H -1.59083838  3.43543947 -0.18147072
  H  0.46092145 -2.37697597 -2.78788800
  H  1.16622892 -3.08610644 -1.31434593
  H  0.09783016 -1.34047156 -0.01719077
  H -0.64894173 -0.73274425 -1.54529512
  H -2.56574857 -2.01022647 -1.14641174
  H -1.83339908 -2.81503220  0.24778776
  H -1.47801831 -0.84372015  1.45812408
  H -3.00586934 -0.45238106  0.70196666
  H  4.16621574 -1.30024273  1.97462049
  H  3.05312468 -0.56878435  3.17544430
  H  4.48859845  0.33537600  2.59305328
  H  1.80036546  3.22573494 -0.72954600
