36
opt_min/./Product_4153_opt.xyz
  C -1.69187617 -1.07151086  1.12911791
  C -0.39115852 -0.93064280  0.34320761
  C  0.08707338 -2.32426742 -0.07620215
  C  0.68886977 -0.14738927  1.12459374
  C  1.44648000 -0.90026351  2.17619404
  O  1.01162276 -1.81458105  2.81687896
  C  1.52605621  0.56929309  0.05060472
  C  2.86449163 -0.10710864 -0.27411895
  C  1.79158340  2.04205122  0.44895143
  C  2.35891810  2.89057349 -0.64546315
  O  1.53441695  2.45039200  1.55185956
  O  0.72119920  0.59010840 -1.13417452
  C -0.54305478 -0.01609739 -0.91297230
  C -1.58731216  1.11255919 -0.72931000
  O -1.22261659  1.90803071  0.27648751
  C -2.03631932  3.05131316  0.50992382
  O -2.55444995  1.28529762 -1.41327204
  C -0.90319470 -0.78534379 -2.09450752
  N -1.17357289 -1.42298085 -3.00270751
  H -2.01287986 -0.12558596  1.55936428
  H -1.53803366 -1.77777752  1.94184437
  H -2.48154662 -1.45023429  0.48184719
  H -0.72776792 -2.86826296 -0.54925318
  H  0.90818354 -2.26932485 -0.78622939
  H  0.40509431 -2.88335017  0.79955284
  H  0.17051655  0.64045587  1.69542126
  H  2.45849673 -0.50059867  2.36944699
  H  2.75944573 -1.18841988 -0.28435561
  H  3.62064722  0.16684905  0.45733233
  H  3.19066595  0.21742504 -1.25919697
  H  2.27884905  3.94111395 -0.37980218
  H  3.40908216  2.63989988 -0.78199298
  H  1.83159189  2.68335286 -1.57360043
  H -1.57658372  3.57967599  1.34148670
  H -2.06002507  3.68451274 -0.37868019
  H -3.05318763  2.74305653  0.75804535
