57
opt_min/./Product_5903_opt.xyz
  C -0.55736300 -1.53397000  0.56972400
  O -0.48261232 -2.32353989  1.49094941
  C -0.51686931 -0.03650931  0.79194562
  O -1.09907339  0.37938627  2.01206470
  C -0.70489154 -0.08424807  3.28989241
  C -1.42296514  0.69022714 -0.23798776
  O -2.77523252  0.35051342 -0.01832457
  C -3.67028999  0.67042736 -1.07016088
  C -1.03328439  0.29020878 -1.66621833
  O -0.98202645  1.09540610 -2.56686109
  C -0.86442117 -1.15919307 -1.86929959
  C -0.86240347 -1.59877152 -3.29655277
  C -0.70233210 -2.00361264 -0.82816015
  C -0.61034794 -3.48514638 -0.99913166
  C -0.97500696  2.14101570  0.03879586
  C -1.52059802  2.82823133  1.31892538
  N -2.84339731  2.67658552  1.53741344
  C -3.48374515  3.27877356  2.68207862
  O -0.80610850  3.52124278  2.00029568
  O  0.42823616  2.02561914  0.14672036
  C  0.83130826  0.70065457  0.46625251
  C  1.88194334  0.77380799  1.60780154
  O  2.46358710  1.78882905  1.88083179
  N  2.17121926 -0.41957206  2.18247918
  C  3.22969389 -0.50885768  3.16704154
  C  1.61801975  0.12138785 -0.70772315
  C  1.98601853  0.96984937 -1.74581870
  C  2.74016788  0.50359143 -2.80807712
  C  3.15832728 -0.81363892 -2.84341822
  C  2.82677007 -1.65891421 -1.79749424
  C  2.06899359 -1.19575796 -0.73816132
  H  0.34102327  0.12675505  3.50740111
  H -1.32363589  0.49733059  3.97144742
  H -0.91360601 -1.14789437  3.41991926
  H -3.59938072  1.72226483 -1.36207819
  H -4.66356279  0.46129469 -0.67564639
  H -3.49899628  0.04800470 -1.95312235
  H -0.25146663 -2.48372804 -3.44171556
  H -1.87813611 -1.81093001 -3.63257218
  H -0.47700115 -0.78412947 -3.90686299
  H  0.41952384 -3.77443017 -1.20991398
  H -0.90896798 -3.96944459 -0.07162892
  H -1.24160178 -3.83207965 -1.81139026
  H -1.18572847  2.79285725 -0.81947830
  H -3.35494382  1.96568806  1.04405645
  H -2.85585347  4.10239248  3.01776810
  H -3.59402024  2.56258627  3.50055957
  H -4.46730494  3.65385310  2.39936708
  H  1.60197962 -1.23404241  2.02905080
  H  2.98199685  0.07056277  4.05974704
  H  3.37973129 -1.54970782  3.43782226
  H  4.14741871 -0.09839168  2.74490449
  H  1.67387152  2.00070481 -1.71025265
  H  3.00365106  1.17777386 -3.60874589
  H  3.74705048 -1.17915169 -3.67124328
  H  3.16385144 -2.68533707 -1.80157759
  H  1.83079990 -1.88037007  0.06154990
