57
opt_min/./Product_2624_opt.xyz
  F  0.67193700  4.14117600 -2.01179400
  C  1.14112236  3.29968478 -1.11211391
  C  2.38411458  2.88052957 -0.88947035
  C  3.68348442  3.25034745 -1.50247978
  F  3.58093351  4.19611308 -2.43830115
  F  4.55972106  3.70107635 -0.59052906
  F  4.27487807  2.19030715 -2.08688279
  C  2.22026363  1.82404433  0.20189631
  C  1.62494970  0.60379672 -0.54031754
  C  0.19611886  1.10446577 -0.84198611
  C  0.23789944  2.50379329 -0.17998928
  O  1.11627351  2.32553920  0.92363883
  C -0.77842791 -0.04187636 -0.39935674
  C -1.77527767 -0.17752069 -1.54193437
  C -1.48711660 -1.00097969 -2.62326739
  C -2.36359840 -1.09116089 -3.69008159
  C -3.52964324 -0.34539659 -3.69860113
  C -3.80820511  0.49682048 -2.63634757
  C -2.93721997  0.58280285 -1.56475299
  C -1.53945223  0.03955902  0.92769014
  C -1.21478386  0.84119230  2.01447378
  C -1.95434418  0.78764087  3.18634987
  C -3.03220285 -0.06820763  3.30425520
  C -3.36445791 -0.87760617  2.23353069
  C -2.63265704 -0.82204202  1.06433162
  N  0.16565288 -1.17513083 -0.37454015
  C -0.29139929 -2.45369040  0.11768884
  C  1.38033534 -0.67631013  0.26378536
  C  2.52073561 -1.65072036  0.19300894
  C  2.90384331 -2.19038711 -1.02894499
  C  3.95930553 -3.08182115 -1.10047663
  C  4.64295534 -3.44092320  0.04868929
  C  4.26442382 -2.91258068  1.26934544
  C  3.20476492 -2.02391823  1.34147813
  H  3.06505201  1.63461747  0.85598969
  H  2.18634793  0.37964943 -1.45098142
  H  0.03486226  1.22749465 -1.91861731
  H -0.70032207  2.96793784  0.09860941
  H -0.57334570 -1.57488486 -2.61308048
  H -2.13240928 -1.74364990 -4.51919714
  H -4.21349468 -0.41615725 -4.53087050
  H -4.71065382  1.09225130 -2.63969782
  H -3.16119898  1.24549666 -0.74168318
  H -0.35827704  1.48644831  1.99626354
  H -1.67433491  1.42451215  4.01292204
  H -3.60267032 -0.10960232  4.22001093
  H -4.20185849 -1.55749908  2.30263468
  H -2.93484163 -1.44347571  0.23381070
  H -0.53654040 -2.44478904  1.19047237
  H -1.17232967 -2.75407891 -0.44839759
  H  0.50400531 -3.17763284 -0.05537532
  H  1.19593582 -0.40243088  1.32301631
  H  2.36122994 -1.92299539 -1.92280663
  H  4.24984616 -3.49708699 -2.05362971
  H  5.46884884 -4.13534916 -0.00587389
  H  4.79075833 -3.19258335  2.17051890
  H  2.91008339 -1.61419340  2.29677177
