33
opt_min/./Product_713_opt.xyz
  C -1.55396557  0.69422032 -2.50700690
  O -1.39767324  0.75538748 -1.10566066
  C -0.41139855 -0.03792850 -0.52168999
  C -0.59659343 -0.08220756  1.02279728
 Br -2.34074104  0.60142597  1.54132569
  C -0.66612875 -1.62574457  1.24772586
  C  0.67871545 -2.24495320  0.92716554
  C  0.76745128 -2.23037379 -0.39498912
  C -0.51609430 -1.57145343 -0.86008367
  O -1.43961474 -2.00388403  0.12120165
  C  0.57399797  0.71189821  1.62707726
  C  1.02393328  0.19132936  2.99081325
  C  0.25026659  2.20676058  1.75628861
  N  1.61533526  0.45579504  0.62775473
  C  1.02848675  0.56482783 -0.69874248
  C  1.81489555 -0.10409961 -1.72648494
  N  2.44952390 -0.51826386 -2.58222866
  C  0.96631424  1.94590532 -1.18570692
  N  0.99303657  3.02935956 -1.54643761
  H -2.12056857  1.58546772 -2.77024333
  H -2.12300945 -0.19094135 -2.80524420
  H -0.59277235  0.70920987 -3.03035545
  H -1.14674922 -1.91977880  2.17629061
  H  1.36892703 -2.63098772  1.64897690
  H  1.54598622 -2.58619328 -1.03748940
  H -0.85731400 -1.80404481 -1.86350297
  H  1.81370289  0.82968361  3.37937511
  H  0.18716097  0.21626140  3.68459966
  H  1.40374022 -0.82209294  2.92612478
  H -0.38736599  2.38433887  2.61794269
  H  1.17362313  2.76818359  1.89544467
  H -0.25766215  2.58928782  0.87381151
  H  2.43644164  1.03818116  0.75358944
