55
opt_min/./Product_2989_opt.xyz
  F -3.27093125 -2.56288907 -1.42132070
  C -2.14375381 -1.84739706 -1.34878993
  F -1.25714117 -2.42462956 -2.16436317
  F -2.41771493 -0.66903822 -1.92874360
  C -1.62933157 -1.74451213  0.10005285
 Cl -0.96800212 -3.42477680  0.34502835
  C -0.50944352 -0.73830589  0.24046005
  C -0.50641677  0.60555046  0.24140089
  C -1.52634289  1.67600551 -0.01188342
 Cl -1.15934542  2.36175873 -1.65491391
 Cl -1.24505678  3.00792763  1.16828890
  C -3.03057179  1.45078730 -0.00682069
  C -3.60149750  0.79596215  1.25122555
  C -3.89928323 -0.68637315  1.04201898
  C -2.70942818 -1.62991644  1.19931008
  C  0.91985845  1.11023780  0.48828623
  C  1.11308941  1.88754927  1.70927393
  N  1.49593146  2.37199243  2.67418461
  C  1.45435149  1.88797738 -0.75604638
  O  1.69552729  1.28087693 -1.78327458
  N  1.67944078  3.18982965 -0.57764429
  C  2.14987732  4.04994603 -1.63708549
  N  1.68169611 -0.09026257  0.71933760
  C  3.11056481 -0.11342763  0.53703094
  C  0.87886210 -1.27380518  0.51839893
  C  1.45073768 -2.16267947 -0.63707426
  N  1.45914872 -1.51462116 -1.80677349
  C  1.99189874 -2.15554952 -2.98816239
  O  1.82068597 -3.30103964 -0.47277194
  C  0.90062103 -1.96752023  1.89771395
  O  0.05220889 -1.78614962  2.73484255
  O  2.02788744 -2.61198193  2.09946281
  C  2.20023509 -3.18930832  3.38802055
  H -3.32667099  0.87512573 -0.87730289
  H -3.46351326  2.44535271 -0.13607040
  H -4.54627869  1.28975038  1.48119614
  H -2.94456028  0.93383711  2.10877024
  H -4.60727396 -0.99485959  1.81324597
  H -4.39425044 -0.82944321  0.08198314
  H -2.17040672 -1.38628266  2.11684985
  H -3.12583860 -2.63065362  1.32358980
  H  1.42082853  3.62783872  0.29466608
  H  1.38595177  4.78352844 -1.89898308
  H  2.36562248  3.42929721 -2.50437885
  H  3.05579678  4.56737538 -1.32269954
  H  3.48397406 -1.06657031  0.90482959
  H  3.55254459  0.68861520  1.12962264
  H  3.41782496  0.00490456 -0.50944772
  H  1.32966711 -0.50618278 -1.85025380
  H  3.07639958 -2.27177581 -2.92103953
  H  1.74091002 -1.55232339 -3.85534151
  H  1.54680519 -3.14545441 -3.08299982
  H  1.32297715 -3.77957547  3.65675148
  H  2.34132840 -2.40395466  4.13315194
  H  3.08236082 -3.81976597  3.31937099
