64
opt_min/./Product_5956_opt.xyz
  C -1.30328100  0.83455500 -1.34678800
  C -1.27800725  0.41739295  0.11938694
  C -0.07534426  1.02677253  0.85614155
  N  0.12049668  2.41576261  0.56944986
  C  0.72243084  3.25680316  1.57670870
  C -0.47538245  2.99702957 -0.50570191
  C -1.17227859  2.32855141 -1.44656797
  C -1.89385017  2.97040386 -2.54458813
  N -1.59453316  4.28783489 -2.80650822
  O -2.76351986  2.40198127 -3.18396077
  C  1.09736807  0.03456529  0.52894880
  C  2.12766388 -0.05648286  1.64760235
  C  1.72581540 -0.21310058  2.97165987
  C  2.65255591 -0.33075641  3.99173642
  C  4.00723775 -0.31136345  3.71260071
  C  4.42090216 -0.19835562  2.39739098
  C  3.49305893 -0.07929052  1.37769941
  C  1.75817640  0.40089184 -0.79280525
  C  2.43053827  1.60897093 -0.93773074
  C  3.00002175  1.96132278 -2.14838471
  C  2.92015292  1.10537416 -3.23257398
  C  2.28164706 -0.11409096 -3.08889834
  C  1.70639822 -0.46288504 -1.88020710
  N  0.40697811 -1.25403234  0.40105384
  C -1.03995290 -1.08862097  0.35948299
  C -1.63468669 -1.48646535  1.72006915
  O -2.93615492 -1.21678922  1.81588872
  C -3.58402189 -1.61698328  3.01718217
  O -0.99149873 -2.01128178  2.59602585
  C -1.68528095 -2.00900958 -0.66048836
  C -3.00670801 -1.82074904 -1.04775055
  C -3.59390080 -2.67436350 -1.96460810
  C -2.87478803 -3.73010301 -2.49775515
  C -1.56497251 -3.93343138 -2.10074326
  C -0.97528918 -3.08167042 -1.18312724
  H -2.22876560  0.52935223 -1.83383039
  H -0.47997626  0.36040858 -1.88188656
  H -2.20740853  0.74819866  0.59069679
  H -0.27641951  0.94007131  1.93262711
  H -0.00606190  3.96699873  1.98282947
  H  1.10087719  2.64165136  2.39010102
  H  1.55742700  3.82861169  1.16503190
  H -0.36427518  4.07208008 -0.53343879
  H -0.69482111  4.66211990 -2.56236102
  H -2.01099859  4.65735911 -3.64624590
  H  0.67943038 -0.28081409  3.23057527
  H  2.30896098 -0.44749758  5.00902245
  H  4.73010370 -0.40032937  4.50933177
  H  5.47384869 -0.20945497  2.15698708
  H  3.84458338 -0.01025045  0.36038688
  H  2.54157515  2.26912487 -0.09263159
  H  3.51406881  2.90725573 -2.24106138
  H  3.36209314  1.38218911 -4.17838392
  H  2.22705292 -0.79781518 -3.92331076
  H  1.20787248 -1.41263228 -1.77165343
  H  0.66235871 -1.88554106  1.15512687
  H -3.34655444 -0.91975440  3.82376604
  H -4.65059021 -1.60266573  2.80859161
  H -3.25801769 -2.61769629  3.30582531
  H -3.58394137 -1.01098659 -0.63060176
  H -4.61828517 -2.51161841 -2.26374675
  H -3.33453807 -4.39332228 -3.21496993
  H -0.99841768 -4.76056257 -2.50305113
  H  0.04340224 -3.24584961 -0.86807910
