64
opt_min/./Product_2657_opt.xyz
  C  2.65243594 -2.05821612  1.77488326
  C  1.24142755 -1.65419302  1.28573787
  C  0.62779010 -1.23794789  2.53251562
  N  0.28387415 -0.91122268  3.57504117
  C  1.27210971 -0.48189669  0.31990142
  C  0.31588816  0.41138904  0.01807332
  C -1.18801863  0.49070180  0.22326796
  C -1.48524649  1.74708545  1.04328470
  C -1.72676226  2.97073884  0.42192680
  C -1.94584384  4.11799460  1.16444341
  C -1.92853411  4.07102948  2.54692253
  C -1.68231837  2.86637481  3.18009884
  C -1.45707751  1.71788470  2.43800441
  C -1.85973931  0.53210245 -1.15198255
  C -1.26615004 -0.02542550 -2.27896500
  C -1.95749174 -0.09720463 -3.47674863
  C -3.25301379  0.37084626 -3.56513145
  C -3.85855712  0.91844075 -2.44649600
  C -3.17044058  0.98547517 -1.24981523
  C -1.85179054 -0.73170252  0.90099286
  C -1.74118937 -2.05733498  0.13528649
  C -0.91362717 -3.10863540  0.86659079
  C  0.59389585 -2.93918943  0.70147863
  C  0.95089730  1.51692008 -0.81403807
  C  1.60313796  2.66532674  0.04523387
  N  1.37644562  2.64399842  1.36572207
  C  1.90689696  3.65755228  2.24932407
  O  2.37920276  3.41894498 -0.50112062
  C  0.19368855  2.20776947 -1.84013951
  N -0.24226311  2.84461106 -2.68594990
  N  2.05334249  0.82730952 -1.46824298
  C  2.51810777 -0.22097510 -0.55705673
  C  3.87233269  0.18044746  0.05227494
  C  2.69263555 -1.41828424 -1.37775619
  N  2.79317344 -2.32640656 -2.06604406
  H  3.20224332 -1.19839023  2.14578619
  H  2.55141967 -2.75944068  2.60339291
  H  3.20280405 -2.55269938  0.97693074
  H -1.75638294  3.03628298 -0.65314861
  H -2.13076980  5.05028245  0.65276344
  H -2.10334018  4.96571545  3.12652966
  H -1.66112139  2.81070661  4.25787427
  H -1.24858354  0.80424274  2.97244869
  H -0.23634372 -0.35034468 -2.26058912
  H -1.47315635 -0.52327367 -4.34181096
  H -3.78671295  0.31153282 -4.50199157
  H -4.87110590  1.29002182 -2.49858822
  H -3.66195022  1.39466743 -0.38083574
  H -2.90604242 -0.47005832  1.01864314
  H -1.45647377 -0.87319245  1.90103679
  H -2.74636939 -2.45359659 -0.02516743
  H -1.30161006 -1.89939616 -0.85066504
  H -1.17071088 -3.12191257  1.92971761
  H -1.16383453 -4.09195663  0.46180183
  H  1.06614868 -3.79010936  1.19851626
  H  0.85381667 -2.99475744 -0.35661039
  H  0.65563322  2.04661885  1.75098843
  H  1.11139156  4.32572480  2.58444326
  H  2.65254171  4.22929283  1.69931962
  H  2.36792772  3.18432678  3.11624373
  H  2.78526580  1.48463386 -1.72196156
  H  4.51392377  0.51117512 -0.76478539
  H  3.73591620  1.01196147  0.74303459
  H  4.38827850 -0.63069794  0.55292000
