41
opt_min/./Product_1114_opt.xyz
  C  0.84058340 -1.67371783 -1.56933621
  C  0.12235629 -0.91536095 -0.45696866
  C -1.08389221 -0.00743521 -0.87264037
  C -1.60985277 -0.11286706 -2.30646240
  F -0.66390603 -0.00334096 -3.25341093
  F -2.50129433  0.85894291 -2.55597096
  F -2.24436910 -1.26023762 -2.58496765
  C -2.18277145 -0.48495288  0.11032142
  C -1.81468091 -0.11889103  1.55883617
  C -0.69853575 -1.11612487  1.92310068
  C -0.48643334 -1.87070378  0.60459670
  C -1.93103953 -1.99944155  0.13288421
  C -0.53915489  1.44534081 -0.64644836
  C -0.10726115  2.11837378 -1.86395029
  N  0.30658421  2.67836474 -2.76757280
  C -1.52880251  2.46647440 -0.01942836
  C -0.83964676  3.60838446  0.65676480
  O -2.71351202  2.35256538 -0.15145797
  N  0.68071428  1.31302168  0.12343224
  C  1.04318401  0.10122980  0.17649277
  C  2.30392950 -0.31310611  0.85811346
  O  2.93835292  0.72407356  1.38777074
  C  4.17462919  0.45281163  2.03713900
  O  2.68587165 -1.45521637  0.91429963
  H  1.28809931 -0.99284342 -2.29044882
  H  1.63148618 -2.27451200 -1.12674150
  H  0.15165340 -2.33391335 -2.09128913
  H -3.17884274 -0.15957363 -0.17999050
  H -1.48351223  0.91157856  1.67572025
  H -2.69102531 -0.24753385  2.19306887
  H -1.02847868 -1.81248982  2.69398089
  H  0.20190115 -0.62427639  2.28849098
  H  0.08447493 -2.78901242  0.70893902
  H -2.56366210 -2.50005802  0.86266212
  H -2.03876694 -2.49868784 -0.82406510
  H -0.42592096  4.25782087 -0.11467376
  H -1.55235989  4.17383516  1.25084979
  H -0.01024554  3.25146412  1.26295411
  H  4.70453082  1.40011693  2.09265257
  H  3.99136534  0.06275147  3.04043365
  H  4.74845336 -0.28184261  1.46936441
