81
opt_min/./Product_3195_opt.xyz
  C -3.66812400  0.00756100  3.41761900
  N -3.14829164  0.17421462  2.08141097
  C -2.20504264 -0.65887875  1.60021540
  O -1.66420352 -1.49897278  2.27367746
  C -1.88854742 -0.39677162  0.09978079
  C -2.72998351 -1.38792587 -0.71135666
  O -3.71540281 -1.91855628 -0.24138632
  N -2.36417200 -1.50931828 -2.00097029
  C -3.10772587 -2.32206980 -2.93278188
  C -0.38304423 -0.31737425 -0.13211713
  C  0.36345571  0.78712476 -0.45559520
  C  0.14300766  2.16723445 -1.18742067
  C  0.61091128  3.37941446 -0.32263245
  O  1.05982419  4.39463346 -0.80539444
  N  0.27472420  3.27239948  0.97239703
  C  0.60959531  4.33234937  1.89845611
  C  0.93947877  2.03093821 -2.51772348
  F  1.21399915  3.19633834 -3.10615696
  F  0.21621819  1.32928359 -3.41875728
  F  2.10431976  1.37221270 -2.48512434
  C -1.18885632  2.84800671 -1.81282655
  C -2.46251872  3.20813517 -1.00877787
  C -3.34280580  1.97777211 -0.67273162
  C -2.20698487  1.02584606 -0.35444419
  C  1.76514346  0.50192627  0.13034993
  C  3.03294083  1.17775692 -0.36099565
  O  2.90336237  2.49726996 -0.21127560
  C  3.98637450  3.29923484 -0.67261787
  O  4.04805179  0.65011832 -0.71617622
  C  1.68062489  0.70719220  1.67597292
  C  2.97866603  0.72886960  2.42064539
  O  0.61103735  0.79753342  2.23947542
  N  1.82553085 -0.94942989  0.29771768
  C  3.02185413 -1.71752722  0.05943306
  C  0.53908861 -1.53213454 -0.04913648
  C  0.68684668 -2.02684415 -1.53364677
  C  1.21489334 -3.40942380 -1.78142462
  O  0.45082159 -1.27753122 -2.45111383
  C  0.17920236 -2.67873227  0.86196161
  C -0.76573681 -3.61782510  0.46039067
  C -1.08560094 -4.68148225  1.28325483
  C -0.45260225 -4.83317828  2.50355871
  C  0.49312979 -3.90682928  2.90403499
  C  0.80758575 -2.83447363  2.09040362
  H -2.90956760 -0.50498969  4.00569725
  H -3.87368885  0.98534297  3.85309707
  H -4.58043541 -0.59255148  3.41833823
  H -3.71818086  0.69595857  1.43844096
  H -1.54229415 -1.03983984 -2.35475622
  H -3.82406945 -2.91314720 -2.36428869
  H -2.43213154 -2.98084350 -3.47876645
  H -3.64880887 -1.69804773 -3.64756701
  H -0.01510756  2.39284713  1.37630222
  H -0.16323003  5.10419885  1.89214975
  H  0.69928577  3.91799685  2.89861843
  H  1.55030316  4.79581620  1.60077139
  H -1.52392222  2.28570048 -2.68574913
  H -0.79499005  3.79770618 -2.18980515
  H -3.01610365  3.92603805 -1.61534112
  H -2.18499995  3.70820395 -0.07952170
  H -4.03362496  2.21725826  0.13356269
  H -3.92530141  1.65638561 -1.53710675
  H -1.74439525  0.96282716 -1.32891230
  H -1.59812617  1.61415791  0.33207947
  H  4.87251543  3.12743323 -0.05908067
  H  3.63541660  4.32463066 -0.59457742
  H  4.21469159  3.05356439 -1.71017340
  H  3.61870186 -0.11423861  2.17866403
  H  2.76451004  0.72640188  3.48796473
  H  3.51575677  1.64194170  2.16363557
  H  2.84197237 -2.73396829  0.40540889
  H  3.32863022 -1.72675867 -0.99049428
  H  3.85310753 -1.30646903  0.62821022
  H  2.11709720 -3.33498184 -2.38778770
  H  1.41115526 -3.96685286 -0.87325763
  H  0.47844956 -3.94817583 -2.37669479
  H -1.27034569 -3.50782978 -0.48724348
  H -1.83818824 -5.38913633  0.96965596
  H -0.70497836 -5.66456902  3.14563179
  H  0.98274413 -4.01044997  3.86114881
  H  1.51700243 -2.09636816  2.42950014
