56
opt_min/./Product_5864_opt.xyz
  C  2.24669400  0.31348200 -1.14878900
  C  0.77566583  0.53586479 -0.84406121
  C  0.01138277 -0.78829767 -0.69116842
  N  0.68983574 -1.68489153  0.20577522
  C  0.04385094 -2.91362201  0.60725767
  C  2.04400761 -1.60573977  0.37223759
  C  2.84832403 -0.73047493 -0.25010093
  C  4.30794472 -0.62487072 -0.10551869
  N  4.94014342 -1.53437492  0.68436935
  O  4.94725282  0.23680117 -0.68598929
  C -1.34616210 -0.23955976 -0.17008423
  C -2.07326513  0.44413125 -1.34969935
  O -2.58422144  1.52650558 -1.24871373
  O -2.08015005 -0.28332318 -2.47144144
  C -2.75134885  0.25657986 -3.60688387
  C -2.34391224 -1.20496329  0.43025577
  C -3.02014325 -2.12837459 -0.36167124
  C -3.95189174 -2.98608644  0.19621658
  C -4.22855045 -2.93290372  1.55070336
  C -3.56074783 -2.01739642  2.34538911
  C -2.62955098 -1.15961316  1.78949513
  N -0.95251537  0.77398938  0.79087634
  C  0.35748092  1.30465156  0.43506721
  C  0.24018248  2.83839427  0.24178924
  N  1.32325484  3.42757526 -0.28345267
  C  1.37372273  4.85210249 -0.51318761
  O -0.74929501  3.43915435  0.60274231
  C  1.32039944  1.26077258  1.62730998
  C  0.63144645  1.23182975  2.95911862
  O  2.51524900  1.36210741  1.50583329
  H  2.84553746  1.21792128 -1.02982352
  H  2.34010789  0.01491976 -2.20108289
  H  0.32686578  1.06851277 -1.69385375
  H -0.14466687 -1.27537400 -1.66805271
  H  0.76209390 -3.73551195  0.59097444
  H -0.37582825 -2.83344272  1.61373245
  H -0.76364057 -3.15957458 -0.08021704
  H  2.42459440 -2.35136463  1.05705523
  H  4.47734311 -2.29652775  1.14207237
  H  5.94561499 -1.49930090  0.70374854
  H -2.02689700  0.35173245 -4.41634047
  H -3.17408073  1.23027870 -3.35657680
  H -3.54321543 -0.43746842 -3.89160393
  H -2.80992008 -2.19019740 -1.41907577
  H -4.46683629 -3.69699058 -0.43407867
  H -4.96113922 -3.60006617  1.98227304
  H -3.76754681 -1.96438735  3.40487830
  H -2.11772986 -0.43961394  2.40579134
  H -1.63932733  1.52929593  0.81228345
  H  2.14948647  2.88057931 -0.46831226
  H  0.79995668  5.35644831  0.26444518
  H  2.40736862  5.18779180 -0.48570542
  H  0.93614774  5.10584737 -1.48306723
  H  1.36509944  1.19941272  3.76023263
  H -0.03831312  0.37944854  3.01681096
  H  0.02339866  2.13271875  3.04699348
