49
opt_min/./Product_2784_opt.xyz
  N -1.97805493  2.09144723  2.21606853
  C -1.50364055  1.80710597  1.21453462
  C -0.90448723  1.66399587 -0.08963596
  C  0.30224380  0.77021407 -0.12107247
  C  1.49444769  1.12773178 -0.64064989
  C  1.76844350  2.14526493 -1.68567384
 Br  2.48685644  1.13930431 -3.28000620
 Br  3.23078308  3.38176266 -1.14418456
  C  0.69034707  3.06183779 -2.27719709
  C -0.49789779  2.40139307 -3.00665369
  C -1.84772260  2.44126244 -2.28298945
  C -1.95366417  1.39006913 -1.18737006
  C  2.58699177  0.24386627 -0.02930066
  C  3.30102477  0.99030241  1.11540759
  C  3.62679892 -0.34468869 -0.99977457
  O  3.54330480 -1.44813904 -1.46269865
  O  4.63591164  0.49944096 -1.20844334
  C  5.67511364  0.08330352 -2.08507523
  N  1.82776685 -0.86478612  0.50207542
  C  0.40730533 -0.62824203  0.44533130
  C -0.10648831 -1.67546985 -0.60001663
  O  0.33366633 -2.86432852 -0.25843541
  C  0.12576885 -3.95037440 -1.15602787
  O -0.76635541 -1.42063937 -1.57443709
  C -0.26583815 -1.07456382  1.76307584
  C -1.75838412 -1.20461114  1.77323818
  O  0.43461693 -1.43119594  2.67424609
  H -0.51339466  2.67845503 -0.24252073
  H  1.22681285  3.65644238 -3.02392391
  H  0.35048661  3.77849828 -1.52468756
  H -0.62474824  2.93823709 -3.94841823
  H -0.26221845  1.36645231 -3.25768207
  H -2.02154726  3.43976855 -1.87330806
  H -2.63072798  2.24738050 -3.01803072
  H -2.95449101  1.37758650 -0.75102972
  H -1.76329332  0.40840071 -1.61934474
  H  4.05897984  1.67836528  0.75928338
  H  3.78845911  0.25279374  1.75106065
  H  2.57324511  1.53358112  1.71705982
  H  5.34092180 -0.76840591 -2.67993197
  H  6.54777712 -0.19381695 -1.49288544
  H  5.91169119  0.92785988 -2.73040895
  H  2.13768899 -1.21403265  1.40092117
  H  1.10570371 -4.34167966 -1.42635872
  H -0.45329236 -4.71380670 -0.63641967
  H -0.40581910 -3.60939187 -2.04539854
  H -2.21491904 -0.25249278  2.03103841
  H -2.13629302 -1.50773752  0.79953584
  H -2.04386804 -1.92942520  2.53223267
