29
opt_min/./Product_206_opt.xyz
  C -3.00372900  0.07676500  1.32932400
  O -2.30084497  0.72166981  0.28504326
  C -1.00674229  0.43170959  0.07441560
  C -0.12409666 -0.40571925  0.67604399
 Cl -0.41197675 -1.43876181  2.02038972
  C  1.21138779 -0.27455280 -0.03707645
  C  2.35881399  0.28161586  0.86966425
  C  2.80338736 -0.56590956  2.02601845
  O  2.84155155  1.34793949  0.63636043
  C  1.66339862 -1.58657312 -0.75899991
  C  1.82718400 -2.82994760  0.06816809
  O  1.85144025 -1.58701231 -1.93784517
  N  0.96561506  0.69667539 -1.04913692
  C -0.25047712  1.09131657 -1.00335673
  C -0.74281642  2.11231938 -1.97979772
  C -2.19643970  2.47620402 -1.87936579
  O  0.00123861  2.60512542 -2.78498902
  H -4.01676356  0.47612726  1.28310743
  H -2.57165263  0.30720799  2.30618715
  H -3.03643006 -1.00550771  1.18493012
  H  3.38041925  0.06693064  2.69732176
  H  3.45073370 -1.36081290  1.66442709
  H  1.97157863 -1.00788600  2.56383529
  H  1.43455502 -2.76672061  1.07327772
  H  1.33572460 -3.64499981 -0.46308351
  H  2.88764206 -3.07798179  0.10450793
  H -2.43817704  3.19915722 -2.65428574
  H -2.40099355  2.90521007 -0.90050780
  H -2.81855325  1.59089090 -1.98637935
