47
opt_min/./Product_4661_opt.xyz
  C  4.03714096  0.54707153  1.12231495
  C  2.77083873  0.54568947  0.31526404
  C  2.91038382  0.83443652 -1.15261913
  C  1.60088369  0.35615189  0.91371154
  C  0.24289324  0.37486279  0.28049624
  C -0.30644927 -1.06046068  0.09313071
  C -0.14288229 -1.65370381 -1.28079454
  C -0.35072240 -0.80019479 -2.49951812
  C  0.19232315 -2.93002221 -1.40808357
  C -1.76400303 -1.01980708  0.63850111
  C -2.81620793 -0.62517140 -0.40696925
  C -2.13328707 -2.37980269  1.22951306
  N -1.61990295 -0.03297494  1.69686664
  C -2.72175494  0.25113838  2.59463276
  C -0.80378725  1.05843723  1.20618459
  C -1.57173222  2.21099588  0.50464812
  O -0.92045182  2.68495079 -0.56261491
  C -1.51406012  3.80837808 -1.20269342
  O -2.61001871  2.67799343  0.89204000
  C -0.20758520  1.73432328  2.34917388
  N  0.19344267  2.27841598  3.27110088
  H  4.22797251  1.55073121  1.50349832
  H  4.89084632  0.24797595  0.51879308
  H  3.95899338 -0.12211835  1.97494263
  H  3.95597392  0.84198282 -1.44792533
  H  2.39812198  0.07598132 -1.73989398
  H  2.48192007  1.80711508 -1.39534975
  H  1.59419500  0.14529531  1.97721211
  H  0.26499865  0.90105869 -0.67040272
  H  0.23882948 -1.70303211  0.79284586
  H -1.23505270 -0.17635470 -2.41943963
  H  0.50188911 -0.13995947 -2.65528059
  H -0.44549097 -1.42987789 -3.38103159
  H  0.37681042 -3.56339097 -0.55692127
  H  0.30009474 -3.40068542 -2.37081690
  H -3.80073920 -0.59965649  0.05547943
  H -2.61791411  0.36354559 -0.81399560
  H -2.84160118 -1.35436724 -1.21244190
  H -3.14829705 -2.37923362  1.61734011
  H -1.45636958 -2.63288179  2.04129004
  H -2.06094721 -3.14104916  0.45655518
  H -2.95941481  1.31216263  2.61824100
  H -2.45238377 -0.06719077  3.60679005
  H -3.61909226 -0.28487925  2.29129178
  H -1.59198178  4.64146836 -0.50195110
  H -0.86076094  4.06365420 -2.03275457
  H -2.51394652  3.55641009 -1.56156018
