49
opt_min/./Product_5150_opt.xyz
  C  1.14156600 -0.20740100  2.64129500
  C  0.38417150 -0.41613134  1.32487485
  C -1.03951135  0.17338375  1.30522448
  C -2.04037434 -0.86516181  1.80559813
  C -1.24631888  0.65346758 -0.16830277
  C -1.51180881  2.17742202 -0.27284981
  C -2.37307259 -0.09782315 -0.86351967
  C -3.69903291  0.19976545 -0.56611269
  C -4.72855097 -0.48208754 -1.18699442
  C -4.45029664 -1.46690255 -2.11850666
  C -3.13394160 -1.77059556 -2.41776511
  C -2.10199064 -1.09377412 -1.79036359
  O -0.03307262  0.35092035 -0.84751850
  C  1.05337194  0.13380684  0.04780673
  C  1.83959697  1.46897747  0.18208331
  N  1.36403470  2.34428775  1.09073870
  C  1.93874055  3.65451837  1.27142974
  O  2.80070364  1.71032406 -0.51516711
  C  1.99906768 -0.85226776 -0.61380483
  C  2.11802690 -0.83007686 -1.99735908
  C  2.98067400 -1.69835685 -2.64128048
  C  3.74261498 -2.59116623 -1.90876801
  C  3.63938522 -2.60623572 -0.52946075
  C  2.77388688 -1.74105348  0.11791580
  H  1.32408076 -1.16125320  3.13270242
  H  2.10325819  0.27343242  2.47438895
  H  0.57008128  0.40780717  3.33500951
  H  0.27357516 -1.49238638  1.14664873
  H -1.11395850  1.03808242  1.97428491
  H -3.03293892 -0.43511543  1.91971027
  H -1.71655139 -1.23272909  2.77835685
  H -2.10936141 -1.70574129  1.11888908
  H -1.71217400  2.63609301  0.69369589
  H -0.63761915  2.65260618 -0.71390645
  H -2.35824751  2.37497553 -0.92481749
  H -3.93214298  0.96895670  0.15719545
  H -5.75394068 -0.24040279 -0.94477145
  H -5.25675970 -1.99494508 -2.60567319
  H -2.90623618 -2.53720600 -3.14310036
  H -1.07492889 -1.33109395 -2.01885343
  H  0.55078002  2.11610748  1.63422556
  H  2.77759375  3.74159098  0.58125333
  H  2.30302566  3.77284483  2.29460171
  H  1.20403042  4.43356192  1.05735612
  H  1.52728845 -0.12679698 -2.56207690
  H  3.06271384 -1.67212855 -3.71826093
  H  4.41944472 -3.26936627 -2.40811713
  H  4.23917961 -3.29332091  0.05130775
  H  2.71948306 -1.76016010  1.19422027
