44
opt_min/./Product_812_opt.xyz
  C  4.94000700 -0.42779900  0.17940900
  N  3.50321221 -0.36906706  0.08851614
  C  2.81207913  0.77937916  0.26295136
  O  3.36093303  1.84517357  0.48386279
  C  1.34049500  0.64220187  0.16245607
  C  0.61532143 -0.46633099 -0.05701914
  O  1.10530553 -1.72293964 -0.19162660
  C  0.45359034 -2.62752519 -1.07019217
  C -0.87499119 -0.15100295  0.04478528
  C -1.75276784 -0.64302887 -1.10903214
  O -1.23221394 -0.26105506 -2.27257754
  C -2.01494202 -0.51710699 -3.43374672
  O -2.79867429 -1.22222691 -0.99049618
  C -1.35803329 -0.78909482  1.37175411
  O -1.61402225 -0.17287201  2.36956504
  O -1.41361137 -2.11010165  1.26407003
  C -1.87114832 -2.84314578  2.39671110
  N -0.87438432  1.29045751 -0.00300138
  C -2.07160497  1.98990135  0.40065696
  C  0.43382491  1.83972965  0.36245027
  C  0.53206494  2.32860710  1.81498010
  C  0.78399085  2.97508851 -0.60190057
  H  5.35673496 -0.90995000 -0.70560933
  H  5.30757338  0.59418632  0.24458780
  H  5.25706428 -0.97841679  1.06723855
  H  2.98372425 -1.22218241 -0.03681214
  H  1.04709336 -3.53913467 -1.03301048
  H  0.44739022 -2.24055339 -2.09156669
  H -0.56078985 -2.84816846 -0.73994819
  H -2.42146881 -1.53005211 -3.40488055
  H -2.84026710  0.19294495 -3.49214577
  H -1.35137575 -0.39025281 -4.28370017
  H -1.68092872 -2.27928762  3.30980182
  H -1.32842018 -3.78472670  2.40420542
  H -2.94114547 -3.02588326  2.29563533
  H -2.00145026  3.01733670  0.05114302
  H -2.24148646  1.98770817  1.48063736
  H -2.92857516  1.52226294 -0.08212828
  H  0.15875820  1.57071759  2.49637187
  H -0.04975803  3.23670218  1.94691139
  H  1.56962981  2.54355744  2.04744605
  H  0.15838753  3.84076564 -0.41081770
  H  1.82140195  3.25473048 -0.46357167
  H  0.62848407  2.64543166 -1.62456505
