52
opt_min/./Product_1934_opt.xyz
  C  4.05363098 -1.69545207 -2.08049098
  N  3.35671447 -1.17708602 -0.92423163
  C  2.37715177 -0.25535509 -1.05410386
  O  2.01067034  0.16420929 -2.12315031
  C  1.73488141  0.20706106  0.29040455
  O  2.57702180  1.12163249  1.02143503
  C  3.90076660  1.35071778  0.60285211
  C  0.55105930  1.06082916 -0.10301418
  C -0.74592367  0.91369393 -0.41565427
  C -1.77920471 -0.18004909 -0.38727581
  C -2.38816985 -0.20216294 -1.83374243
  C -3.87958274 -0.23581780 -1.98589109
  O -1.63955045 -0.23536839 -2.76817556
  C -2.80784166  0.16195669  0.69557551
  C -3.85009498 -0.86311646  1.06246955
  O -2.77292344  1.22890595  1.25807888
  C -1.17660276 -1.59420134 -0.24121701
  C -0.82962464 -2.02533763  1.18292457
  C  0.11154781 -1.07013053  1.90794120
  C  1.47598171 -1.00387085  1.21713382
  N -1.21528805  2.17394413 -0.84473105
  C -2.40389930  2.56435030 -1.19539454
  N -3.46876550  2.88891625 -1.49108393
  O -0.09412396  3.04203643 -1.02173866
  N  0.98721156  2.38520482 -0.38554274
  C  1.46529067  3.18525663  0.75145844
  C  0.65450896  3.08875460  2.01234170
  O  2.36221907  3.95034469  0.57127899
  H  3.94472432 -0.97654464 -2.89104841
  H  5.10705086 -1.83647999 -1.84781245
  H  3.62071827 -2.64626861 -2.40048927
  H  3.66436173 -1.48332481 -0.01685150
  H  3.94370414  1.71795918 -0.42555039
  H  4.26995068  2.13138194  1.26651635
  H  4.53149961  0.46246084  0.71049710
  H -4.11706016 -0.13043791 -3.04182272
  H -4.33956492  0.57837052 -1.43261620
  H -4.27939318 -1.18094087 -1.62809479
  H -3.82897258 -1.75614511  0.45019419
  H -4.82950338 -0.39170726  1.00652295
  H -3.69971667 -1.13600287  2.10644951
  H -0.28886893 -1.62616537 -0.87561676
  H -1.88658569 -2.31611474 -0.65225861
  H -1.73622941 -2.15160002  1.77162116
  H -0.35060378 -3.00600206  1.12134403
  H -0.33801323 -0.08086253  1.97293286
  H  0.24830576 -1.43243706  2.92790131
  H  1.61092308 -1.92899181  0.65454907
  H  2.25139370 -0.95802069  1.98532875
  H  1.22199883  3.48833768  2.84649696
  H  0.34972077  2.06722556  2.21830070
  H -0.24179260  3.69575782  1.87311444
