40
opt_min/./Product_4150_opt.xyz
  C -1.12177700  2.68417800  1.42552600
  C -0.43846265  1.99254030  0.24258582
  C  0.99268608  2.50428024  0.09687231
  C -0.59988702  0.43963621  0.34130410
  C  0.65725029 -0.30272170  0.02184420
  C  1.32397286 -1.00967470  0.93677268
  C  2.53666009 -1.78413015  0.74857453
  C  3.25542617 -1.77050466 -0.57306448
  C  3.00402219 -2.52173846  1.75880772
  C -1.72249026  0.20565342 -0.71711685
  C -1.45770623 -0.98540512 -1.66903499
  N -1.25823669 -2.12733498 -0.98661757
  C -0.93816953 -3.37352406 -1.63794213
  O -1.45174477 -0.88694853 -2.87111997
  C -3.07121685 -0.16078662 -0.09934186
  C -4.25616828  0.22133034 -0.92504673
  O -3.12276038 -0.77419260  0.93987965
  N -1.83981767  1.46125682 -1.43458752
  N -1.18962312  2.35839241 -0.95127078
  H -0.55692130  2.49551228  2.33524273
  H -1.16340408  3.75667173  1.25471278
  H -2.13836095  2.31421594  1.55099178
  H  1.56090676  2.30278192  1.00121800
  H  1.49706491  2.04588805 -0.74709277
  H  0.96669028  3.57766360 -0.07420967
  H -0.95495756  0.16170525  1.33642000
  H  0.98524992 -0.24688895 -1.00303993
  H  0.92464601 -1.03532192  1.94427439
  H  4.30683334 -1.53334400 -0.41637561
  H  2.84460128 -1.03714385 -1.25699857
  H  3.20699878 -2.74949794 -1.04388792
  H  2.51117466 -2.55834985  2.71678071
  H  3.89367049 -3.11813846  1.65656891
  H -1.35740358 -2.13261045  0.01793867
  H -0.88151384 -3.18357087 -2.70758902
  H  0.02121307 -3.75008337 -1.28107298
  H -1.71102634 -4.11924002 -1.44435720
  H -4.22248479  1.28077006 -1.16843000
  H -5.17510216 -0.03803767 -0.40885079
  H -4.19398810 -0.32030375 -1.86896381
