44
opt_min/./Product_1574_opt.xyz
  C -5.21379320 -1.60131042 -1.95140496
  N -3.80832167 -1.56970220 -1.61473690
  C -2.88897818 -1.24069808 -2.54822200
  O -3.16662511 -1.00495665 -3.70247171
  C -1.48804270 -1.20881434 -2.05119644
  C -0.43783757 -0.57571898 -2.58496096
  C -0.36545553  0.34817399 -3.75278770
  F  0.80805874  1.01488288 -3.75960514
  F -1.31725883  1.29383374 -3.72576546
  F -0.45028430 -0.27518279 -4.92827707
  C  0.71644561 -0.80461768 -1.62501846
  C  0.34104357  0.14758427 -0.43863516
  C -0.74431726 -0.69432289  0.24478173
  C -0.92650571 -1.84797352 -0.78557485
  O  0.42033073 -2.09751872 -1.13620953
  C -0.05342867 -1.24679486  1.51533396
  C -0.96517982 -1.28619486  2.63508909
  N -1.72355737 -1.36353188  3.48570746
  N  1.16761053 -0.48927315  1.72604370
  C  1.44790877 -0.06549312  3.07940030
  C  1.40341884  0.45158238  0.64104099
  C  1.07879205  1.90337595  1.05893861
  O  1.83863076  2.78910289  0.42020744
  C  1.57901441  4.16405796  0.68237613
  O  0.19836951  2.19971845  1.82289429
  C  2.84547642  0.30641777  0.16241033
  H -5.34752223 -2.17801208 -2.86701165
  H -5.58992900 -0.59009762 -2.13097796
  H -5.77233187 -2.05418125 -1.13693747
  H -3.54369191 -1.71160310 -0.65383117
  H  1.72274842 -0.73887508 -2.01939330
  H -0.03735531  1.08386197 -0.86082742
  H -1.64958634 -0.13415529  0.47060567
  H -1.41327415 -2.74867584 -0.42023520
  H  0.24632046 -2.29666011  1.31843872
  H  2.35243669  0.54202784  3.07172910
  H  1.62573696 -0.95586114  3.68787220
  H  0.63877141  0.52043143  3.53335792
  H  0.50380160  4.33024157  0.77890414
  H  2.07172639  4.46310681  1.61136313
  H  1.98817441  4.71906366 -0.15975889
  H  3.03984440 -0.74105216 -0.06300111
  H  3.52654676  0.61952457  0.94998110
  H  3.02591290  0.91802289 -0.71830942
