35
opt_min/./Product_3701_opt.xyz
  N  0.01187607 -0.76923451 -0.87247446
  C -1.14157608 -0.00104338 -0.46242066
  N -1.65342360  0.60046026 -1.65994437
  N -2.13677460 -0.82775868  0.25773802
  C -3.28724113 -1.32350075 -0.46673708
  C -0.66819411  1.14728189  0.52051839
  C -1.62083938  2.35105259  0.48499502
  C -0.58898437  0.63146167  1.96157975
  N  0.65658129  1.62247893  0.13700310
  C  1.36911016  1.22785523 -0.97539253
  C  2.67836756  0.57910538 -0.91180589
  N  3.12320289  0.23781214  0.33786650
  C  4.41187964 -0.36647197  0.54779481
  O  3.33260565  0.32101388 -1.91298536
  C  0.92675935  1.65093292 -2.22815981
  N  0.59213235  2.06418590 -3.25190207
  H -0.06184754 -1.08488830 -1.82774751
  H  0.31468766 -1.49599853 -0.24124095
  H -2.45930774  1.18320661 -1.47885775
  H -1.93384617 -0.10697500 -2.32982197
  H -1.66296253 -1.59332485  0.72344003
  H -3.94224385 -1.82156592  0.24812311
  H -3.83871170 -0.48858725 -0.89874191
  H -3.05035258 -2.04066777 -1.26866723
  H -1.30448303  3.08000621  1.22782676
  H -2.64116743  2.04570079  0.70868370
  H -1.58167409  2.82223167 -0.49009074
  H -1.50315330  0.10464917  2.21924281
  H  0.25149088 -0.05047725  2.09164420
  H -0.47265731  1.46774073  2.64901664
  H  1.21867503  1.82431892  0.95545659
  H  2.60584824  0.51206632  1.15716923
  H  4.33208151 -1.21494021  1.22967937
  H  4.77331698 -0.72010882 -0.41750103
  H  5.12797822  0.35544437  0.95496765
