28
opt_min/./Product_3945_opt.xyz
  O  0.22098100 -2.90039100 -0.11585700
  C -0.17314924 -3.35062350 -1.09130712
  O -0.56178309 -3.80775025 -2.06174368
  C -1.32387786 -0.55989051 -1.66654326
  C -2.12419024 -0.23668510 -0.65695716
  C -5.14928394  0.94794551 -1.01539422
  O -4.49992256  1.64512060 -1.64999691
  O -5.81423655  0.22780962 -0.42786504
  N -1.63047814  0.85555548  0.04644829
  C -2.39982473  1.69967194  0.79648604
  C -1.68037900  2.92466820  1.28736575
  O -3.54907064  1.41261878  1.06853451
  N -0.35530723  1.22357570 -0.47514718
  C -0.14272683  0.38910962 -1.66020884
  C  1.16512481 -0.39362768 -1.65345535
  O  1.80479662 -0.30264714 -0.48677602
  C  3.03579656 -1.00795938 -0.38036327
  O  1.55882797 -1.03690701 -2.58879011
  H -1.44168851 -1.33902719 -2.38896915
  H -3.06870631 -0.64518027 -0.35671446
  H -1.03454475  3.31839887  0.50736466
  H -2.40973581  3.66838001  1.59375867
  H -1.06931070  2.65778483  2.14829284
  H  0.34839827  0.99195850  0.22868307
  H -0.15304185  1.01190305 -2.56774911
  H  3.49319411 -0.68159560  0.55003966
  H  3.67812892 -0.77443539 -1.23111816
  H  2.85060698 -2.08305155 -0.35723659
