44
opt_min/./Product_1029_opt.xyz
  C  1.82043000  1.15143300  0.47534800
  C  2.12250289 -0.33845319  0.23418199
  C  1.27092213 -0.59221960 -1.04619400
  O  1.37777866  0.63682416 -1.73859602
  C  0.84520977  1.44631100 -0.71315223
  C -0.44870795  0.72674211 -0.36150653
  C -1.65609209  1.38627233  0.09687625
  C -1.57766279  2.58192671  0.81196821
  C -2.72600548  3.21566823  1.24853174
  C -3.96932569  2.67465478  0.96774651
  C -4.05866770  1.49579654  0.24461102
  C -2.91508785  0.85425753 -0.18799207
  C -0.17142767 -0.57598556 -0.56045931
  C -0.96142136 -1.76985674 -0.30088771
  C -1.69406409 -1.87854453  0.88252027
  C -2.44206298 -3.01080601  1.13870961
  C -2.47058879 -4.04876171  0.22044494
  C -1.74313690 -3.95076170 -0.95348109
  C -0.98690293 -2.82223650 -1.21270463
  C  3.64871202 -0.36911954 -0.04119840
  C  4.40440477 -1.15604655  1.03186137
  C  4.36201997 -0.57162824  2.41731632
  O  4.99774054 -2.16757447  0.76693680
  N  4.10362756  1.00015517 -0.05019534
  C  3.16274805  1.78147437  0.24949893
  H  1.37516984  1.40883674  1.43619565
  H  1.83044552 -1.02034614  1.03209606
  H  1.59040677 -1.43480967 -1.65094818
  H  0.77285094  2.48873400 -1.00924445
  H -0.61159949  3.01138296  1.03468127
  H -2.65246470  4.13628123  1.80889649
  H -4.86420136  3.17486919  1.30701458
  H -5.02646400  1.07567486  0.01333847
  H -2.98781209 -0.05704663 -0.76118894
  H -1.66694458 -1.06621238  1.59399090
  H -3.00405323 -3.08588079  2.05799437
  H -3.05807958 -4.93196729  0.42274095
  H -1.76359632 -4.75719901 -1.67177300
  H -0.42887421 -2.74375610 -2.13398681
  H  3.88387791 -0.82743312 -1.00680315
  H  3.54217391  0.12633325  2.54930410
  H  4.30771426 -1.36935806  3.15435010
  H  5.29995141 -0.03824928  2.57069933
  H  3.32728798  2.84588908  0.29394950
