29
opt_min/./Product_176_opt.xyz
  N -5.10900405  1.38901999 -1.49629581
  C -4.06776349  1.39372505 -1.01463532
  C -2.79384538  1.36369365 -0.44636849
  C -1.89184847  2.33372892 -0.22658283
  F -1.94434199  3.61942265 -0.52047676
  C -0.66371898  1.65851400  0.32981278
  C -0.01841617  0.92438123 -0.90053350
  C -1.03795524 -0.20310854 -1.13366898
  C -2.06475379  0.10058323  0.00562390
  O -1.23643998  0.58008804  1.04199944
  C -0.20306191 -1.43025673 -0.83192388
  C -0.73320071 -2.81220933 -0.89659534
  N  0.98787373 -1.14035518 -0.47807612
  N  1.17691426  0.19923272 -0.51667826
  C  2.35552855  0.82557309 -0.14312480
  O  2.43722500  2.03711621 -0.14756398
  N  3.33893207 -0.03489038  0.18321814
  C  4.64332528  0.41163081  0.59765242
  H  0.02459436  2.24417378  0.92839885
  H  0.19466093  1.61137965 -1.72029208
  H -1.51002773 -0.24843077 -2.11427094
  H -2.67613907 -0.73363277  0.33429110
  H -1.25387773 -3.05791860  0.02932983
  H  0.08479808 -3.51564589 -1.02513182
  H -1.43365124 -2.91224091 -1.72305016
  H  3.12554522 -1.01995780  0.16053609
  H  5.41374698  0.03398811 -0.07762865
  H  4.86300743  0.07870712  1.61439647
  H  4.63930049  1.50020826  0.56733739
