61
opt_min/./Product_5947_opt.xyz
  C  0.56806600 -1.94713100 -1.30490000
  O  0.40406063 -2.90447528 -2.03858661
  C  1.65839006 -1.90883220 -0.32941896
  O  2.38599544 -3.05228793 -0.12820065
  C  3.16833498 -3.50049674 -1.22528469
  C  1.91439264 -0.82884873  0.46969130
  O  2.91621394 -0.96283995  1.35143837
  C  3.21035355  0.02192168  2.32138399
  C  1.08901673  0.40178719  0.37608705
  O  1.13662129  1.27041508  1.21841449
  C  0.33230488  0.56667461 -0.93996051
  C  1.41609785  1.04768139 -1.91835502
  C -0.35940866 -0.74153326 -1.37105979
  C -0.92189333 -0.65090443 -2.79556702
  C -1.50401727 -0.79432928 -0.30443202
  C -2.75511237 -1.56144536 -0.75668102
  C -1.02502020 -1.40587280  1.00760090
  C -0.89339851 -0.63769170  2.15429437
  C -0.45538253 -1.20782048  3.33921677
  C -0.15735009 -2.55539252  3.39508850
  C -0.32336400 -3.33812897  2.26322740
  C -0.76184031 -2.77153905  1.08264290
  O -1.85836880  0.57647866 -0.11846997
  C -0.91880456  1.46178696 -0.71408281
  C -1.52992781  2.12362036 -1.96900956
  C -3.03005776  2.24369504 -1.94540759
  O -0.86248802  2.61138858 -2.84779204
  C -0.74572873  2.71276250  0.13960506
  C  0.18284478  3.68846101 -0.20563693
  C  0.29358530  4.84017954  0.54953335
  C -0.53282972  5.04437137  1.64189984
  C -1.48344262  4.09326204  1.96544638
  C -1.59958790  2.93938897  1.21146673
  H  3.67060605 -4.39919174 -0.87456810
  H  2.54860935 -3.73986812 -2.09134243
  H  3.91439655 -2.74751068 -1.49999307
  H  4.08303344 -0.36415105  2.84709718
  H  3.44880057  0.98665550  1.86859979
  H  2.38255756  0.15220548  3.02014835
  H  1.91567668  0.18697382 -2.35746323
  H  0.98999088  1.65991273 -2.70736173
  H  2.16198003  1.64419666 -1.39580981
  H -0.30197750 -0.01648073 -3.42095870
  H -0.93536327 -1.64672129 -3.23480429
  H -1.93216707 -0.25868617 -2.80953578
  H -3.39580882 -0.92276727 -1.35695131
  H -3.32025226 -1.87730441  0.11632422
  H -2.47520103 -2.43759829 -1.33268762
  H -1.11371639  0.41715838  2.12148281
  H -0.34933449 -0.58754902  4.21743026
  H  0.19304843 -3.00019364  4.31463861
  H -0.10973974 -4.39523771  2.29964987
  H -0.89786379 -3.40020569  0.21706704
  H -3.44799343  1.61012814 -2.72619565
  H -3.29935793  3.27064196 -2.18314311
  H -3.43798686  1.95395223 -0.98377399
  H  0.81474218  3.55338672 -1.06802232
  H  1.02606502  5.58631459  0.27850584
  H -0.44256168  5.94518489  2.23041742
  H -2.14419918  4.24958838  2.80568842
  H -2.35148853  2.20567853  1.45699186
