29
opt_min/./Product_179_opt.xyz
  N  0.03605790 -2.42530725  1.59027864
  C -0.18308491 -1.55982478  0.87342107
  C -0.46923215 -0.48417609 -0.02880103
  C -1.41171312  0.63504250  0.49146199
  F -1.85317855  0.51188449  1.78499752
  C -2.60921926  0.52177467 -0.52261385
  C -3.28887506 -0.77417588 -0.14544320
  C -2.49914853 -1.72895633 -0.61922291
  C -1.34275939 -1.00344932 -1.26051722
  O -1.92604314  0.19611261 -1.70873917
  C -0.57087938  1.87542147  0.25520994
  C -1.03310697  3.23012311  0.64086823
  N  0.53165152  1.60083168 -0.31773436
  N  0.68796698  0.27736925 -0.49746100
  C  1.93030568 -0.23491066 -0.98081474
  O  2.40207314  0.17488939 -2.00748698
  N  2.48255676 -1.17801762 -0.19163315
  C  3.64861765 -1.92229243 -0.61427982
  H -3.21091169  1.41963834 -0.62475446
  H -4.18221334 -0.83390050  0.44208719
  H -2.55152415 -2.79411626 -0.49845019
  H -0.76629561 -1.48410845 -2.04294029
  H -0.38822302  3.64663391  1.41458735
  H -2.04580374  3.18208888  1.03634862
  H -1.00736080  3.89764235 -0.21886313
  H  2.06352078 -1.43463449  0.68863071
  H  3.99588455 -1.48608492 -1.55101849
  H  4.43051731 -1.85398306  0.14328549
  H  3.38813472 -2.97148895 -0.77219611
