45
opt_min/./Product_5408_opt.xyz
  C -1.69341700  1.66468300 -0.69570600
  C -1.03712929  2.94604651 -1.09592585
  C  0.27696791  3.01012334 -1.29014470
  N  1.14466373  1.98492869 -1.01067505
  C  2.55371232  2.13177887 -1.26813750
  C  0.75224547  0.90207350 -0.17420084
  C -0.76093982  0.77023312  0.14801043
  C -0.95763238  1.10299280  1.64611042
  N -2.20326051  0.96383125  2.11057709
  O -0.04533382  1.49975784  2.34339157
  C -0.98242458 -0.74108775 -0.22090531
  C -2.26130889 -1.49742319  0.17091405
  N -2.12091977 -2.81429248  0.00329300
  C -3.21879810 -3.73699122  0.16688319
  O -3.28394606 -0.95754640  0.54735940
  O -0.95500947 -0.81204772 -1.65858168
  C  0.33763022 -0.64472250 -2.02812960
  O  0.70398939 -0.55679080 -3.15336312
  C  1.10272683 -0.55274230 -0.71269579
  C  2.57248582 -0.89057382 -0.77778163
  O  3.19775792 -1.06691720 -1.78478504
  O  3.09637963 -0.96985258  0.44997288
  C  4.48203528 -1.27938816  0.53620194
  N  0.25506474 -1.42791360  0.10431534
  C  0.55324514 -1.65711584  1.50505919
  H -1.96702073  1.11656218 -1.60482469
  H -2.61898180  1.85427786 -0.15147827
  H -1.66672692  3.79280941 -1.30246953
  H  0.75192802  3.90882245 -1.65338438
  H  3.13394517  1.81253533 -0.39712381
  H  2.78399497  3.17798667 -1.46384909
  H  2.85901848  1.53564375 -2.13273455
  H  1.29251334  0.98742016  0.78534970
  H -2.37224661  1.18004918  3.07898829
  H -2.92957581  0.50294893  1.57531785
  H -1.25059674 -3.15800934 -0.37511201
  H -3.92683547 -3.30513011  0.87262711
  H -3.73264608 -3.90591346 -0.78185623
  H -2.84555827 -4.68470250  0.54898432
  H  5.06896085 -0.36033298  0.48734452
  H  4.63330682 -1.76899095  1.49507831
  H  4.77316971 -1.93385395 -0.28710739
  H  1.30384092 -2.44327942  1.56771968
  H  0.91802414 -0.77654080  2.03526462
  H -0.35989577 -2.00024355  1.98990563
