48
opt_min/./Product_1221_opt.xyz
  C -4.15168014 -1.36418798  2.44891953
  O -3.16843130 -0.57595451  1.79364759
  C -2.16169911 -1.24324350  1.21492168
  O -2.06793053 -2.43869679  1.22739017
  C -1.22155805 -0.24210785  0.55992959
  C -0.04015322 -0.78362756 -0.28798617
  F -0.00685452 -2.15952573 -0.34279630
  C -0.31539997 -0.18338262 -1.68305351
  C -1.52548869 -0.91850043 -2.27018500
  C -2.70298441 -0.37371524 -1.43744539
  C -2.02297696  0.59857386 -0.46292889
  C -0.91927049  1.17804383 -1.34277917
  C  1.24508772 -0.27237845  0.40991142
  C  2.46957108 -0.25386882 -0.48681353
  C  3.57441823  0.56274394 -0.27105539
  C  4.68569166  0.50114104 -1.09561477
  C  4.73804138 -0.39716028 -2.14384077
  C  3.67531244 -1.26031746 -2.33189279
  C  2.56292780 -1.19562038 -1.51178352
  N  0.75891418  0.97163634  1.01329801
  C  1.62175416  1.79511240  1.83060208
  C -0.50544638  0.60774416  1.65355778
  C -0.33913072 -0.17347660  2.99195755
  C -1.27018482  1.80471599  1.95504073
  N -1.86985229  2.73554369  2.23796396
  H -4.51551039 -2.14866253  1.78073360
  H -4.95200308 -0.68169279  2.72248315
  H -3.72697299 -1.83295931  3.33950872
  H  0.55659940 -0.16585862 -2.33144394
  H -1.42830138 -2.00015837 -2.18342286
  H -1.63797157 -0.67346541 -3.32680390
  H -3.42332188  0.15707201 -2.06062675
  H -3.23849281 -1.17174924 -0.92249555
  H -2.70352114  1.30310718  0.00884385
  H -0.23795818  1.83501726 -0.81179122
  H -1.31256437  1.68367263 -2.22521196
  H  1.48944330 -1.00583396  1.20962356
  H  3.59981763  1.25516392  0.54955689
  H  5.52118731  1.16010093 -0.90394425
  H  5.60231001 -0.43765485 -2.79137036
  H  3.70663506 -1.99871905 -3.11980591
  H  1.77671862 -1.91463601 -1.66781910
  H  0.99144988  2.43472935  2.45193459
  H  2.20799934  2.44608709  1.18288435
  H  2.29690603  1.22526749  2.48362747
  H -1.08133243  0.15607607  3.71761906
  H  0.65080392  0.01697017  3.40247131
  H -0.44382054 -1.24445165  2.83664752
