44
opt_min/./Product_4475_opt.xyz
  C  2.92369800 -0.39245300  1.05918600
  C  2.56043303 -0.16639219 -0.37752925
  C  3.65343298 -0.42359732 -1.36894679
  C  1.35039831  0.22224625 -0.77105863
  C  0.20020988  0.49389151  0.13723316
  C -0.58996085  1.76482826 -0.26080984
  C -0.39457365  2.92496376  0.68245509
  C  0.23720555  4.14156587  0.08514528
  C -0.77362522  2.84667416  1.94935892
  O -1.96869886  1.36871286 -0.25133694
  N -2.03685045  0.00156938 -0.63443696
  C -2.05166781 -0.08993493 -2.08417559
  C -0.93993958 -0.59857982  0.10946267
  C -1.39266839 -0.77847311  1.59749428
  N -2.64013841 -0.35939318  1.85220815
  C -3.24401084 -0.47933436  3.15450278
  O -0.65043673 -1.24680417  2.43182724
  C -0.44828948 -1.98866435 -0.24217628
  C -1.37467147 -2.90856085 -0.99617711
  O  0.60912190 -2.37751788  0.17988928
  H  3.95701509 -0.71337969  1.14266698
  H  2.79713593  0.51922482  1.64226786
  H  2.28113787 -1.15798239  1.48789710
  H  3.34035065 -0.18936966 -2.38233749
  H  3.94211211 -1.47304894 -1.32616847
  H  4.52998027  0.17248982 -1.12259873
  H  1.15925985  0.36950408 -1.82717416
  H  0.55902949  0.57656829  1.16296272
  H -0.31475893  2.06663308 -1.28157769
  H -0.37670424  4.52148692 -0.73081557
  H  1.21623388  3.89144785 -0.32105942
  H  0.35345105  4.92262018  0.82959785
  H -0.64445041  3.67033616  2.62796176
  H -1.22718451  1.95653289  2.34746713
  H -2.50577093 -1.02822966 -2.38474948
  H -2.69063604  0.71845327 -2.43684807
  H -1.06562953  0.00745937 -2.54797433
  H -3.15725062  0.08248758  1.10528597
  H -4.08886271 -1.16966227  3.12402976
  H -2.48846185 -0.86582185  3.83622832
  H -3.59090975  0.49189664  3.50737210
  H -2.39605941 -2.80332697 -0.64264900
  H -1.03644583 -3.93092689 -0.84953217
  H -1.33570737 -2.69042850 -2.05956572
