37
opt_min/./Product_1062_opt.xyz
  C  3.97452360 -1.27109728 -0.02029832
  O  2.67754650 -0.76859818 -0.32491319
  C  2.02942450 -0.15729793  0.64504461
  O  2.47703921  0.03953738  1.74521091
  C  0.64857402  0.32879100  0.21914640
  C -0.19771590 -0.46798753 -0.81357427
  C  0.47202977 -1.46164805 -1.77202595
  F  1.45575849 -0.92832106 -2.50315858
  F -0.42250327 -1.91122177 -2.66546243
  F  0.98684451 -2.54705257 -1.18418827
  C -0.63106619  0.72777108 -1.75225941
  C -1.47514249  1.72149971 -0.98727554
  C -0.62665661  2.38760188 -0.21610890
  C  0.72227959  1.74877153 -0.49309684
  O  0.60787391  1.40714416 -1.84967502
  C -1.28840321 -1.12602603  0.08753293
  C -0.81225497 -2.39562894  0.63474539
  N -0.47185974 -3.32004445  1.21214804
  C -2.67681648 -1.40816072 -0.53561938
  C -3.80585218 -0.74660167  0.19001616
  O -2.80348769 -2.13980621 -1.47389287
  N -1.35356183 -0.30480274  1.28525258
  C -0.29868423  0.38103769  1.41124853
  C -0.01342368  1.19034133  2.61206133
  H  4.64008097 -0.44874018  0.24766506
  H  4.31601981 -1.76836552 -0.92282716
  H  3.91319625 -1.97210955  0.81307587
  H -1.00476592  0.41988268 -2.72555840
  H -2.53440158  1.82562386 -1.10171301
  H -0.81074102  3.17945996  0.48077351
  H  1.62185240  2.32048430 -0.28998271
  H -3.72033384 -0.95856234  1.25242620
  H -4.75259056 -1.10225495 -0.20520508
  H -3.73639909  0.33148983  0.07051172
  H -0.92751715  1.35311795  3.17490990
  H  0.46169587  2.13255782  2.35760563
  H  0.68923904  0.63085324  3.22929326
