57
opt_min/./Product_2387_opt.xyz
  C -1.49033600  4.65114400  0.33155100
  N -0.79610076  3.38649008  0.36863170
  C -1.09657050  2.38089709 -0.49555019
  O -1.95633683  2.48056123 -1.34347879
  C -0.26313950  1.16323511 -0.30069932
  C  1.05004162  1.10909630 -0.06168632
  C  1.96373686  2.28359403  0.02718865
  C  2.53187492  2.59162403  1.39713375
  O  2.19344784  2.97615452 -0.93046837
  C  1.51611880 -0.33231950 -0.03927451
  C  2.03612234 -0.81460648  1.34713862
  N  3.24296787 -0.34663172  1.69772143
  C  3.89057699 -0.72382267  2.92984189
  O  1.36159294 -1.55108288  2.03235041
  C  2.66327223 -0.47271984 -1.05344600
  O  3.67179701  0.19673734 -0.97863730
  O  2.40347700 -1.35423138 -1.99035887
  C  3.35827880 -1.52683037 -3.03201482
  N  0.34711901 -1.05305409 -0.45501386
  C -0.85564643 -0.22264777 -0.45441115
  C -1.78036879 -0.60663568  0.68987527
  C -2.15009312 -1.94390041  0.81432272
  C -2.94724563 -2.36315503  1.86115208
  C -3.38936946 -1.45101048  2.80522876
  C -3.04779191 -0.11842758  2.67644060
  C -2.24986181  0.30337390  1.62424772
  C -1.54414782 -0.31444466 -1.81133419
  C -0.76477593 -0.23269163 -2.95726532
  C -1.35076671 -0.30207886 -4.20631129
  C -2.72277588 -0.44617884 -4.32340833
  C -3.50402168 -0.52082530 -3.18484130
  C -2.91909106 -0.45528450 -1.93173679
  H -0.83967346  5.44073035  0.69952718
  H -1.77775094  4.84769593 -0.69967655
  H -2.39502450  4.62631793  0.94527096
  H -0.10228254  3.24008574  1.08063157
  H  3.61780934  2.58895962  1.32818675
  H  2.20648898  1.88388689  2.15266840
  H  2.23625246  3.60150050  1.67426596
  H  3.78612683  0.16359779  1.01224500
  H  3.15344074 -1.19934119  3.57568195
  H  4.27984021  0.15767144  3.44062632
  H  4.70731654 -1.42191187  2.73930403
  H  3.45493808 -2.59726196 -3.20340243
  H  4.31373464 -1.08580636 -2.74460478
  H  2.98823343 -1.04618939 -3.93649354
  H  0.23373279 -1.97842624 -0.07035005
  H -1.82694606 -2.65198215  0.06478135
  H -3.22374534 -3.40438243  1.93684362
  H -4.00257640 -1.78049674  3.63086520
  H -3.39953339  0.60488518  3.39748080
  H -2.01956049  1.35339437  1.53314180
  H  0.30303236 -0.11313230 -2.86018950
  H -0.73775737 -0.23831736 -5.09421852
  H -3.18207718 -0.48993082 -5.30041931
  H -4.57591747 -0.62619810 -3.26648651
  H -3.53702188 -0.50700690 -1.04861319
