48
opt_min/./Product_1302_opt.xyz
  C -0.89444400 -0.17242600 -0.85340300
  C  0.11302325  0.63303560 -0.01383701
  C  1.37660844  0.58619646 -0.93981724
  O  0.77402576  0.49262704 -2.22659726
  C  0.05218278 -0.70672222 -1.96759677
  C  1.11844586 -1.60183037 -1.39497951
  C  2.01489673 -0.79188938 -0.81636400
  C  3.33806207 -1.08176034 -0.29236804
  C  4.14367113 -0.08635277  0.26448788
  C  5.41572384 -0.37497675  0.71750351
  C  5.91561667 -1.66325380  0.62476237
  C  5.13191006 -2.66034624  0.06839973
  C  3.86017533 -2.37388401 -0.38807854
  C  0.06819734 -0.02605981  1.38383719
  C  1.35073252 -0.53587151  2.02852432
  O -0.81043532 -1.13665714  1.29527405
  C -1.59972100 -1.12319326  0.11914955
  C -1.68553082 -2.57903828 -0.38263819
  C -2.51071022 -2.83192443 -1.61705841
  O -1.15507918 -3.47117208  0.22146321
  C -3.02099910 -0.67589997  0.45527018
  C -3.43689896 -0.72054120  1.78008716
  C -4.71770336 -0.33245039  2.12974330
  C -5.60387224  0.09839444  1.15838888
  C -5.20094928  0.13724648 -0.16502825
  C -3.91884182 -0.24872600 -0.51591666
  H -1.59683290  0.49312465 -1.35922546
  H -0.22032783  1.66876204  0.08360802
  H  2.01921407  1.45867591 -0.88894500
  H -0.44529414 -1.07475071 -2.86153751
  H  1.10954704 -2.66835156 -1.49806459
  H  3.77481064  0.92637237  0.34195852
  H  6.02376690  0.40962320  1.14510699
  H  6.91049418 -1.88826244  0.97971624
  H  5.51495303 -3.66723562 -0.01198531
  H  3.26056215 -3.15728551 -0.82419707
  H -0.36779259  0.71405869  2.08029330
  H  2.13118745  0.21807692  1.99463016
  H  1.13698517 -0.77184170  3.06867297
  H  1.68643775 -1.44554261  1.54473085
  H -2.24072687 -3.79822889 -2.03616093
  H -3.55709328 -2.87072896 -1.31412234
  H -2.39802260 -2.05313539 -2.36277448
  H -2.74398542 -1.06858842  2.52999158
  H -5.02249404 -0.36925100  3.16512450
  H -6.60493689  0.40063075  1.42968283
  H -5.88616931  0.46937147 -0.93115623
  H -3.62927370 -0.20390230 -1.55557888
