52
opt_min/./Product_2009_opt.xyz
  C  0.61969000  0.16880600  2.39464800
  C  0.32326453  0.71748012  1.00191853
  C -1.16282429  0.54281886  0.55210345
  F -1.91623427 -0.08405001  1.51687373
  C -1.68711085  1.98644941  0.41226581
  C -1.06196253  2.69205645 -0.79351786
  C  0.39938117  2.90562767 -0.35019433
  C  0.44376334  2.26777580  1.04232295
  C -0.94306156  2.66005376  1.56620132
  C -1.06565101 -0.28133498 -0.75314756
  C -2.11242474  0.02367381 -1.83500996
  O -1.89626019 -0.01781099 -3.01171868
  O -3.30749805  0.19641081 -1.27903038
  C -4.42228828  0.36135867 -2.15122683
  C -1.27813600 -1.80901750 -0.59605574
  O -0.58320753 -2.61642662 -1.14651684
  O -2.35668450 -2.07987976  0.11431017
  C -2.68574998 -3.45056931  0.31896963
  O  0.21905372 -0.00437076 -1.24969597
  C  1.10845210  0.02195759 -0.13593929
  C  1.59757836 -1.46333896  0.07493597
  N  2.11792198 -1.93609884 -1.05912833
  C  2.51245928 -3.31681011 -1.19903728
  O  1.53441110 -2.07428703  1.11599865
  C  2.41171807  0.70623271 -0.53045760
  O  2.84200925  0.76523626 -1.65250369
  O  3.06498358  1.14887498  0.54234970
  C  4.34831886  1.71833569  0.30672666
  H  1.69492994  0.17519017  2.55706232
  H  0.14769967  0.78864644  3.15258435
  H  0.25597464 -0.84665347  2.50596991
  H -2.77487103  2.01773171  0.44612508
  H -1.56826607  3.64394883 -0.96164352
  H -1.12180422  2.11580218 -1.71212241
  H  0.62886790  3.96929564 -0.26488950
  H  1.10083879  2.47267920 -1.05626543
  H  1.29222308  2.58906876  1.64438767
  H -1.19754851  2.23691191  2.53449676
  H -1.09364382  3.73752656  1.59113398
  H -5.17444016 -0.37547166 -1.87119322
  H -4.81888815  1.36815585 -2.01691629
  H -4.10954662  0.21639997 -3.18638405
  H -3.75332463 -3.55969356  0.13410199
  H -2.45593598 -3.70965752  1.35308657
  H -2.10985361 -4.08131772 -0.36065335
  H  2.00147463 -1.38754332 -1.90044043
  H  3.59971684 -3.39409381 -1.27241613
  H  2.17254719 -3.85971923 -0.31807223
  H  2.05495785 -3.74436547 -2.08895044
  H  4.32836299  2.33414784 -0.59368345
  H  4.58278520  2.31970139  1.18207790
  H  5.08933814  0.92663127  0.18361370
