55
opt_min/./Product_2585_opt.xyz
  C  1.33870520  1.86171759 -1.48322743
  C  0.96040349  0.38134162 -1.30360448
  C -0.09229356  0.11517238 -2.39398762
  C  0.44200315  0.07677717  0.09748032
  C  1.10674833  0.00385861  1.26581510
  C  2.46710447  0.49700834  1.66165261
 Cl  2.39671760  2.30496670  1.73291576
 Br  2.91733266  0.01466868  3.59687250
  C  3.72371204  0.02725055  0.91974934
  C  4.05625154  0.67798398 -0.42282407
  C  3.55398219 -0.08182774 -1.64524543
  C  2.12618016 -0.61527202 -1.58198442
  C  0.21105110 -0.61548273  2.34616161
  C  0.71464378 -2.00785195  2.78758364
  C  0.01009881  0.30310771  3.45527215
  N -0.30587752  1.04994066  4.26177734
  N -1.08688810 -0.78607045  1.70753431
  C -0.99174646 -0.43447498  0.29037337
  C -1.09610187 -1.81152956 -0.43369167
  N -2.13515797 -1.99555070 -1.27012481
  C -2.35446599 -3.24278920 -1.96272449
  O -0.28877575 -2.68009206 -0.18213901
  C -2.08086516  0.58746445  0.03850305
  C -3.42372828  0.22294001  0.14484419
  C -4.42421933  1.16980224  0.02017089
  C -4.10478059  2.50230054 -0.17935703
  C -2.77579216  2.88467334 -0.20803090
  C -1.77372574  1.93754615 -0.08579284
  H  2.05177826  1.97046338 -2.29447353
  H  1.75102700  2.30358959 -0.58580336
  H  0.45404166  2.43388396 -1.75673523
  H  0.30551892  0.47424510 -3.34230705
  H -0.29615268 -0.94439780 -2.50471022
  H -1.02182200  0.64507243 -2.20193501
  H  4.56750390  0.23456289  1.58058662
  H  3.65645359 -1.05939105  0.81147057
  H  3.70492586  1.70609407 -0.42414529
  H  5.14538073  0.72689657 -0.49818199
  H  3.68064366  0.55652724 -2.52186911
  H  4.19744403 -0.95344802 -1.79514476
  H  2.07480918 -1.41395072 -0.84111774
  H  1.93940228 -1.09086974 -2.54676143
  H  0.64489101 -2.12970912  3.86549728
  H  0.08577149 -2.74404639  2.29405601
  H  1.73850320 -2.19043286  2.47699526
  H -1.82562096 -0.27861582  2.18032585
  H -2.72729912 -1.21801945 -1.51451509
  H -1.62582243 -3.96027140 -1.58802112
  H -2.22018489 -3.11960817 -3.03977441
  H -3.36217893 -3.61189484 -1.76791976
  H -3.68863674 -0.80014524  0.37025466
  H -5.45762000  0.86553151  0.09495164
  H -4.88653737  3.23972429 -0.27863626
  H -2.51286292  3.92678955 -0.31153384
  H -0.74438772  2.25377063 -0.06278464
