48
opt_min/./Product_949_opt.xyz
  C -2.29793243  2.79629547  0.13303983
  C -2.15855973  2.01648973 -1.14885340
  O -2.45928385  2.46478973 -2.21825018
  C -1.68543248  0.54696671 -0.96781125
  C -1.40004037 -0.02630464 -2.26938382
  N -1.11580696 -0.47147771 -3.28240797
  C -0.34390911  0.58872288 -0.26389229
  C  0.43190169 -0.17514477  0.51522847
  C  0.31608188 -1.55077588  1.12803275
  C  1.25877132 -2.52135086  0.38935499
  C  0.74601210 -1.45044838  2.60364233
  C -1.10387794 -2.14369437  1.10573564
  C -1.67598721 -2.39281082 -0.29218882
  C -2.97701825 -1.64402289 -0.55333853
  C -2.86790084 -0.15162160 -0.26294794
  C  1.69032099  0.64446854  0.80765040
  C  3.01197748 -0.07977587  0.48869880
  N  3.26728022 -0.13267901 -0.82533038
  C  4.45605012 -0.73326548 -1.37432456
  O  3.72625769 -0.54171774  1.35496976
  N  1.57963205  1.80516411 -0.06403261
  C  1.84983151  3.08348686  0.54441957
  O  0.24374236  1.79257075 -0.59855359
  H -3.33917932  3.09585357  0.24770932
  H -1.70916597  3.70704873  0.04247281
  H -1.97419067  2.24163500  1.00744060
  H  2.29010283 -2.37135523  0.68818240
  H  0.98635048 -3.54388441  0.63871298
  H  1.19031434 -2.39307785 -0.68762100
  H  1.82269251 -1.32950835  2.68796126
  H  0.45812535 -2.35194696  3.13960220
  H  0.25582128 -0.60621251  3.08713390
  H -1.05345072 -3.09484029  1.63772429
  H -1.76231028 -1.49869464  1.68967944
  H -1.86069778 -3.45881895 -0.43578769
  H -0.95249527 -2.09656046 -1.05122469
  H -3.25234892 -1.78820670 -1.60162323
  H -3.78424729 -2.05151087  0.06018632
  H -2.77947716  0.02899198  0.80956050
  H -3.79180886  0.32944607 -0.59723702
  H  1.72671074  0.93058442  1.87355514
  H  2.63283894  0.34687779 -1.44768623
  H  5.05869771  0.00901568 -1.90107853
  H  5.03322764 -1.14241015 -0.54628192
  H  4.19196866 -1.53573375 -2.06553603
  H  1.36725138  3.85141833 -0.05571488
  H  2.92784728  3.24050087  0.52086156
  H  1.49854959  3.15150748  1.58372711
