58
opt_min/./Product_5893_opt.xyz
  C -1.15501295 -2.06308539  0.10717543
  O -1.20081907 -3.27882299  0.03340815
  C -2.10104824 -1.20102695 -0.60662128
  O -3.08691898 -1.68189854 -1.39718713
  C -3.08801654 -3.01724200 -1.86304137
  C -2.05781646  0.17176092 -0.50220679
  O -2.94186639  0.84846046 -1.26428662
  C -3.12518574  2.23896976 -1.07829069
  C -1.02512624  0.83470743  0.28695294
  O -0.65108110  1.96843901  0.05514815
  C -0.49316198  0.02151920  1.45881983
  C -1.55504550  0.12611647  2.55563205
  C -0.11710907 -1.40122276  1.00503101
  C  0.06572045 -2.34974381  2.19845590
  C  1.24340455 -1.13603414  0.24930375
  C  2.15578747 -2.36668675  0.26957806
  C  0.97851135 -0.78338785 -1.21834850
  C  1.16186951  0.50351958 -1.70343696
  C  0.88831807  0.82048299 -3.02246366
  C  0.43602043 -0.15205815 -3.89379358
  C  0.29038694 -1.45012305 -3.43656296
  C  0.56440724 -1.76378332 -2.11794912
  N  1.81967492  0.04062670  0.93366861
  C  3.19829088 -0.01939642  1.37569720
  C  0.87437090  0.59996632  1.89063647
  C  0.83083135  2.16230119  1.95001180
  N  1.78653742  2.78114943  1.23807470
  C  1.81567360  4.22566638  1.15904364
  O  0.07180323  2.72275822  2.70856141
  C  1.21712957  0.26443739  3.26385355
  N  1.58541450  0.03753197  4.32369553
  H -3.88386488 -3.04884020 -2.60665573
  H -3.30180607 -3.72717359 -1.06218392
  H -2.13827036 -3.28166235 -2.33012070
  H -4.02700841  2.47709819 -1.64017421
  H -3.27144566  2.48611683 -0.02316770
  H -2.28238636  2.81512586 -1.46198236
  H -1.23483909 -0.37951113  3.46244053
  H -2.49685537 -0.30012438  2.21524148
  H -1.70219579  1.17782415  2.79911475
  H  0.83185103 -1.99993416  2.88252410
  H -0.87330364 -2.44077162  2.73895613
  H  0.32609330 -3.34352532  1.84715929
  H  2.99411632 -2.21909686 -0.40740805
  H  2.53759818 -2.57166132  1.26390420
  H  1.60030981 -3.23718011 -0.06580441
  H  1.51012022  1.27560830 -1.03857086
  H  1.02728782  1.83443281 -3.36754022
  H  0.21025440  0.09423320 -4.92018131
  H -0.03615940 -2.22787355 -4.11173672
  H  0.45243699 -2.78790239 -1.80009422
  H  3.39375546 -0.77683501  2.14455695
  H  3.47242055  0.94654522  1.79932157
  H  3.83585506 -0.21475993  0.51463314
  H  2.25529217  2.25523362  0.51798961
  H  2.23499071  4.53454932  0.20542222
  H  0.80063589  4.61090049  1.25935532
  H  2.42106227  4.63279984  1.97198220
