35
opt_min/./Product_3806_opt.xyz
  C  1.47093200 -1.17700400 -1.63151200
  C  0.35906198 -0.22878834 -1.20532805
  C -0.90481397 -0.92714623 -0.66600035
  C -1.99857987 -1.11894690 -1.70585681
  C -1.28955211 -0.06302844  0.57902235
  C -1.52979666 -0.93335124  1.83580831
  C -1.89036370 -0.14578968  3.05593215
  O -1.40158707 -2.12629779  1.81007543
  C -2.54468138  0.78298989  0.32469227
  C -2.30174786  2.22661022 -0.00606434
  O -3.64797886  0.30432420  0.37975620
  N -0.14378097  0.77455535  0.86263738
  C  0.72674137  0.66556549 -0.05673456
  C  2.00588056  1.43170418 -0.00435673
  N  2.26051420  1.94625571  1.21582698
  C  3.44156462  2.71167274  1.51342337
  O  2.72770670  1.56808106 -0.97546989
  H  1.75597781 -1.81542179 -0.80044549
  H  1.13868329 -1.80792849 -2.45274687
  H  2.33546478 -0.60736369 -1.95815175
  H  0.08330745  0.41628213 -2.05164265
  H -0.63969504 -1.91675247 -0.27416979
  H -2.85309232 -1.61442907 -1.25487154
  H -1.62171979 -1.74005573 -2.51336547
  H -2.33266500 -0.17382492 -2.12975202
  H -2.93654005  0.14492944  2.96824120
  H -1.77078511 -0.74480084  3.95340810
  H -1.29176972  0.75968121  3.10929923
  H -1.81387405  2.30103767 -0.97801773
  H -1.63022397  2.67152131  0.72440534
  H -3.24847049  2.75864217 -0.04069362
  H  1.57242394  1.76881290  1.93304395
  H  4.04917175  2.20986586  2.26908985
  H  4.01151348  2.80228790  0.59121505
  H  3.17478340  3.70628339  1.87585305
