34
opt_min/./Product_255_opt.xyz
  C  0.62018800  0.84452400 -0.40227200
  C -0.45522874  0.07023213 -0.18365861
  C -1.83575663  0.35944447 -0.52629961
  C -2.10685501  1.35485209 -1.46989959
  C -3.40569855  1.65294625 -1.82987354
  C -4.46162828  0.95680033 -1.26491666
  C -4.20856702 -0.03851842 -0.33768815
  C -2.90952926 -0.33357774  0.02978367
  C  0.05088288 -1.23221918  0.42797067
  C -0.33556150 -1.42167528  1.90243896
  C -0.29762475 -2.45422339 -0.45631616
  C  0.34083643 -3.73779283 -0.02126613
  O -0.96568325 -2.34142166 -1.44782960
  O  1.48698921 -1.11157682  0.35003811
  N  1.78441749  0.20432500 -0.04298447
  C  3.08899992  0.58032961 -0.14014482
  O  3.15871362  1.84741972 -0.62285396
  C  4.47306490  2.37892729 -0.71133412
  O  4.03137176 -0.09150150  0.18233517
  H  0.68346583  1.84606705 -0.77805541
  H -1.28669550  1.88071763 -1.93442753
  H -3.59554561  2.42642939 -2.55953850
  H -5.47743997  1.18523739 -1.55413503
  H -5.02509019 -0.59079214  0.10237145
  H -2.73544353 -1.10885693  0.75745208
  H -0.42907836 -0.45197902  2.38554042
  H  0.45765011 -1.97833127  2.39573374
  H -1.26935500 -1.96628323  2.00125928
  H  0.24105157 -3.90129637  1.04634288
  H -0.08616972 -4.56859982 -0.57796793
  H  1.40383923 -3.66062447 -0.25144825
  H  4.83884092  2.65817417  0.27960205
  H  4.39761504  3.25501391 -1.35055420
  H  5.15313165  1.64198240 -1.14272889
