53
opt_min/./Product_1930_opt.xyz
  C -2.40528800  3.21580200  0.43939200
  N -1.63621626  2.11902009 -0.09867807
  C -1.80571780  0.85208678  0.35713943
  O -2.66146870  0.59493023  1.16589528
  C -0.73255727 -0.08583778 -0.29669298
  C -0.83634889 -1.61927753  0.03175096
  C  0.34688521 -2.64313086  0.01409075
  F  1.34923293 -2.43860877  0.87268847
  F -0.19770187 -3.82612340  0.39585719
  F  0.96692845 -2.95157183 -1.14038746
  C -1.77128154 -2.09278272 -1.09686199
  C -3.07400422 -1.28893796 -1.17935870
  C -2.65306370  0.02590963 -1.87877547
  C -1.10551816 -0.05002044 -1.81620488
  C -1.00850452 -1.49995334 -2.30280483
  C -0.98600706 -1.47951098  1.55281254
  N  0.02336298 -0.44916331  1.79747438
  C  0.66358244 -0.44386047  3.08157804
  C  0.47551895  0.29815905  0.61642695
  C  0.56616920  1.80936425  0.97050256
  C  1.28228654  2.67774257 -0.04932360
  O  0.22179600  2.25320151  2.03473091
  C  1.88833309 -0.01278672  0.12076487
  C  2.96044945  0.15745574  0.99466576
  C  4.25742839 -0.08841068  0.58544092
  C  4.51670838 -0.48747379 -0.71440367
  C  3.46544051 -0.61797719 -1.60203047
  C  2.16623005 -0.37673236 -1.18875650
  H -2.72636274  2.94026830  1.44294129
  H -3.29141285  3.41452426 -0.17043621
  H -1.78839137  4.11041663  0.48712226
  H -0.98428937  2.32800395 -0.83352870
  H -1.90537451 -3.17250515 -1.12570955
  H -3.51825011 -1.11875005 -0.20222717
  H -3.79507724 -1.83085493 -1.79267252
  H -2.95281440  0.00841262 -2.92840049
  H -3.11982225  0.89568389 -1.43028131
  H -0.59954967  0.68693711 -2.43910180
  H -1.57500691 -1.64203707 -3.22358818
  H -0.01491330 -1.88059678 -2.48620625
  H -1.98589641 -1.17672406  1.86646589
  H -0.72484598 -2.39068480  2.10255063
  H  1.60649180 -1.00919269  3.09189452
  H  0.83856004  0.57488460  3.42898606
  H -0.01460457 -0.91408866  3.79197280
  H  1.24799507  2.26298301 -1.05314378
  H  2.32576279  2.76761269  0.24697147
  H  0.85312303  3.67868490 -0.03230519
  H  2.78285780  0.49299229  2.00292088
  H  5.07031959  0.03879522  1.28526199
  H  5.52932962 -0.68037522 -1.03568158
  H  3.65159041 -0.91068057 -2.62487692
  H  1.37442560 -0.46631608 -1.91026523
