29
opt_min/./Product_95_opt.xyz
  C -0.82444037  2.95698020  0.73680783
  O  0.05986506  1.96868234  0.23746438
  C -0.49629518  0.79352655 -0.10461219
  C -1.78767536  0.43044176 -0.25105417
  F -2.90653819  1.17694173 -0.08527889
  C -1.87742825 -1.04813160 -0.57095530
  C -2.80791533 -1.39153301 -1.73442879
  C -2.32246215 -1.74981209  0.63304891
  N -2.68380005 -2.22750134  1.60548828
  N -0.47110052 -1.38725039 -0.83598753
  N  0.31959263 -0.29447184 -0.36544113
  C  1.69862982 -0.43484578 -0.36757814
  C  2.23792361 -1.71448781 -0.52489796
  C  3.60611375 -1.89662102 -0.54068247
  C  4.46307528 -0.81745453 -0.39960627
  C  3.92990103  0.44988646 -0.23850166
  C  2.56233645  0.65006896 -0.22584409
  H -0.19115673  3.78137026  1.05747266
  H -1.39882307  2.57930668  1.58529804
  H -1.51066266  3.30061160 -0.04127008
  H -2.52194499 -0.82561728 -2.61980524
  H -3.83149756 -1.13410031 -1.47072875
  H -2.75661461 -2.45601800 -1.95102825
  H -0.31962510 -1.48678644 -1.84357599
  H  1.57744910 -2.56167886 -0.61621989
  H  4.00261261 -2.89408854 -0.66098503
  H  5.53237901 -0.96134956 -0.41220570
  H  4.58530518  1.30101470 -0.12636886
  H  2.16891943  1.64467534 -0.10489130
