72
opt_min/./Product_2735_opt.xyz
  C -4.35108700  0.35724200 -1.08739100
  C -3.25735165 -0.67657402 -1.19785861
  O -3.13650967 -1.34008825 -2.19827335
  C -2.36936072 -0.91359542  0.03169894
  C -2.83863146 -0.12232419  1.26657835
  C -0.92347374 -0.50722515 -0.23049310
  C  0.18432507 -1.05080120  0.27919962
  C  0.33730199 -2.31493187  1.06556435
  C  0.29024734 -3.56749524  0.16866567
  C -0.70204846 -3.48153596 -0.98872949
  C -2.17015120 -3.50869091 -0.57559507
  C -2.62856297 -2.40754844  0.38423098
  C  1.43101940 -0.26424735 -0.08812167
  C  2.11260623  0.33939296  1.14091555
  C  1.45532440  0.44265709  2.36371998
  C  2.05852678  1.04939249  3.45132128
  C  3.33871513  1.56266010  3.34208282
  C  4.01064651  1.44844756  2.13802266
  C  3.40579450  0.84277701  1.05192145
  C  2.40976519 -1.17011958 -0.82872585
  C  2.38457418 -1.25431111 -2.21288278
  C  3.23451243 -2.11179110 -2.88806814
  C  4.12812711 -2.90333216 -2.18899771
  C  4.17052895 -2.81970040 -0.80788406
  C  3.32157131 -1.96009225 -0.13434231
  N  0.89949295  0.74889918 -0.98908416
  C  1.59745639  1.98650208 -1.18432716
  C -0.56076778  0.71060981 -1.09055747
  C -0.86658396  0.45733898 -2.57939702
  C -1.15629351  2.01914257 -0.59232512
  C -0.88828875  2.42330446  0.71435747
  C -1.35078004  3.62980169  1.20600994
  C -2.09577307  4.47039989  0.39693220
  C -2.35936473  4.09138590 -0.90660813
  C -1.88986710  2.88406216 -1.39910434
  H -3.92630836  1.33465970 -0.87079489
  H -4.89404900  0.39950273 -2.02949636
  H -5.03936990  0.09905798 -0.28843501
  H -3.83090422 -0.43826422  1.57578029
  H -2.84566419  0.94856134  1.09387710
  H -2.15461365 -0.31528155  2.09208130
  H  1.29311786 -2.29770826  1.58546651
  H -0.43340829 -2.37412181  1.83220150
  H  0.05291347 -4.43118264  0.79041059
  H  1.28465347 -3.72022682 -0.25664788
  H -0.52614316 -4.33162937 -1.65085678
  H -0.51196696 -2.57783650 -1.56439027
  H -2.76932926 -3.45390459 -1.48376715
  H -2.38751333 -4.46200757 -0.08702954
  H -3.71519254 -2.50533301  0.47248531
  H -2.22185798 -2.60218657  1.37334717
  H  0.46583852  0.02598441  2.47515046
  H  1.52492544  1.12005147  4.38865917
  H  3.81106763  2.03666913  4.18937602
  H  5.01694536  1.83065131  2.04164708
  H  3.95465992  0.74826117  0.12649740
  H  1.69615425 -0.63417797 -2.76283998
  H  3.19561799 -2.16049369 -3.96676613
  H  4.78992877 -3.57666709 -2.71363527
  H  4.86986171 -3.42429793 -0.24815062
  H  3.38675689 -1.90073317  0.94265559
  H  1.61086235  2.65245351 -0.30794768
  H  2.62626935  1.76681669 -1.46962109
  H  1.12701516  2.52679253 -2.00723536
  H -1.91450922  0.56973501 -2.82899508
  H -0.57197971 -0.55521290 -2.83993541
  H -0.28898122  1.15706812 -3.18135765
  H -0.30914553  1.78010731  1.35646264
  H -1.12427796  3.91151965  2.22414379
  H -2.46005995  5.41325038  0.77726986
  H -2.93136265  4.74060451 -1.55434202
  H -2.09833934  2.63349223 -2.42657050
