51
opt_min/./Product_1399_opt.xyz
  C -2.67516318  3.38996086  1.05601844
  N -2.24679980  2.06294856  0.68573516
  C -1.08447098  1.84800425  0.02433641
  O -0.36609701  2.76458077 -0.30215331
  C -0.83143374  0.40315804 -0.41460315
  C  0.66745576  0.05044191 -0.70374458
  C  1.77495173  0.93139183 -0.14099191
  C  3.01703146  0.97633835 -0.76923701
  C  4.07381017  1.69149503 -0.23375287
  C  3.92470273  2.37355924  0.95769821
  C  2.71166982  2.30829587  1.61645212
  C  1.66126469  1.58798459  1.08031254
  C  0.64774702  0.09414090 -2.28608194
  C -0.09459015 -1.11256188 -2.81275311
  C -1.37116937 -0.86347927 -2.56482209
  C -1.38010478  0.49619684 -1.90942415
  O -0.28701618  1.12576015 -2.53188754
  C  0.85408113 -1.35376467 -0.05699971
  C  1.74401576 -2.34264410 -0.82393710
  C  1.47467468 -1.21244201  1.26290542
  N  1.86038423 -1.31102842  2.33665717
  N -0.49932960 -1.85430509  0.09749505
  C -0.66028568 -3.14413037  0.73332505
  C -1.40033904 -0.75731295  0.45150655
  C -1.35701073 -0.44350722  1.96938514
  C -2.83361208 -1.17249258  0.08077524
  H -1.93530145  4.08787940  0.66701539
  H -2.73336078  3.48752660  2.14236451
  H -3.65173395  3.61548080  0.62394708
  H -2.85985980  1.29957753  0.90835945
  H  3.19520459  0.44619776 -1.69273498
  H  5.01991590  1.70761092 -0.75518284
  H  4.74611967  2.93685927  1.37394492
  H  2.57799893  2.81664858  2.55927985
  H  0.74250132  1.55351783  1.64084145
  H  1.59266627  0.32259233 -2.76209833
  H  0.35500360 -1.94545791 -3.31342825
  H -2.24552164 -1.43303620 -2.80508809
  H -2.28700198  1.08686426 -2.01505360
  H  2.18488285 -3.06218186 -0.13573230
  H  1.14945762 -2.88550194 -1.54951192
  H  2.55071882 -1.81537386 -1.32413276
  H -1.63234765 -3.20901336  1.21517099
  H  0.10658071 -3.33848618  1.49052249
  H -0.60921694 -3.93656110 -0.01934153
  H -2.32582304 -0.12564498  2.35208878
  H -0.63179478  0.32439501  2.21399415
  H -1.07399131 -1.34081581  2.51549911
  H -2.81399133 -1.83870403 -0.77396272
  H -3.45249654 -0.31390714 -0.16913797
  H -3.29616820 -1.70480800  0.90927638
