54
opt_min/./Product_5225_opt.xyz
  C  0.26212400  4.34651200  0.09645400
  C -0.12860353  2.90099416 -0.06697735
  C -1.47114950  2.72183613 -0.71455204
  C  0.68065691  1.95479552  0.39876001
  C  0.56396936  0.46013777  0.45694758
  C -0.82643921 -0.06581051  0.86061039
  C -1.04105981 -0.03549305  2.35454734
  C -2.31494594  0.62984274  2.77490049
  C -0.18919011 -0.51876021  3.24475776
  C -0.94257298 -1.45413670  0.17756739
  C -2.39682811 -1.54821988 -0.34363351
  N -2.49236563 -1.42786226 -1.67797553
  C -3.74175030 -1.45319100 -2.39256974
  O -3.34936490 -1.67688064  0.40120241
  C -0.69961262 -2.66755792  1.07608959
  N -0.00811039 -1.39972008 -0.93256398
  C  0.96639245 -0.31654489 -0.83756633
  C  0.86973367  0.53244674 -2.12076633
  C  2.40271422 -0.81817557 -0.77705860
  C  2.79408094 -1.92093919 -1.53277403
  C  4.09787612 -2.37984084 -1.51594151
  C  5.05398445 -1.73355631 -0.75224243
  C  4.69116859 -0.61513129 -0.02495923
  C  3.38256351 -0.16313909 -0.04380314
  H  1.31487747  4.45371176  0.34207948
  H  0.05626001  4.90965827 -0.81230272
  H -0.32219562  4.79636450  0.90032852
  H -1.61590574  3.48391836 -1.47827251
  H -1.58497579  1.74658536 -1.17574230
  H -2.26266683  2.84680812  0.02628802
  H  1.60886296  2.30964702  0.83631598
  H  1.24661333  0.11991931  1.23986342
  H -1.60454111  0.55880947  0.42431900
  H -3.15888478  0.17095452  2.26110823
  H -2.46964539  0.55239858  3.84758410
  H -2.28148819  1.68495492  2.50015245
  H -0.39764021 -0.46371704  4.29876140
  H  0.74074803 -1.00066533  2.99447987
  H -1.61920086 -1.32083914 -2.17884516
  H -4.54064312 -1.48370174 -1.65274275
  H -3.84840648 -0.55780471 -3.00839331
  H -3.81034217 -2.33597845 -3.03220591
  H  0.33244866 -2.69410242  1.41758449
  H -1.36274131 -2.63530705  1.93514714
  H -0.90884405 -3.57708941  0.51452048
  H  0.40434737 -2.30291717 -1.11931457
  H  1.42034894  1.46149109 -2.00381825
  H -0.16753900  0.76357060 -2.34254225
  H  1.28891330 -0.02093855 -2.95784841
  H  2.08049094 -2.43101492 -2.16538302
  H  4.36874796 -3.24237947 -2.10731660
  H  6.07251405 -2.09204136 -0.73596155
  H  5.42867268 -0.08730025  0.56166867
  H  3.14135118  0.72300637  0.52267219
