50
opt_min/./Product_2674_opt.xyz
  F -3.55421000  2.20534200  0.14049300
  C -2.58939169  1.44735671 -0.38701738
  F -1.84825385  2.24754533 -1.16421664
  F -3.22520356  0.61516034 -1.21303949
  C -1.74247595  0.72498901  0.69490861
  C -1.64097781  1.77075877  1.84287623
  F -1.41399666  3.01462918  1.42884614
  F -0.75521864  1.45524785  2.78216997
  F -2.82005586  1.82993580  2.49444138
  C -0.36450142  0.28367699  0.05231295
  C  0.05456671 -0.68411743 -0.82856299
  C -0.59619677 -1.87298240 -1.60784876
 Cl  0.59143868 -2.67938515 -2.68631976
 Cl -1.80913023 -1.19153580 -2.78450998
  C -1.22527771 -3.14833981 -0.91351417
  C -2.45842568 -2.95036024  0.00155121
  C -2.07198914 -1.58682459  0.51616031
  C -2.64111638 -0.43375093  1.29778299
  C  1.57266451 -0.52716078 -1.05294218
  C  2.00934480 -0.13941238 -2.47813269
  C  2.31652645 -1.77469725 -0.53897518
  O  2.99241764 -2.52546966 -1.18072950
  O  2.14327867 -1.85690274  0.78683095
  C  2.77603345 -2.93373272  1.47142560
  N  1.95466205  0.59871233 -0.21595015
  C  0.84462260  1.00701548  0.61543542
  C  0.94841282  2.55554594  0.60306175
  N  0.79649681  3.08401835 -0.61643517
  C  0.91862085  4.49861792 -0.86975548
  O  1.26398366  3.16809691  1.59688603
  H -0.41437519 -3.59569144 -0.33292665
  H -1.45489437 -3.83813322 -1.72582788
  H -2.51870454 -3.73877608  0.74938255
  H -3.38095687 -2.93312004 -0.57554462
  H -1.08325911 -1.74105366  0.95057954
  H -2.01460531 -1.10405819 -0.44532867
  H -3.68746467 -0.22180415  1.07885761
  H -2.50984181 -0.50868759  2.37579132
  H  2.31455546 -0.99135973 -3.07352245
  H  1.21107239  0.39312576 -2.98691860
  H  2.86714347  0.52170111 -2.37945421
  H  2.07312404 -3.29642527  2.21902776
  H  3.03683306 -3.72223205  0.76365479
  H  3.68042095 -2.56695702  1.95928328
  H  2.77929352  0.40503770  0.33789552
  H  0.97383078  0.69214986  1.66270028
  H  0.61075175  2.48026206 -1.40045944
  H  1.80067388  4.70832991 -1.47785141
  H  0.02775060  4.86349544 -1.38034231
  H  1.01731790  4.99675249  0.09258515
