33
opt_min/./Product_4583_opt.xyz
  O  1.28380122  1.54679943 -2.28915093
  C  0.81758252  0.80180463 -3.01738629
  O  0.35529598  0.05476939 -3.75246501
  C  0.41231169 -1.32706454 -0.68541217
  C  1.59000289 -1.14044559 -0.11454725
  C  2.04907744 -4.14835298  0.45506825
  O  1.72253754 -3.88749189  1.52034824
  O  2.38201647 -4.42635039 -0.60195553
  C  1.42832522 -0.44545215  1.21539120
  C  2.06997375  0.85561926  1.17216168
  N  2.54463403  1.89353277  1.12626197
  N -0.02832291 -0.35827165  1.41010050
  C -0.69173699 -0.83157112  0.20040602
  C -1.69382164 -1.96459859  0.49238410
  N -1.91262967 -2.15892419  1.79206312
  C -2.74810699 -3.21300062  2.30890650
  O -2.23492050 -2.56947477 -0.41787600
  C -1.46356564  0.32036547 -0.50259718
  O -1.42046778  1.44517519 -0.04947687
  N -2.10965604 -0.06292869 -1.60628271
  C -2.88835696  0.84956304 -2.40925760
  H  0.19905011 -1.79660228 -1.62746141
  H  2.56046035 -1.39304948 -0.50032284
  H  1.87274474 -1.02849165  2.03735607
  H -0.31950007  0.60498897  1.58670581
  H -1.31525447 -1.63067393  2.41887896
  H -2.14784752 -4.06391290  2.64001541
  H -3.33537842 -2.84003805  3.14699693
  H -3.41281761 -3.53872274  1.51003751
  H -2.20200941 -1.05858763 -1.78087962
  H -2.49504787  0.88115780 -3.42703244
  H -3.93306169  0.53771551 -2.43987045
  H -2.81764469  1.83956782 -1.96081244
