35
opt_min/./Product_4208_opt.xyz
  C  0.88151800 -1.03633800  2.32901900
  C  0.18007761 -0.83434538  0.99435198
  C  0.36357421 -2.06505387  0.10466231
  C -1.32632191 -0.42960864  1.12872549
  C -2.30462969 -1.47740069  0.70125601
  O -3.01418716 -1.39875553 -0.26151694
  C -1.38190160  0.85714591  0.26757755
  C -2.79564685  1.25625696 -0.18088785
  C -3.01063431  1.31034983 -1.66330104
  O -3.62953300  1.52174074  0.63889231
  N -0.37993768  0.62478593 -0.74383203
  C  0.71425719  0.41104805  0.21607326
  C  2.12669905  0.24403333 -0.32780412
  N  2.20682681  0.29343436 -1.67155689
  C  3.46365089  0.16242280 -2.37038776
  O  3.07527007  0.07424043  0.40348900
  C  0.51456852  1.62633390  1.15698372
  O  1.30752659  2.23966305  1.79512758
  O -0.80649216  1.88932199  1.11177678
  H  0.65564795 -0.23493005  3.02643898
  H  1.95708948 -1.04355064  2.16655276
  H  0.58875796 -1.98510157  2.76934772
  H -0.03395561 -2.95021452  0.59470552
  H -0.14239566 -1.93646990 -0.84744881
  H  1.42302478 -2.22644998 -0.07648708
  H -1.53866765 -0.15464079  2.16491597
  H -2.37055396 -2.33330223  1.39951846
  H -2.52361403  0.47374572 -2.15249095
  H -4.07638593  1.30052449 -1.86323798
  H -2.58336468  2.23810988 -2.04293286
  H -0.23352839  1.48403424 -1.27310415
  H  1.36805010  0.34268604 -2.22589766
  H  3.58739585  0.97456046 -3.08703208
  H  3.51894113 -0.79255201 -2.89671540
  H  4.25686338  0.20816440 -1.62752342
