37
opt_min/./Product_4752_opt.xyz
  C  0.74404200  2.03896000  0.03528000
  O  1.56621278  2.10550140  0.91879068
  C  0.01015168  3.23316993 -0.42462079
  C -1.10963082  3.16870076 -1.15031706
  C -1.66705341  1.88945089 -1.63354552
  O -2.45972540  1.83101005 -2.53957877
  C -1.12168913  0.66632811 -0.93921646
  C  0.38082803  0.73387330 -0.65379766
  C  0.53612071 -0.46250101  0.31074437
  C  0.59869670 -1.78266202 -0.51010563
  C  1.83316420 -2.02733991 -1.33150198
  O -0.31147215 -2.56008222 -0.46325525
  C  1.74047437 -0.37851152  1.25481304
  O  1.62689224 -0.45436801  2.44696790
  O  2.89277165 -0.26374070  0.60093195
  C  4.07417884 -0.13667330  1.38677119
  N -0.69692627 -0.47068992  1.07700263
  C -1.66085351  0.43242493  0.49143461
  C -3.08040483 -0.13691716  0.43794445
  O -3.12565097 -1.40142498  0.80458755
  C -4.38782905 -2.05483020  0.75203796
  O -4.02364088  0.52961339  0.09535220
  H  0.41218551  4.17803808 -0.08203873
  H -1.63479795  4.06092557 -1.46069991
  H -1.35344874 -0.21692334 -1.54479738
  H  0.98515450  0.64314428 -1.55844422
  H  2.39591615 -1.12436665 -1.53942820
  H  2.47197472 -2.71089455 -0.77104070
  H  1.54906115 -2.53113395 -2.25438884
  H  4.56514495 -1.10849494  1.45691558
  H  3.81814605  0.22296464  2.38438865
  H  4.71996223  0.57771733  0.87937053
  H -0.52386346 -0.31163768  2.06259828
  H -1.73314949  1.40115460  1.01935313
  H -4.88287374 -1.97205780  1.72250635
  H -5.01639727 -1.59955379 -0.01627309
  H -4.18531259 -3.09951068  0.52336066
