44
opt_min/./Product_2144_opt.xyz
  C  3.72526200  0.69992900  3.67894898
  O  2.67684730  0.23302543  2.84091941
  C  1.45532036  0.71829758  3.09769272
  O  1.20742519  1.49995598  3.98088324
  C  0.46051694  0.17004878  2.17152495
  C -0.84526075  0.46022785  2.08054419
 Br -1.86947284  1.66179108  3.03639964
  C -1.33679891 -0.28186780  0.85100966
  C -0.71796235  0.58454974 -0.29808792
  C  0.73442250  0.06423084 -0.26873647
  C  0.71258156 -0.79104911  1.01917470
  O -0.54369507 -1.44252576  0.89191351
  C  0.90153720 -0.75846999 -1.58502284
  C  0.99238027 -2.28685674 -1.41930702
  C  2.12345609 -0.33363047 -2.25015396
  N  3.09089434 -0.01917030 -2.77013212
  N -0.27599384 -0.48535538 -2.40395080
  C -1.21415734  0.39034362 -1.74149140
  C -1.21282060  1.77288325 -2.47054961
  N -2.03118319  2.69972190 -1.95697954
  C -2.13309008  4.02953593 -2.51476772
  O -0.47820233  1.94776585 -3.41637961
  C -2.61006050 -0.22702839 -1.82550023
  O -2.88580110 -1.23036502 -2.41340086
  O -3.51046598  0.51190899 -1.14670050
  C -4.85106979  0.02433217 -1.13958514
  H  3.44682346  0.58852700  4.72945243
  H  3.92432121  1.75574052  3.47694173
  H  4.59606531  0.09433701  3.43993030
  H -2.39257553 -0.51636068  0.78611379
  H -0.79856453  1.63840008 -0.01023687
  H  1.46840878  0.86900996 -0.24545494
  H  1.53009401 -1.48623739  1.16679053
  H  1.24751978 -2.72022303 -2.38556830
  H  0.02281631 -2.66680417 -1.10976882
  H  1.74770186 -2.57781988 -0.69456581
  H -0.05680224 -0.10634443 -3.32446557
  H -2.63391354  2.47331384 -1.17882374
  H -2.08915016  4.77178885 -1.71706351
  H -1.29840760  4.17139614 -3.20000595
  H -3.06934505  4.14650674 -3.06627585
  H -5.36429562  0.55010874 -0.33685192
  H -4.85755501 -1.05293669 -0.96647547
  H -5.32805748  0.23296872 -2.09974081
