49
opt_min/./Product_2382_opt.xyz
  F  1.06474316 -2.32871837 -0.07854111
  C -0.22566262 -1.85288555 -0.03770166
  F -0.65258326 -2.26632616  1.19394401
  C -0.15410317 -0.33386371 -0.06497469
  C -1.02776789  0.67184671 -0.25960769
  C -2.51072041  0.67962405 -0.50239469
 Cl -2.94937784  2.06348138 -1.55908744
 Cl -3.28803202  0.94650523  1.10503641
  C -3.12345132 -0.55475926 -1.15268596
  C -3.16783598 -1.76980540 -0.22371122
  C -2.42600363 -2.95613853 -0.82064839
  C -0.97159289 -2.60917537 -1.14658593
  C -0.32579828  2.01441934 -0.11423787
  C -0.11600576  2.80178103 -1.44159268
  C -0.14616948  2.04615229 -2.74003461
  O  0.21392026  3.95716674 -1.38275717
  C -0.96100258  3.04480451  0.87726213
  C -0.01734390  3.56795107  1.91142148
  O -2.08041317  3.44851429  0.74288867
  N  1.02319150  1.67964312  0.32103267
  C  1.19448874  0.23484773  0.39244365
  C  1.28934185 -0.09661323  1.81899890
  N  1.31770365 -0.31194664  2.94060996
  C  2.44214082 -0.18913106 -0.35722076
  C  3.64525617 -0.36388426  0.31205811
  C  4.79138713 -0.68306083 -0.39396903
  C  4.74684334 -0.83381504 -1.76895368
  C  3.54910329 -0.65245406 -2.43975635
  C  2.40314234 -0.32960157 -1.73912572
  H -2.53597367 -0.75386408 -2.04951241
  H -4.13034767 -0.30259976 -1.48405729
  H -2.70352506 -1.52274348  0.72849715
  H -4.20000313 -2.03303721 -0.00354146
  H -2.44448561 -3.77314745 -0.09877256
  H -2.91201453 -3.29278106 -1.73706460
  H -0.88189749 -2.04031067 -2.07244066
  H -0.42165291 -3.54345266 -1.28390395
  H  0.83809636  2.12516545 -3.20248991
  H -0.42809997  1.00585168 -2.62116482
  H -0.84941058  2.54108637 -3.40664419
  H -0.58227111  4.09108505  2.67815767
  H  0.64764921  4.27414993  1.41502211
  H  0.58449479  2.77491003  2.34373658
  H  1.75123524  2.15033349 -0.20122096
  H  3.68706481 -0.25217094  1.38518852
  H  5.72204843 -0.81782451  0.13588238
  H  5.64020063 -1.09339560 -2.31582281
  H  3.50345343 -0.76237128 -3.51313023
  H  1.46931042 -0.19823787 -2.26641826
