55
opt_min/./Product_5919_opt.xyz
  C  0.12988803  0.42163095 -1.30745901
  O -0.86291413  0.86766899 -1.84914912
  C -0.00906825 -0.50712834 -0.09149919
  O  0.03144699 -1.84442327 -0.51930745
  C -0.67546514 -2.21671295 -1.68887354
  C  1.15791197 -0.29941359  0.91707963
  O  1.13406216 -1.24216755  1.96637759
  C  1.65459891 -2.54475294  1.75405734
  C  2.53078602 -0.15529341  0.27461371
  O  3.52518581 -0.48456110  0.87664728
  C  2.58593175  0.35550855 -1.11153204
  C  3.97299146  0.59811449 -1.58781905
  C  1.47652051  0.63625030 -1.83641888
  C  1.53342134  1.26043036 -3.19792501
  C  0.67595269  1.00707251  1.59705770
  C  1.28764544  1.18868220  2.90043226
  N  1.72887228  1.37711727  3.93531977
  C  1.05472125  2.24533853  0.74154561
  O  2.22788264  2.43165752  0.46624374
  N  0.03003331  3.00329990  0.39028295
  C  0.18935602  4.15426265 -0.46384444
  O -0.71632308  0.82356527  1.76146372
  C -1.24002315 -0.09296438  0.80260531
  C -2.38313289  0.67111051  0.08380752
  N -3.29172087 -0.08374648 -0.52717414
  C -4.44517449  0.46979303 -1.18912207
  O -2.45278551  1.88612942  0.19057497
  C -1.80985411 -1.33830101  1.51578611
  O -2.42756370 -2.19055457  0.89589621
  N -1.59415441 -1.37852544  2.82541201
  C -2.00660302 -2.49543055  3.63892689
  H -1.75140142 -2.08905916 -1.56937343
  H -0.33258670 -1.66873190 -2.57022633
  H -0.44981373 -3.27418875 -1.81086402
  H  1.63742134 -2.99904062  2.74291691
  H  1.02704136 -3.11298829  1.06640809
  H  2.68270917 -2.51589936  1.39259900
  H  4.56418921 -0.30551653 -1.44621256
  H  4.41423646  1.36581600 -0.95234948
  H  4.01436974  0.91311972 -2.62292241
  H  2.05477163  0.61345148 -3.90103764
  H  2.05509409  2.21411157 -3.15285674
  H  0.52112455  1.42910080 -3.55721498
  H -0.93784817  2.68249264  0.55332565
  H  1.24368481  4.42317523 -0.49535606
  H -0.16162985  3.92267506 -1.47168476
  H -0.39729324  4.98082075 -0.06664927
  H -3.21253576 -1.09143050 -0.42185342
  H -5.35888839  0.18242073 -0.66543014
  H -4.34863137  1.55341132 -1.18488731
  H -4.49112815  0.11316759 -2.21815387
  H -1.06760115 -0.62264451  3.23855220
  H -1.44083401 -2.49172533  4.56536417
  H -1.82386100 -3.42332314  3.09618371
  H -3.07403188 -2.43527823  3.86319860
