56
opt_min/./Product_1787_opt.xyz
  C -0.21346914 -2.64726321 -1.55591750
  C -0.42295134 -2.08290774 -0.13549158
  C -0.24030035 -0.59570199 -0.20803730
  C -1.08218100  0.42189123  0.00839722
  C -2.41825954  0.42862143  0.70207812
  C -2.77608673  1.71276239  1.30748860
  N -3.10557075  2.60146088  1.94530849
  C -2.25079159 -0.29207715  1.96126833
  N -2.07387116 -0.74563538  2.99574404
  C -3.57655532 -0.06622214 -0.18925956
  C -4.00907242 -1.49266712  0.11266256
  C -3.05087963 -2.62167203 -0.26960665
  C -1.69247260 -2.75536053  0.43457731
  C -0.39118640  1.69097545 -0.50077819
  C -0.95888097  3.07436085 -0.25228313
  N -0.08663869  3.98180378  0.21786175
  C -0.46938477  5.34175019  0.50716321
  O -2.10638817  3.32854465 -0.56408723
  N  0.98801815  1.41964689 -0.10859693
  C  1.08976757  1.46412688  1.36400568
  C  1.13561994  0.03088330 -0.62567130
  C  1.28350044  0.11571568 -2.17117856
  C  2.44722626 -0.54841255 -0.11676940
  C  2.76136652 -1.90311901 -0.05168167
  C  4.00769325 -2.32121092  0.38317704
  C  4.98633287 -1.40888065  0.72821470
  C  4.72253572 -0.06010898  0.56932613
  C  3.47511466  0.35618395  0.14443259
  H -0.95523557 -2.23363872 -2.23623013
  H  0.76776603 -2.41325972 -1.95463168
  H -0.32676339 -3.72960284 -1.55079428
  H  0.37529622 -2.45352544  0.51772235
  H -3.27419585  0.03106631 -1.23400499
  H -4.43143151  0.59590291 -0.02706212
  H -4.25765476 -1.57401461  1.17565148
  H -4.93335100 -1.67551658 -0.44309872
  H -3.59746011 -3.53607757 -0.01515816
  H -2.91117626 -2.63790817 -1.35206579
  H -1.79593275 -2.56356839  1.50058395
  H -1.44762535 -3.82032270  0.34631924
  H -0.46106583  1.61014884 -1.59602808
  H  0.89038755  3.73965690  0.28266788
  H -1.55480052  5.39772225  0.43715790
  H -0.15440049  5.61298171  1.51531296
  H -0.02349132  6.03518287 -0.20995178
  H  1.96489057  2.04814368  1.65357704
  H  1.18835992  0.46945062  1.80031682
  H  0.21053585  1.93415364  1.80570317
  H  2.13773708 -0.47304686 -2.49951018
  H  0.39970781 -0.23901432 -2.69378689
  H  1.47418455  1.14812632 -2.45604587
  H  2.07041402 -2.66115382 -0.37408089
  H  4.21159112 -3.38101078  0.44051394
  H  5.95147158 -1.74261693  1.07789739
  H  5.48925503  0.67314769  0.77360177
  H  3.30232851  1.40737878 -0.02109724
