43
opt_min/./Product_5038_opt.xyz
  C -1.91332116 -1.41895190 -0.24918410
  C -1.70660322 -1.67565057 -1.71093692
  C -0.74957613 -1.04671036 -2.39323977
  N  0.10316872 -0.12783830 -1.85183937
  C  1.05048262  0.58487647 -2.66480089
  C -0.06396117  0.30445869 -0.49857293
  C -1.45153709  0.00332674  0.09795640
  C -2.46366308  1.05555050 -0.38437301
  N -3.72543260  0.88497060  0.06144419
  O -2.14923325  1.96822508 -1.11204931
  C -1.16504410  0.16585856  1.62726173
  C -1.64874562  1.45801726  2.09858037
  N -2.05229912  2.45060613  2.49452615
  C -1.89656290 -0.81995491  2.41664083
  N -2.47220854 -1.57139370  3.05652364
  N  0.27357497 -0.04313956  1.83949350
  C  0.91689544  0.94213843  2.67862477
  C  0.88003438 -0.35328503  0.53701171
  C  2.32829213  0.02914387  0.41732396
  C  3.29583055 -0.96353627  0.53054253
  C  4.64089269 -0.65954786  0.42247334
  C  5.04138107  0.64649740  0.20039410
  C  4.08749212  1.64316404  0.08694278
  C  2.74244618  1.33869032  0.19459498
  H -2.96512603 -1.56007729  0.00901045
  H -1.34368230 -2.14149527  0.34912471
  H -2.34125423 -2.39876303 -2.19081270
  H -0.59869719 -1.23970308 -3.44432677
  H  0.92364548  1.66470912 -2.54565815
  H  2.07852538  0.32236216 -2.39232857
  H  0.89292603  0.33571990 -3.71181153
  H  0.07490189  1.39465119 -0.46692692
  H -3.99241362  0.20525372  0.75227624
  H -4.41128000  1.58343371 -0.17807510
  H  0.92211472  1.95790532  2.26283194
  H  0.40103428  0.96523147  3.63996769
  H  1.94388107  0.62473526  2.85043236
  H  0.80571539 -1.44390877  0.40721337
  H  2.98938749 -1.98495465  0.70503476
  H  5.37735382 -1.44442860  0.51154201
  H  6.09062621  0.88645512  0.11546426
  H  4.39023183  2.66501775 -0.08737226
  H  2.02021221  2.13530415  0.09851912
