48
opt_min/./Product_1669_opt.xyz
  C -0.73277000  4.62336900 -0.30819100
  O -0.59919646  3.22108443 -0.48610645
  C -1.48408567  2.46109235  0.16820929
  O -2.35675024  2.90058619  0.87408382
  C -1.25975156  1.02296659 -0.05087254
  C -2.21521603  0.06473407 -0.07351186
  C -3.68909306  0.28361426 -0.07909591
  C -4.37055450 -0.10877013  1.19731772
  O -4.24727359  0.73417217 -1.04557009
  C -1.49847861 -1.20414986 -0.16948544
  C -2.12472069 -2.55743420 -0.25192057
  N -1.22239302 -3.51845111 -0.51617863
  C -1.56757049 -4.90847140 -0.64865510
  O -3.31068740 -2.75601119 -0.07276196
  N -0.22222707 -1.06005863 -0.17663106
  C  0.09050234  0.34578118 -0.13107321
  C  0.85586771  0.61761946 -1.42163176
  C  2.18350289  0.21616059 -1.50042147
  C  2.89752452  0.40839634 -2.66892934
  C  2.28831883  0.99191132 -3.76889278
  C  0.96002054  1.37061590 -3.69606411
  C  0.23898455  1.17791435 -2.52930422
  C  0.90679540  0.71978454  1.09488358
  C  1.66970906  1.88044637  1.09122436
  C  2.36743598  2.25323108  2.22603822
  C  2.31142087  1.47280830  3.36827919
  C  1.55224562  0.31582248  3.37237206
  C  0.84783536 -0.05934348  2.24141795
  H -0.49105184  4.89432841  0.72176011
  H -1.75650823  4.93511494 -0.52435425
  H -0.03321631  5.08401714 -1.00037320
  H -5.36025185  0.33731749  1.23993343
  H -3.77798803  0.18632189  2.05894197
  H -4.46540583 -1.19583253  1.18833707
  H -0.26464605 -3.22214545 -0.63762163
  H -1.03426184 -5.51035454  0.08975890
  H -1.32532097 -5.27537065 -1.64782317
  H -2.64010307 -5.00010502 -0.48338698
  H  2.65241915 -0.24342495 -0.64404257
  H  3.93033919  0.09883351 -2.72136604
  H  2.84668883  1.14366081 -4.68065822
  H  0.47539371  1.81694538 -4.55205750
  H -0.79914195  1.46867443 -2.48624866
  H  1.71684301  2.48736034  0.20004745
  H  2.95775060  3.15788873  2.21558487
  H  2.85710425  1.76661173  4.25234025
  H  1.50351749 -0.29819988  4.25890146
  H  0.25544252 -0.96156296  2.24323570
