46
opt_min/./Product_4491_opt.xyz
  C -4.50231400 -0.04715000 -1.15263800
  C -3.42916161 -0.59067856 -0.25872803
  C -3.85302891 -1.70374897  0.65623225
  C -2.20887816 -0.06032341 -0.26584822
  C -1.05507039 -0.47118068  0.58145771
  C  0.24736249 -0.56331758 -0.23468376
  C  0.32494753 -1.73746025 -1.17248206
  C  0.94731187 -1.44656494 -2.50147827
  C -0.10365728 -2.95227824 -0.85999704
  C  1.34068086 -0.47300100  0.88231483
  C  2.68004133 -0.12267324  0.22312936
  N  3.12473034  1.14577340  0.32966891
  C  4.36179611  1.54357669 -0.30413487
  O  3.28868785 -0.95647346 -0.41901198
  C  1.54824052 -1.78315652  1.64331164
  N  0.79475122  0.52159031  1.80373878
  C -0.65913608  0.51276284  1.73052797
  C -1.16323617  1.93086857  1.47503633
  C -2.59131704  2.19461371  1.85719094
  O -0.42545541  2.78483192  1.04336709
  H -5.27488468  0.44048923 -0.55564069
  H -4.97718057 -0.84846773 -1.71604269
  H -4.09907347  0.68238739 -1.84926341
  H -3.10077322 -2.48825573  0.69746668
  H -4.01185837 -1.33939615  1.67245690
  H -4.78579522 -2.14202417  0.31032223
  H -1.99605643  0.74247501 -0.96081248
  H -1.26265348 -1.43769250  1.03822201
  H  0.34722273  0.35889072 -0.82421259
  H  0.91592654 -2.31926875 -3.14784555
  H  1.98770981 -1.16289445 -2.34765673
  H  0.43690797 -0.61883083 -2.99548504
  H -0.02988113 -3.76417386 -1.56386935
  H -0.53276209 -3.20530711  0.09408715
  H  2.68438619  1.80324068  0.94938261
  H  4.41615847  2.62884775 -0.33465292
  H  5.22640670  1.14786197  0.23443358
  H  4.38751679  1.14295897 -1.31811348
  H  1.87460844 -2.56020583  0.96021602
  H  0.63200456 -2.08238489  2.14206811
  H  2.31813862 -1.63807419  2.39914437
  H  1.06840723  1.46619567  1.52979612
  H -1.08301757  0.16291255  2.68019387
  H -2.58519306  2.55236142  2.88777293
  H -3.00919922  2.97843798  1.23063170
  H -3.19646189  1.29755302  1.80375454
