48
opt_min/./Product_1852_opt.xyz
  C -1.06423510 -2.60712016 -1.36582417
  C -1.29131057 -1.09077203 -1.43550288
  C -0.24799143 -0.33069765 -0.66603906
  C -0.24002634  0.40009542  0.45723315
  C -1.05223562  0.43591944  1.70269936
 Cl -1.05177252  2.08195115  2.40116583
 Cl -0.09219045 -0.61993937  2.85866795
  C -2.46711731 -0.10320769  1.72720039
  C -3.45313596  0.65153825  0.83446379
  C -3.06515573  0.63320829 -0.64308785
  C -2.76584953 -0.79569630 -1.10695605
  C  1.02648999  1.25205687  0.44615380
  C  0.67695298  2.65316811 -0.17492780
  N  1.78178433  3.34560875 -0.47015466
  C  1.74832041  4.64468653 -1.09497922
  O -0.45715545  3.00182767 -0.40425578
  C  1.70855124  1.47236218  1.70289812
  N  2.33460187  1.70915229  2.63044129
  O  1.90663933  0.58436277 -0.44479977
  C  1.09445448 -0.13768681 -1.37555556
  C  0.98614094  0.60689011 -2.70748055
  C  1.80358025 -1.50396302 -1.57328724
  O  2.02932790 -1.97892745 -2.66414570
  N  2.10226205 -2.09766854 -0.40905681
  C  2.80928667 -3.35551245 -0.35173106
  H -0.15084905 -2.89911447 -1.87172330
  H -1.89333236 -3.11698223 -1.85141724
  H -1.01472877 -2.93711240 -0.33000464
  H -1.13169353 -0.77468746 -2.47239090
  H -2.42401373 -1.15652353  1.44814731
  H -2.81408318 -0.05334620  2.76130742
  H -3.53963429  1.68290721  1.17578030
  H -4.42561350  0.17032341  0.95934425
  H -3.88277429  1.06053687 -1.22591016
  H -2.20436288  1.28280719 -0.79363339
  H -3.10453512 -1.50123779 -0.34885199
  H -3.33906821 -1.02403507 -2.00728669
  H  2.67889259  2.92631323 -0.27769653
  H  2.24153864  5.38386652 -0.46251443
  H  0.70321126  4.92016544 -1.22581472
  H  2.24335906  4.61557754 -2.06719680
  H  0.87546591 -0.11151651 -3.51542844
  H  1.90941557  1.15802131 -2.87131174
  H  0.15152098  1.30409242 -2.70324799
  H  1.92404264 -1.60709396  0.45276758
  H  3.87520538 -3.21766731 -0.54805385
  H  2.40505499 -4.02029309 -1.11525545
  H  2.67790851 -3.79859063  0.63165427
