61
opt_min/./Product_3036_opt.xyz
  C -0.64996600 -1.45030500  2.92195100
  O -0.79255427 -2.16266983  1.70872702
  C -1.37934917 -1.47008391  0.60145151
  C -1.74505333 -2.62770682 -0.38077212
  F -1.78965395 -2.16660900 -1.65039883
  F -2.96443573 -3.14312010 -0.14966871
  F -0.92649171 -3.65541768 -0.35196410
  C -0.26310415 -0.60550655  0.00998732
  C -0.11435795  0.69898832 -0.32554266
  C -1.12955054  1.81631236 -0.56371775
  C -0.59714140  2.83058620 -1.63050281
  F -1.53163806  3.71329335 -2.02788909
  F -0.21241588  2.19681315 -2.72993432
  F  0.39288826  3.62220619 -1.21048999
  C -1.31030308  2.64447024  0.72760434
  F -0.16948661  3.21877727  1.14311897
  F -2.20462816  3.62448677  0.59028670
  F -1.71140001  1.90313162  1.76723839
  C -2.50481683  1.42537798 -1.18272551
  C -3.70126313  0.98486875 -0.35195047
  C -3.79149633 -0.42656697  0.18613744
  C -2.70659031 -0.89680626  1.13729779
  C  1.39137052  1.03645901 -0.24875625
  C  2.18038574  1.95774172 -1.20602944
  N  2.86919001  2.92277996 -0.57653670
  C  3.75224068  3.81184651 -1.29411901
  O  2.29221984  1.72601451 -2.39051147
  N  2.00141260 -0.25468911 -0.33598999
  C  3.38736742 -0.47783897 -0.64116982
  C  1.06148440 -1.32804479 -0.19968566
  C  1.04673395 -2.05653180 -1.61921346
  C  0.90605562 -1.14435707 -2.80054310
  O  1.24902564 -3.22834181 -1.73199241
  C  1.57086022 -2.32101907  0.88691748
  C  2.38257720 -1.66656360  1.98662732
  O  1.45978699 -3.50881161  0.81777605
  H -0.28933298 -0.43127617  2.76190060
  H  0.07617457 -2.01551494  3.49986088
  H -1.58833961 -1.42031479  3.48357296
  H -2.31381885  0.71614574 -1.99215709
  H -2.88372933  2.33773488 -1.64391520
  H -3.87304054  1.70451739  0.45307651
  H -4.55847782  1.09202433 -1.02277017
  H -4.72258737 -0.45291377  0.76001820
  H -3.92542076 -1.13287388 -0.63291852
  H -2.50751867 -0.12749449  1.87809147
  H -3.12758610 -1.75390487  1.67355202
  H  1.52294339  1.46963166  0.77458763
  H  2.73090408  3.09231283  0.40603400
  H  3.46741461  3.79218707 -2.34494107
  H  4.79037026  3.48322034 -1.20367636
  H  3.65630247  4.82340036 -0.90542544
  H  4.03933316 -0.14462090  0.17589773
  H  3.68830499  0.03944182 -1.55572820
  H  3.53512699 -1.54298688 -0.80373479
  H -0.12476818 -1.19690848 -3.14840267
  H  1.53908214 -1.52856767 -3.59729211
  H  1.15867972 -0.10879293 -2.60708856
  H  2.21730630 -2.21566307  2.91024345
  H  3.43716440 -1.77228281  1.74086926
  H  2.14770193 -0.61725739  2.12239160
