22
opt_min/./Product_3359_opt.xyz
  C -1.94013796 -0.26673813  0.94036343
  O -2.53585168 -0.62217936  1.92716000
  C -2.56282625  0.46353770 -0.17111414
  C -1.84395508  1.12584008 -1.07762074
  C -0.36825570  1.17110556 -1.09046884
  O  0.23715427  1.65025811 -2.01580471
  C  0.33012109  0.62133638  0.14574799
  C -0.45078866 -0.53526141  0.77164101
  N -0.21159364 -1.55777327 -0.23443179
  O  1.19256303 -1.43988211 -0.56698702
  C  1.63690470 -0.12931103 -0.21564872
  C  2.61167700 -0.20533554  0.98729329
  C  2.38622725  0.42823993 -1.33609199
  N  3.12346119  0.81115870 -2.11983846
  H -3.64402180  0.46250163 -0.19211727
  H -2.31171394  1.66228023 -1.89573543
  H  0.50579338  1.45473901  0.82473448
  H -0.05114654 -0.78836904  1.77012766
  H -0.30503423 -2.51020649  0.11896769
  H  2.57854202 -1.21281749  1.40346392
  H  2.33968405  0.50853678  1.76170601
  H  3.63293750 -0.00731080  0.66870459
