48
opt_min/./Product_1528_opt.xyz
  C -3.05950200 -2.01928600  2.13476800
  C -1.69771342 -1.51903219  1.71970099
  O -0.71389261 -1.79438739  2.35837354
  C -1.65628329 -0.56771768  0.51369776
  C -2.75517251 -0.89382893 -0.51142867
  C -0.28225663 -0.62241260 -0.13421970
  C  0.63430973  0.28271062 -0.52462941
  C  0.66759141  1.79010493 -0.67048607
 Cl  2.37394789  2.35219533 -0.89286402
 Cl -0.12485064  2.15904913 -2.26257549
  C  0.13756782  2.74333068  0.41175232
  C -1.34909141  3.10718204  0.37773691
  C -2.23426907  1.88499861  0.18818629
  C -1.89872390  0.78984223  1.19706738
  C  1.90765639 -0.44890291 -0.95314206
  C  2.32620226 -0.27450736 -2.42321887
  C  3.05916051 -0.14680805  0.01597873
  O  4.20575652 -0.43654390 -0.20004903
  O  2.61120656  0.30786088  1.18897424
  C  3.58362843  0.42731849  2.21720292
  N  1.63950392 -1.83241693 -0.60150943
  C  0.21847133 -2.02263627 -0.45376117
  C -0.42836160 -2.59782001 -1.73526582
  H -3.04917775 -2.22970891  3.20105911
  H -3.85404549 -1.32149998  1.89711715
  H -3.25544220 -2.95537694  1.61423079
  H -2.88453557 -1.96540373 -0.61822201
  H -2.50197812 -0.48640465 -1.48511499
  H -3.70338162 -0.46064193 -0.20711549
  H  0.68623936  3.68281917  0.31905881
  H  0.42692590  2.30573074  1.36846129
  H -1.59047072  3.63472606  1.30153995
  H -1.52643647  3.78700707 -0.45684873
  H -3.28885752  2.15072970  0.22803430
  H -2.02493216  1.51874106 -0.81200652
  H -0.96989720  1.02218690  1.71214080
  H -2.67112010  0.71899420  1.96435309
  H  3.05934911  0.51470458 -2.54856415
  H  1.46004406 -0.05870238 -3.04409790
  H  2.78387781 -1.19674054 -2.77291820
  H  4.30315915  1.21029364  1.96689742
  H  4.11559798 -0.51699006  2.34151697
  H  3.03938413  0.68389411  3.12212958
  H  2.09566759 -2.50891484 -1.19589065
  H  0.03614559 -2.71492900  0.37274101
  H  0.29892240 -3.22523540 -2.24708107
  H -1.29125525 -3.21612079 -1.50762782
  H -0.72695566 -1.80675860 -2.41739294
