33
opt_min/./Product_3628_opt.xyz
  C -0.23574300 -2.98765300 -0.24830300
  C -1.35653397 -1.95949514 -0.09226803
  C -2.59708093 -2.58111896  0.54811343
  C -0.94469356 -0.64034527  0.63676749
  C  0.52488800 -0.46988759  0.87339031
  C  1.37947590  0.01060646 -0.02697959
  C  2.80955958  0.21690729  0.13218612
  C  3.51733442 -0.20207773  1.38938012
  C  3.49265857  0.79890295 -0.85593903
  N -1.44480245  0.33636379 -0.33991573
  C -1.50428536  1.68563198 -0.09733465
  O -1.94507841  2.34660228 -1.17083388
  C -2.04885866  3.75984958 -1.05641967
  O -1.18766397  2.16992355  0.95866600
  N -1.81205981 -0.26695137 -1.48826089
  N -1.75837444 -1.48145650 -1.42162071
  H  0.41521605 -2.98193418  0.62287415
  H  0.36268773 -2.74555445 -1.12432435
  H -0.65750690 -3.98076867 -0.37519776
  H -3.36866920 -1.83131539  0.71445483
  H -3.00355877 -3.34676085 -0.11007976
  H -2.33610867 -3.04038432  1.50068330
  H -1.48245383 -0.50955191  1.58008859
  H  0.85018796 -0.77113916  1.85869099
  H  0.99726836  0.30522490 -0.99870896
  H  4.39690865 -0.79545341  1.14120946
  H  2.87898903 -0.78742003  2.04289079
  H  3.85252559  0.67862435  1.93626927
  H  4.55244227  0.97674974 -0.78285296
  H  3.01489183  1.11631949 -1.76708834
  H -3.07326293  4.04312507 -1.29917841
  H -1.79711743  4.06742313 -0.03924616
  H -1.35619764  4.21427897 -1.76535407
