34
opt_min/./Product_273_opt.xyz
  C  3.91237603 -1.12751694  0.39421091
  C  2.75162415 -0.25130766  0.12204790
  C  2.29183498  0.82506381  0.78793292
  C  2.83033387  1.50384711  1.87828927
  N  3.29039358  2.09087682  2.75123197
  C  0.99332246  1.20029674  0.07473157
  C  0.00797427  0.07867248  0.54145650
  C  0.45086377 -1.07732711 -0.36465954
  C  1.74485888 -0.46664131 -0.98517424
  O  1.28370567  0.84518624 -1.26488735
  N -0.57343481 -1.22387271 -1.39886955
  N -1.71138818 -0.38620473 -1.06849349
  C -1.48820581  0.25460536  0.21702213
  C -2.28006252 -0.52270876  1.31083600
  C -3.36269312 -1.40996161  0.77612435
  O -2.00657245 -0.41274553  2.47198949
  C -1.91453674  1.71787172  0.37643064
  C -2.62123115  2.34407246 -0.80234876
  O -1.73740177  2.29957788  1.41136605
  H  4.77218399 -0.53327972  0.69330416
  H  3.67865364 -1.80702594  1.21400123
  H  4.16254697 -1.72198548 -0.48027516
  H  0.63768847  2.22094793  0.16951562
  H  0.14208121 -0.10103302  1.61009496
  H  0.58904582 -2.03419901  0.14021174
  H  2.10971660 -0.96783309 -1.88039048
  H -0.19866822 -0.87982737 -2.28060033
  H -1.85382018  0.28872801 -1.81162786
  H -2.88852206 -2.27216177  0.31342174
  H -4.00038973 -1.74212962  1.58868286
  H -3.93036600 -0.90350351  0.00460651
  H -3.55176449  1.81336258 -0.99140386
  H -2.84748123  3.37857103 -0.55884723
  H -2.00893213  2.31073283 -1.69930037
