42
opt_min/./Product_564_opt.xyz
  C -1.29855300  0.94828400  1.54757800
  C -0.72790399 -0.13574635  0.63679409
  C -0.02312439  0.30269477 -0.69737731
  C -0.13744054  1.75178029 -1.18857771
  C -0.79633853 -0.63010342 -1.70869042
  C -2.14104816  0.05880158 -1.89770624
  C -2.79592253 -0.17998164 -0.77211016
  C -1.86268449 -1.04436099  0.04781261
  O -1.16174936 -1.75876996 -0.94703034
  C  1.44453620 -0.14170230 -0.50875599
  C  2.14674252 -0.51502987 -1.83014020
  O  1.85599114 -0.11017580 -2.92015355
  O  3.17264148 -1.32514336 -1.57897750
  C  3.92448478 -1.74184416 -2.71483190
  C  2.41118699  0.94476335  0.01051167
  O  2.82136458  1.87998307 -0.62857412
  O  2.84213448  0.66824184  1.24332948
  C  3.83553288  1.54153410  1.76364593
  N  1.36135910 -1.28831658  0.35827534
  C  0.27542434 -1.11738588  1.32225450
  C  0.75856025 -0.76995537  2.73244676
  H -0.92912309  0.86860506  2.56229127
  H -2.38405196  0.86927075  1.59287595
  H -1.06103047  1.94886922  1.19920377
  H -0.89053261  2.31199790 -0.64305668
  H -0.40950259  1.76440059 -2.23930509
  H  0.80351904  2.28555811 -1.10953605
  H -0.25439679 -0.90128977 -2.60743106
  H -2.44472980  0.59963712 -2.77105723
  H -3.76746164  0.14650771 -0.45819988
  H -2.32751999 -1.70149012  0.77971356
  H  3.27803219 -2.25365745 -3.42920661
  H  4.69000865 -2.41422510 -2.33683622
  H  4.37266482 -0.87649696 -3.20740180
  H  4.02543024  1.20870127  2.78150885
  H  4.74605927  1.48361285  1.16437020
  H  3.48108120  2.57406411  1.75073762
  H  2.25294695 -1.47189123  0.80446132
  H -0.20315374 -2.10249614  1.39650761
  H  1.25997703  0.19046665  2.76075476
  H  1.46338774 -1.53915633  3.04565553
  H -0.06580233 -0.78478570  3.44094352
