29
opt_min/./Product_239_opt.xyz
  C  0.19684100  2.75076900  1.34054500
  C -0.06015777  2.18339995 -0.03459542
  O -0.61476611  2.78582870 -0.91673783
  C  0.47018410  0.80262367 -0.21942111
  C  1.78944238  0.45134478 -0.35251474
 Cl  3.11132727  1.52165051 -0.30817884
  N  1.85958502 -0.91141719 -0.55096731
  C  2.92474726 -1.82290797 -0.76279029
  C  4.30072523 -1.22956228 -0.80364670
  O  2.67947820 -2.98546408 -0.89892507
  N  0.61443285 -1.42063871 -0.53273669
  C -0.23395470 -0.44274524 -0.34018050
  C -1.66970841 -0.67499998 -0.27382955
  C -2.18486542 -1.87275664 -0.76847916
  C -3.54437641 -2.11195890 -0.72326368
  C -4.40145366 -1.16700001 -0.18247807
  C -3.89350839  0.01800413  0.32412534
  C -2.53391381  0.26487194  0.28171553
  H -0.63312155  3.39073859  1.63420898
  H  0.36108430  1.97367091  2.08065457
  H  1.08705344  3.37746905  1.28375793
  H  5.00895936 -2.03620598 -0.97693517
  H  4.38171636 -0.50126832 -1.60768421
  H  4.53626907 -0.73509364  0.13560377
  H -1.50355203 -2.59824623 -1.18270822
  H -3.93969153 -3.03772882 -1.11386131
  H -5.46447248 -1.35528067 -0.15211584
  H -4.55788811  0.75204399  0.75526380
  H -2.14384609  1.18385129  0.69093256
