49
opt_min/./Product_2785_opt.xyz
  N  2.10165392  3.48247086 -0.88479171
  C  2.08065699  2.36203798 -0.66079600
  C  2.20205088  0.93685781 -0.40281314
  C  0.78614516  0.30410084 -0.36507987
  C  0.27692024 -0.91054812 -0.05843625
  C  1.02950729 -2.16068412  0.34989317
 Br  1.04574831 -3.44520324 -1.15015085
 Br  0.29361378 -3.08208745  1.90951905
  C  2.37284383 -1.53196702  0.57839695
  C  3.69646300 -1.68906519  1.28157077
  C  4.25383462 -0.26988209  0.95127388
  C  3.21739258  0.88780582  0.81463717
  C -1.23186473 -0.87969526 -0.08971761
  C -1.72553241 -0.79508998  1.37445049
  O -2.96649818 -1.23854220  1.49580179
  C -3.53600400 -1.15958005  2.79794537
  O -1.10335359 -0.24525484  2.24280777
  C -1.83781429 -2.09242850 -0.82422983
  C -2.13408423 -1.85421319 -2.27024227
  O -2.02198960 -3.13145541 -0.25273019
  N -1.55266869  0.38099687 -0.73829010
  C -0.33439781  1.19089875 -0.87587284
  C -0.15853990  1.53585011 -2.36554138
  C -0.47637280  2.43464832  0.01070411
  O -0.17462688  2.45681035  1.17477473
  O -1.09647756  3.42153602 -0.62576606
  C -1.28848221  4.62100756  0.11708693
  H  2.72168019  0.54100142 -1.29165831
  H  2.66438932 -1.26777581 -0.44194113
  H  2.00812904 -0.68520772  1.15122296
  H  3.56720173 -1.83116067  2.35427720
  H  4.34812738 -2.46669930  0.88279962
  H  4.80403386 -0.33793538  0.01050291
  H  4.96453439  0.04381174  1.71984665
  H  2.66348603  1.02738130  1.74790424
  H  3.83323002  1.78362087  0.68483090
  H -2.93137488 -1.73710096  3.49899252
  H -4.53367686 -1.58231844  2.71474222
  H -3.57259296 -0.11815397  3.13032063
  H -2.26529303 -2.80597480 -2.78111353
  H -3.05896555 -1.28248770 -2.33322011
  H -1.34672217 -1.26686710 -2.73328283
  H -2.29019772  0.87919073 -0.25082254
  H  0.41712340  0.76204349 -2.86923613
  H -1.14384029  1.59431441 -2.82311891
  H  0.33852194  2.49094281 -2.49503585
  H -2.05524941  4.47552341  0.88057162
  H -0.35153018  4.90792080  0.60001539
  H -1.60263416  5.37346122 -0.60238280
