38
opt_min/./Product_1158_opt.xyz
  F  2.57679480 -1.48720429 -0.06782273
  C  1.68466971 -0.47249578  0.16462470
  C  0.41843747 -0.88538474  0.95718075
 Cl  0.37289067 -2.61838010  1.31732841
  C  0.64249235 -0.07284099  2.27718522
  C  0.40078825  1.38632873  1.93775191
  C  1.46105948  1.75647590  1.23386228
  C  2.34269057  0.52627861  1.17246578
  O  2.05249323 -0.11964096  2.39559769
  C -0.75062433 -0.45722567  0.04072976
  C -1.94128970  0.10912946  0.76821032
  C -2.45390597  1.35725124  0.44341125
  C -3.56019877  1.84862247  1.11394208
  C -4.16190085  1.09865986  2.11031846
  C -3.65783211 -0.15143501  2.42894556
  C -2.55544869 -0.64896352  1.75792914
  O -0.19187712  0.50405131 -0.84120811
  C  1.12199994  0.09962594 -1.15337182
  C  1.07255773 -0.96464675 -2.31865102
  N  2.27147685 -1.38423540 -2.74047011
  C  2.40503357 -2.31209792 -3.84064436
  O  0.00969512 -1.29433537 -2.78115489
  C  1.89563099  1.21205451 -1.65817154
  N  2.55481327  2.03400066 -2.10230976
  H  0.15254675 -0.48943544  3.15108296
  H -0.47343446  1.93468826  2.21902998
  H  1.69331834  2.69126943  0.76598573
  H  3.41092377  0.65687627  1.02318942
  H -1.07452351 -1.33397698 -0.53853315
  H -1.97766121  1.93086420 -0.33536944
  H -3.95378558  2.82013582  0.85486804
  H -5.02434624  1.48397449  2.63281032
  H -4.12752416 -0.74510875  3.19874753
  H -2.17008605 -1.62760276  2.00173563
  H  3.10976292 -1.13842617 -2.23899077
  H  1.40992911 -2.66425575 -4.10628302
  H  2.85246051 -1.81497965 -4.70259033
  H  3.02621036 -3.15724742 -3.54673310
