72
opt_min/./Product_5972_opt.xyz
  C -1.73835100  1.27779000 -0.91491800
  O -2.62954925  1.31886395 -1.74429505
  C -0.56470315  0.33801658 -1.05907272
  O -0.41646078 -0.15558875 -2.37042294
  C -0.41266542  0.72271370 -3.47681578
  C  0.77233561  0.95584771 -0.54833628
  O  1.31314697  1.97370461 -1.36724156
  C  0.70727543  3.24360527 -1.37595664
  C  0.56943483  1.51986108  0.87436096
  O  1.42404887  1.46245657  1.72749850
  C -0.68772767  2.26043591  1.09950770
  C -0.70989082  3.11649859  2.32689928
  C -1.74608671  2.16236067  0.26645668
  C -3.00732808  2.94054788  0.45416446
  C  1.68874212 -0.31190487 -0.57189914
  C  2.18057907 -0.64255803 -2.02201570
  C  3.20511708  0.25424457 -2.67057449
  O  1.83284827 -1.64593430 -2.58587747
  C  2.92889533 -0.14950882  0.30626852
  C  3.27820489 -1.10459912  1.25237288
  C  4.42644156 -0.96611301  2.01452251
  C  5.24844683  0.13229592  1.85421720
  C  4.89282654  1.10686018  0.93841827
  C  3.74895517  0.96873745  0.17555903
  N  0.78863906 -1.34103335 -0.06088533
  C  1.11359437 -2.73271820 -0.31430478
  C -0.62190823 -0.94214552 -0.13726031
  C -1.58660141 -2.03720177 -0.59992090
  C -1.76416928 -3.13045375  0.25033872
  C -2.65464667 -4.14092119 -0.05265179
  C -3.41959274 -4.07257250 -1.20458154
  C -3.29200261 -2.97028081 -2.02615135
  C -2.39190973 -1.95870785 -1.72641810
  C -1.14152249 -0.60870787  1.26592633
  C -2.48986988 -0.30284182  1.43895077
  C -3.00424692 -0.05802734  2.69658036
  C -2.18185967 -0.13303157  3.81077830
  C -0.85162424 -0.47169042  3.65248211
  C -0.33603402 -0.71514130  2.38980568
  H  0.38249746  1.46701824 -3.41789746
  H -1.37740419  1.22426077 -3.60231696
  H -0.22896451  0.07302349 -4.33101918
  H -0.34781118  3.19788215 -1.66383198
  H  1.25890597  3.81209728 -2.12557441
  H  0.79316133  3.74569047 -0.40676236
  H  0.23700103  3.01392862  2.85121597
  H -0.87187427  4.16301022  2.07292019
  H -1.51222797  2.79732573  2.99107665
  H -3.17255562  3.19622943  1.49546107
  H -2.95824981  3.86121068 -0.12926849
  H -3.84984014  2.36528041  0.07699598
  H  3.27391804 -0.02875976 -3.71970216
  H  2.95898971  1.30417624 -2.58267198
  H  4.16985968  0.07940249 -2.19748196
  H  2.65024191 -1.96082315  1.42485991
  H  4.67301802 -1.72469421  2.74348874
  H  6.14437332  0.23937944  2.44759582
  H  5.50589311  1.98887005  0.81880382
  H  3.47679964  1.76585846 -0.49467611
  H  0.57540092 -3.14699401 -1.16915998
  H  2.17771112 -2.83177760 -0.50865541
  H  0.87042109 -3.32327990  0.57368729
  H -1.21126402 -3.18693607  1.17555360
  H -2.76030087 -4.97892074  0.62093430
  H -4.11889344 -4.85938790 -1.44659252
  H -3.90028497 -2.88330018 -2.91464020
  H -2.34237123 -1.11416401 -2.38879204
  H -3.14600635 -0.27254290  0.58083298
  H -4.05113624  0.18167111  2.81173075
  H -2.58286825  0.05808192  4.79530545
  H -0.20569205 -0.54881990  4.51414275
  H  0.70373422 -0.97285614  2.27387022
