51
opt_min/./Product_2293_opt.xyz
  F  0.84369000 -2.55262800 -1.80160400
  C -0.14927807 -2.06662856 -1.00136974
  F -0.07039778 -2.91328719  0.08915272
  C  0.19945856 -0.66621139 -0.56227655
  C -0.53650188  0.20947292  0.13675002
  C -1.97004953  0.11604593  0.58330407
 Cl -2.97521677  0.85776113 -0.73929090
  C -2.23935956  1.04167197  1.78099536
  F -1.43941787  0.72729827  2.82088732
  F -2.04701663  2.34517614  1.54443172
  F -3.49374359  0.94568703  2.23279871
  C -2.45654858 -1.29125215  1.01241300
  C -3.33449978 -2.06623187  0.02655028
  C -2.56814416 -2.95185820 -0.95086061
  C -1.48702703 -2.21714913 -1.73658666
  C  0.27062388  1.47335908  0.33666695
  C -0.20015428  2.62643414 -0.58718900
  N -0.02877679  3.84604166 -0.05231253
  C -0.33880521  5.05611372 -0.77520394
  O -0.58549150  2.42610778 -1.71720435
  N  1.60222324  1.15704010 -0.13780630
  C  2.69899973  1.48175748  0.73585162
  C  1.58119141 -0.11558212 -0.85408319
  C  1.77240817  0.17755917 -2.34981894
  C  2.69205349 -1.07871848 -0.36417431
  O  3.69998464 -1.28708004 -0.99620597
  N  2.45703022 -1.58720766  0.86209000
  C  3.33829622 -2.54961916  1.47824633
  H -1.58738238 -1.88889429  1.27423091
  H -3.03244662 -1.16541684  1.93090451
  H -3.99554827 -2.70966084  0.60876789
  H -3.96093594 -1.37373672 -0.53176239
  H -2.12816395 -3.79648472 -0.41845338
  H -3.28637081 -3.34933799 -1.66870504
  H -1.83987334 -1.22862883 -2.03466200
  H -1.26154158 -2.78385329 -2.64241636
  H  0.28194285  1.79516209  1.38642390
  H  0.22811286  3.93718842  0.91661337
  H -0.52308362  4.77985322 -1.81174735
  H -1.23090109  5.53568767 -0.36610459
  H  0.50066066  5.75050582 -0.72331272
  H  3.62466467  1.13474519  0.28165958
  H  2.61047550  1.03929361  1.74056767
  H  2.75543935  2.56722426  0.83733307
  H  1.78516244 -0.73836513 -2.93124740
  H  0.97415598  0.83283688 -2.68788062
  H  2.72590959  0.68190115 -2.47539875
  H  1.57033882 -1.42512968  1.31250358
  H  2.88091288 -3.54102047  1.48920784
  H  3.57051513 -2.24756957  2.49992305
  H  4.24983324 -2.58283663  0.88491524
