39
opt_min/./Product_799_opt.xyz
  C  4.18305707 -2.64328299 -1.04975853
  O  2.77560769 -2.47374853 -1.11628941
  C  2.11953245 -2.47793732  0.04088421
  O  2.62473281 -2.65661617  1.12187622
  C  0.67855174 -2.25377014 -0.16688343
  C -0.31848577 -2.37606888  0.71347441
  C -1.55276861 -1.90719281 -0.02388174
  C -1.45764506 -0.34535854 -0.14413199
  C -0.27390104 -0.22175011 -1.11822610
  C  0.02395376 -1.72560877 -1.42715776
  O -1.27569040 -2.27879140 -1.35743276
  N  0.76021640  0.45986012 -0.37556621
  C  1.96380817  0.75967221 -0.92251956
  C  2.85703722  1.61122896 -0.05546370
  O  2.27968085  0.30496621 -2.00348788
  N  0.21141738  1.11518644  0.75497647
  C -1.05988026  0.49292393  1.09050435
  C -2.11123815  1.63093961  1.34383065
  N -3.27997958  1.15569026  1.80848312
  C -4.39707267  2.02099720  2.11298583
  O -1.86746827  2.78339267  1.10441345
  C -0.95648162 -0.25115865  2.32970016
  N -0.83547145 -0.67832199  3.38615722
  H  4.60939630 -1.97442879 -0.30005135
  H  4.43045738 -3.67302449 -0.78237239
  H  4.56135891 -2.40188590 -2.03886529
  H -0.27772043 -2.71751283  1.72856725
  H -2.50936142 -2.29912821  0.31044555
  H -2.38192555  0.02355577 -0.58584932
  H -0.51395345  0.31240893 -2.03909049
  H  0.52013774 -1.92846147 -2.36786822
  H  3.78811000  1.79058205 -0.58545233
  H  2.37446160  2.56174691  0.16047983
  H  3.07358317  1.10496412  0.88449533
  H  0.87080691  1.12391414  1.52923928
  H -3.37297938  0.17831406  2.03820465
  H -4.06753518  3.04675767  1.96188520
  H -4.71233792  1.88727180  3.14782257
  H -5.23758338  1.80867728  1.45066595
