42
opt_min/./Product_1045_opt.xyz
  C  3.49109816  2.77193132 -1.56365681
  N  2.70789289  1.93051289 -0.69423269
  C  2.41845671  0.64152050 -1.02186322
  O  2.88428179  0.10283122 -2.00396800
  C  1.57763743 -0.07639005 -0.04959085
  C  1.21939510 -1.37815723 -0.13475064
  O  1.34867507 -2.17811455 -1.17917861
  C  1.53798380 -3.56617907 -0.97996499
  C  0.55504786 -1.69820385  1.20906264
  C -0.85322662 -1.01901645  1.25218269
  C -0.45164589  0.47019181  1.33209987
  C  1.10648225  0.34720246  1.32818064
  O  1.27186645 -0.85057963  2.08483394
  C -1.15169463  1.10196728  0.11231077
  C -0.42217611  2.23973744 -0.59084619
  C -0.27858111  3.47910221  0.26619868
  O -0.07635256  2.20024570 -1.73594479
  O -1.41814823  0.04600872 -0.78179680
  C -1.74473827 -1.08685771 -0.00881180
  C -1.60545093 -2.30559211 -0.77540841
  N -1.60361178 -3.31472815 -1.31236316
  C -3.24973623 -1.03502939  0.41832073
  C -3.74120535 -2.20332092  1.22617727
  O -3.92998571 -0.09548886  0.11971113
  H  2.95487341  3.69429122 -1.78859176
  H  4.45602164  3.01164762 -1.10950600
  H  3.65688968  2.21649441 -2.48487710
  H  2.28642913  2.35430531  0.11303530
  H  1.60782437 -3.99109353 -1.97796443
  H  2.46955356 -3.74787423 -0.43597212
  H  0.70240563 -4.03175309 -0.45230893
  H  0.58018903 -2.72840778  1.55261852
  H -1.38331248 -1.36735319  2.13781524
  H -0.76768792  0.93919332  2.26521404
  H  1.62301984  1.17016748  1.81443128
  H -2.10847182  1.53860967  0.45407470
  H -1.12709207  4.12636100  0.04528048
  H  0.61859377  4.02557477 -0.01060379
  H -0.27949214  3.25547035  1.32852487
  H -4.75300092 -2.44733202  0.90993472
  H -3.79551280 -1.91322468  2.27524119
  H -3.09904623 -3.07333580  1.12336463
