57
opt_min/./Product_2273_opt.xyz
  C  2.87495500 -2.81714300 -1.71787600
  O  2.41842535 -2.04514609 -0.61644455
  C  1.50414130 -1.13570221 -0.88995449
  O  1.16235365 -0.80600643 -2.00558098
  C  1.01670583 -0.35856107  0.34060599
  C -0.46946153 -0.71047578  0.63020806
  C -0.86175627 -2.11341020  0.11273085
  C -2.09939127 -2.76340497  0.68231424
  O -0.12840633 -2.72392108 -0.62121599
  C -0.36967853 -0.97754624  2.17555794
  C  0.15042860  0.18287883  2.98339367
  C  1.45292654  0.22881619  2.73418084
  C  1.68432062 -0.83783540  1.68648664
  O  0.76994032 -1.83255432  2.12778480
  C -1.28368109  0.43400533 -0.00135285
  C -2.38685023  0.85030572  1.00292876
  N -3.61898135  0.38349344  0.74416554
  C -4.74256695  0.72406088  1.58837350
  O -2.13088862  1.52085499  1.98235155
  C -1.91830453 -0.05930393 -1.32657990
  O -2.48542303 -1.13908099 -1.40748570
  N -1.88016682  0.81815772 -2.32852533
  C -2.38858280  0.51694508 -3.64290770
  N -0.35006148  1.50564675 -0.31775799
  C -0.79233396  2.86879551 -0.09433363
  C  1.04479910  1.15520171 -0.06237809
  C  1.73114058  2.16390051  0.88305378
  C  1.98983136  1.29882188 -1.29638969
  C  1.51217933  2.05739636 -2.50390264
  O  3.14246664  0.95897648 -1.18036341
  H  2.13343792 -3.58474420 -1.94505881
  H  3.81488992 -3.26750699 -1.40728748
  H  3.01752093 -2.17593911 -2.58928291
  H -2.69589070 -3.12081547 -0.15313820
  H -2.69603695 -2.10516285  1.30233209
  H -1.78025292 -3.63442210  1.25460685
  H -1.22092373 -1.48194191  2.62099738
  H -0.44871580  0.79130372  3.62915525
  H  2.21039254  0.83982799  3.18132666
  H  2.67974784 -1.25052609  1.56965627
  H -3.78967324 -0.25625588 -0.01592417
  H -4.37161523  0.94488589  2.58920413
  H -5.43932914 -0.11024413  1.62773248
  H -5.26065300  1.60777172  1.20822735
  H -1.33216584  1.65436878 -2.19657879
  H -1.62285361  0.70346357 -4.39506623
  H -2.66389462 -0.53613638 -3.66168648
  H -3.26768688  1.12719001 -3.86167305
  H -0.18855186  3.54531102 -0.69900098
  H -1.83165772  2.95428965 -0.41487064
  H -0.74980925  3.18711968  0.95154122
  H  1.84590304  3.10936868  0.35601016
  H  2.72609649  1.80426859  1.12846589
  H  1.16154399  2.33473752  1.78768013
  H  0.46309727  1.87821206 -2.69279661
  H  1.68511027  3.12040466 -2.34019022
  H  2.10148527  1.74162585 -3.36043417
