58
opt_min/./Product_2244_opt.xyz
  C  1.03787243  2.32898640 -0.53352110
  O -0.00155870  1.39303334 -0.34896678
  C  0.18429696  0.00194859 -0.36351932
  C  1.40358226 -0.62502095  0.41399336
  C  2.21555500  0.24991599  1.33485496
  C  1.55634601  1.10693618  2.21291337
  C  2.26680610  1.87438808  3.11728554
  C  3.64689786  1.78479951  3.17500501
  C  4.30702246  0.91069845  2.32900090
  C  3.59969193  0.14201034  1.42225279
  C  2.14946163 -1.42853534 -0.67036594
  C  2.78087784 -0.47780584 -1.69766678
  C  1.56558682  0.00762290 -2.51158333
  C  0.37752660 -0.63006976 -1.77898016
  C  0.97525088 -2.00051794 -1.46794220
  C  0.68784867 -1.62432439  1.30487675
  C  1.45637159 -2.48888919  2.11412274
  N  2.12253444 -3.17845268  2.74084463
  N -0.57386510 -1.64646468  1.24765328
  C -1.08957606 -0.60296779  0.40221282
  C -2.18983345 -1.16222073 -0.48230894
  C -2.73946937 -2.40208197 -0.18056518
  C -3.77856669 -2.91474169 -0.93714914
  C -4.28818795 -2.19242510 -2.00076010
  C -3.75137767 -0.95293115 -2.30343859
  C -2.71070107 -0.44050664 -1.55026351
  C -1.78867044  0.39764452  1.33776155
  C -1.86468435  0.12489393  2.69973695
  C -2.50546912  0.99323560  3.56653267
  C -3.08619363  2.15258927  3.08779002
  C -3.02836185  2.42486363  1.73195870
  C -2.39669220  1.55411681  0.86288006
  H  0.94079910  3.07496866  0.26056056
  H  0.91040989  2.83776139 -1.49578408
  H  2.03324117  1.89561050 -0.47770762
  H  0.47927247  1.18002981  2.18644320
  H  1.73530687  2.53629829  3.78473928
  H  4.20295940  2.38167155  3.88210633
  H  5.38190563  0.81686990  2.37768659
  H  4.13736327 -0.54796837  0.79000196
  H  2.84135181 -2.16211374 -0.25545913
  H  3.48866496 -1.02093328 -2.32365153
  H  3.31926704  0.34329202 -1.22517593
  H  1.50126061  1.08671756 -2.59361804
  H  1.59794770 -0.39274962 -3.52683619
  H -0.52982550 -0.63208759 -2.37414104
  H  0.31919125 -2.65873301 -0.90112516
  H  1.29701816 -2.52221058 -2.36777858
  H -2.34936824 -2.96411064  0.65344632
  H -4.19027260 -3.88198732 -0.68958149
  H -5.10138130 -2.58794043 -2.59142785
  H -4.14400219 -0.38168958 -3.13187321
  H -2.29894361  0.52500952 -1.80116053
  H -1.42072594 -0.77792771  3.09247488
  H -2.54691096  0.75710681  4.61970690
  H -3.58124422  2.83485702  3.76280911
  H -3.48347087  3.32334811  1.34107972
  H -2.36585755  1.79879382 -0.18353628
