57
opt_min/./Product_2037_opt.xyz
  C -0.12225200 -1.79408800 -2.21742500
  O  0.19209662 -2.27047337 -0.93383425
  C -0.58525756 -1.78029739  0.17412580
  O -0.10740182 -2.41695691  1.31155813
  C -0.00439127 -3.82424059  1.27256219
  C -0.21271412 -0.31821137  0.31371644
  C -0.76342361  0.84514891 -0.14264754
  C -2.17353989  1.25415272 -0.49740247
  C -2.32508112  2.78467461 -0.42642945
  C -3.32166533  0.59233686  0.32402565
  C -2.94013730 -0.26648532  1.53397712
  C -2.88104554 -1.75869433  1.20345102
  C -2.08208704 -2.03703416 -0.06317930
  C  0.34523846  1.79305725 -0.17546179
  C  0.46104820  3.08673309 -0.89753054
  O  0.13407519  3.24686804 -2.04695354
  O  1.04871153  4.01557410 -0.14258960
  C  1.29781809  5.27220496 -0.75808406
  N  1.45283840  1.31109712  0.29363534
  C  1.19127510 -0.01553769  0.73741301
  C  1.38590332  0.01214379  2.30136875
  N  2.49802853  0.69518169  2.60561901
  C  2.98027931  0.78712109  3.96425341
  O  0.63518099 -0.48494286  3.09398906
  C  2.26146827 -1.01300632  0.21568175
  O  2.65812891 -1.96278014  0.84109941
  N  2.72217683 -0.65973698 -0.99763610
  C  3.70114828 -1.45564137 -1.69567590
  H -0.20082207 -0.70202113 -2.24403242
  H  0.70261183 -2.11267708 -2.85377414
  H -1.05343449 -2.23022540 -2.59600522
  H -0.98266321 -4.30377505  1.16264277
  H  0.42602582 -4.09348604  2.23404048
  H  0.65921926 -4.14386206  0.46787010
  H -2.30935241  0.95882273 -1.54734914
  H -3.33835345  3.06550210 -0.15070083
  H -2.10635982  3.24806793 -1.38369502
  H -1.65558314  3.21859721  0.31491149
  H -3.96241848  0.00768838 -0.33706479
  H -3.93525673  1.40640062  0.71144378
  H -3.70227833 -0.12775866  2.30430356
  H -1.98656803  0.04706062  1.95536758
  H -3.89706249 -2.13881577  1.06775999
  H -2.41813787 -2.28072584  2.03887984
  H -2.41807765 -1.39861299 -0.87626538
  H -2.19753944 -3.07741827 -0.37656238
  H  2.17042368  5.69579916 -0.26586931
  H  1.48018058  5.14030818 -1.82620786
  H  0.43685447  5.92953464 -0.61542483
  H  2.95226756  1.23073628  1.88185656
  H  3.53780615  1.71111529  4.09282689
  H  3.62031479 -0.06670308  4.19769640
  H  2.12807030  0.77609442  4.64506657
  H  2.37964134  0.18544860 -1.42587625
  H  4.71493709 -1.10162401 -1.48895265
  H  3.51597508 -1.41523528 -2.76767641
  H  3.61190654 -2.48400718 -1.34667435
