45
opt_min/./Product_4709_opt.xyz
  C  0.06124300 -1.14966900  1.40550600
  C -0.08770640 -1.25785473 -0.10759089
  C -0.38764901 -2.72334384 -0.45706427
  C  1.15822616 -0.81748481 -0.93847847
  C  2.27492925 -0.16030207 -0.18549338
  C  2.78727817  1.03843319 -0.46163228
  C  3.88869837  1.67551374  0.24442295
  C  4.51223967  0.95479248  1.40244266
  C  4.31520701  2.87929651 -0.13772711
  C  0.51778099 -0.00739620 -2.03283985
  N -0.72118911  0.18482340 -1.95059274
  C -1.22474972 -0.32176938 -0.68853279
  C -2.50052903 -1.11860196 -0.92564194
  O -3.01373771 -1.31109257 -1.99214129
  O -2.97698400 -1.60256178  0.23201932
  C -4.17251209 -2.36558117  0.16507518
  C -1.55104815  0.93019167  0.12418626
  C -2.86147800  1.30688544  0.38951566
  C -3.13727407  2.47205302  1.08506997
  C -2.11085990  3.29451717  1.51175950
  C -0.80426883  2.95314073  1.20906066
  C -0.52991509  1.79142081  0.51094530
  H -0.87785818 -1.43037282  1.87763176
  H  0.31560869 -0.14537781  1.72888500
  H  0.83431966 -1.83442914  1.75048154
  H -1.14132588 -3.13743194  0.20798731
  H -0.73117152 -2.81724689 -1.48597809
  H  0.51578769 -3.32272595 -0.34620099
  H  1.59919406 -1.70240779 -1.42004504
  H  2.67720030 -0.75904662  0.61917749
  H  2.37203343  1.61754916 -1.27735402
  H  5.33668889  1.53228687  1.81161196
  H  3.77534144  0.79428149  2.18863534
  H  4.89087475 -0.01687405  1.08953763
  H  3.87297186  3.41093404 -0.96333531
  H  5.12745604  3.37566662  0.36474150
  H  1.05615674  0.35966852 -2.89226233
  H -4.27934684 -2.80947134 -0.82648858
  H -5.03018773 -1.72089798  0.36791971
  H -4.10410707 -3.13909292  0.92744520
  H -3.69038500  0.70741678  0.04861934
  H -4.16457624  2.73944187  1.28524914
  H -2.32467269  4.20168175  2.05706534
  H  0.00958641  3.59672415  1.50989094
  H  0.49416997  1.57162475  0.25465645
