43
opt_min/./Product_5608_opt.xyz
  O -1.28917200  1.52439800 -3.30744100
  C -0.91655339  0.44268210 -3.30156086
  O -0.54042608 -0.63723533 -3.28404927
  C  0.26197667  0.61199910 -0.11576447
  C  1.47158389  0.12736157  0.10991432
  C  1.61089377 -2.20637955 -2.41140834
  O  0.94965404 -3.00810882 -1.94071746
  O  2.30212110 -1.41034427 -2.86344063
  C  1.51239262 -0.61695006  1.40960379
  C  1.99815177 -2.09395454  1.25392389
  C  3.37512653 -2.26257559  0.66762801
  O  1.33082540 -3.00391413  1.64481501
  C  2.52339519  0.00311533  2.39428011
  O  2.60321775 -0.26134118  3.56213400
  O  3.34387708  0.84813130  1.76850301
  C  4.34021872  1.46755852  2.57523269
  N  0.13123581 -0.61171822  1.84761593
  C -0.20099195 -0.71559485  3.24297235
  C -0.68276650  0.22555161  0.98817498
  C -1.22128641  1.47458792  1.70661060
  O -2.29976730  1.18526696  2.42869662
  C -2.87085718  2.22809542  3.21245540
  O -0.71283517  2.56200652  1.63753009
  C -1.83683758 -0.59172785  0.35763662
  C -2.88097039  0.23673076 -0.35036383
  O -1.86728414 -1.78608992  0.41027791
  H -0.04342510  1.23637551 -0.93310365
  H  2.33783162  0.27035376 -0.50685591
  H  3.39782174 -3.16113460  0.05491646
  H  4.06854931 -2.41596967  1.49545157
  H  3.70312139 -1.40337907  0.09302146
  H  4.84277625  2.18703080  1.93473629
  H  3.87882587  1.96738193  3.42818243
  H  5.04560704  0.72005661  2.94343207
  H -1.24731908 -1.00801033  3.32256754
  H  0.41084544 -1.49868493  3.68342812
  H -0.03752826  0.21438536  3.80582147
  H -2.57282404  3.20050687  2.81691510
  H -2.52838641  2.13076684  4.24366209
  H -3.95134665  2.10747130  3.16747519
  H -2.53701628  1.24403165 -0.56698756
  H -3.18677430 -0.26566491 -1.26580774
  H -3.75585575  0.29545867  0.29594118
