52
opt_min/./Product_5596_opt.xyz
  C -1.25119377 -0.95535916  1.57629762
  C -1.15466668 -1.40431889  0.11399428
  C -2.16403779 -2.53586190 -0.08117477
  C  0.30167194 -1.77194078 -0.29031693
  C  0.32899268 -2.50019872 -1.64958033
  C  1.03709943 -2.68921354  0.68177529
  C  0.92319638 -0.35939133 -0.53130009
  C  2.11057803 -0.45859581 -1.49829501
  O  1.90447312  0.21821863 -2.61679038
  C  2.97455079  0.24079422 -3.55462679
  O  3.13102119 -1.03632271 -1.22033549
  C  1.53407846  0.51307168  0.57197084
  C  2.07330104  0.09298957  1.77840770
  C  2.64146600  1.01221442  2.64811709
  C  2.70132575  2.35426930  2.32410964
  C  2.20261187  2.77831076  1.10422295
  C  1.63757843  1.86514402  0.23611972
  O -0.13713756  0.37847924 -1.13170997
  C -1.41314476 -0.18740723 -0.83495113
  C -1.99643506 -0.59061151 -2.11074210
  N -2.46665582 -0.83114594 -3.12483278
  C -2.37052843  0.84098248 -0.25135276
  C -3.74127772  0.60155225 -0.31165340
  C -4.63051042  1.50824291  0.23314009
  C -4.16351757  2.66341222  0.83672309
  C -2.80377577  2.90379035  0.89454215
  C -1.90463949  1.99906294  0.35232090
  H -1.06132103 -1.79252297  2.24236675
  H -0.54586381 -0.15932773  1.79986279
  H -2.25484308 -0.58864103  1.78164283
  H -1.83077438 -3.41762123  0.46250841
  H -2.29753934 -2.79614231 -1.12768329
  H -3.13064158 -2.23840791  0.31962269
  H  1.35360398 -2.77370111 -1.89171596
  H -0.05999095 -1.88427282 -2.45603234
  H -0.25076990 -3.41805094 -1.60192139
  H  2.10436097 -2.63212224  0.48200239
  H  0.71639152 -3.71622307  0.51449107
  H  0.84811381 -2.45207331  1.72202891
  H  2.85154938  1.14563529 -4.14595205
  H  3.93215147  0.24175213 -3.03110329
  H  2.91977950 -0.63952346 -4.19821029
  H  2.06360355 -0.93938333  2.06664180
  H  3.04803722  0.66531813  3.58635135
  H  3.14744688  3.06228247  3.00689985
  H  2.26696803  3.81849499  0.81877070
  H  1.27783063  2.18338485 -0.73208648
  H -4.11359418 -0.29315410 -0.79143976
  H -5.69186786  1.31481417  0.17937283
  H -4.86298580  3.37445786  1.25258292
  H -2.42202393  3.79974672  1.36164441
  H -0.84701290  2.19040033  0.39811429
