45
opt_min/./Product_1152_opt.xyz
  C -2.85726500 -1.07545900 -2.99399400
  O -2.14507192 -1.01967926 -1.76148671
  C -1.77907195  0.17926692 -1.31042785
  O -1.99583178  1.21274075 -1.89169982
  C -0.99902073  0.11480247 -0.00409076
  C  0.39003481 -0.61373115 -0.04693497
  O  0.75201992 -1.30296347 -1.20639100
  C  1.04432993 -0.51927688 -2.35066060
  C  0.29664404 -1.57699417  1.15471959
  C -0.68952650 -2.69171762  0.78708331
  C -2.06401560 -2.00358950  0.91906194
  C -1.69716329 -0.54734301  1.20789480
  C -0.50941796 -0.74628722  2.15435471
  N  1.32642056  0.49796666  0.23218377
  C  2.72331541  0.41412837  0.37771471
  N  3.22997101 -0.80303167  0.06079945
  C  4.65646916 -1.02331884  0.15513351
  O  3.38195191  1.34732167  0.76005977
  N  0.70664091  1.66441454  0.42585111
  C -0.55958336  1.53325094  0.32197177
  C -1.53061175  2.62336172  0.51716041
  O -2.68341309  2.42837073  0.82563136
  O -0.97228507  3.81845779  0.35957395
  C -1.80417825  4.95562291  0.54862363
  H -3.74490613 -1.68738278 -2.83617611
  H -3.14148640 -0.07033049 -3.30951535
  H -2.21514320 -1.53646278 -3.74594052
  H  1.25836516 -1.23415308 -3.14326630
  H  1.91753518  0.11889329 -2.18703542
  H  0.20469674  0.11151474 -2.64524389
  H  1.27178754 -1.91786076  1.49599984
  H -0.50989518 -3.05524225 -0.22210366
  H -0.59330692 -3.52908933  1.47787204
  H -2.67336934 -2.12938926  0.03111363
  H -2.62145451 -2.40117728  1.76800206
  H -2.51787774  0.06253173  1.57917865
  H -0.78003863 -1.31842273  3.03810016
  H -0.01650322  0.17589180  2.45446760
  H  2.65043176 -1.50173003 -0.37659171
  H  4.88198710 -2.03781474 -0.15999877
  H  5.19685638 -0.31378777 -0.47618656
  H  4.98838821 -0.87443749  1.18402092
  H -2.67845781  4.68638662  1.14412821
  H -2.12590467  5.33084316 -0.42454941
  H -1.20651689  5.71049240  1.05726974
