48
opt_min/./Product_5731_opt.xyz
  O  3.87298700 -0.14503100 -1.08744700
  C  2.80174736 -0.65014126 -1.83047678
  O  2.94890503 -1.22191146 -2.87967607
  C  1.57461922 -0.30936756 -1.17702187
  C  0.17865081 -0.39127706 -1.76048527
  C -0.12209942  0.68363301 -2.82293031
  O -1.17478059  0.74862556 -3.38367654
  O  0.85390192  1.55919140 -3.07909989
  C -0.72332455 -0.25276033 -0.48676613
  C -1.25323816 -1.67822549 -0.17762158
  N -0.92613782 -2.18295534  1.02725647
  C -1.30609381 -3.52092179  1.41916960
  O -1.90737660 -2.28908592 -0.99213930
  C -1.84563033  0.75926415 -0.63872316
  C -3.17682057  0.39844918 -0.77894842
  C -4.14985533  1.37410366 -0.91305955
  C -3.80889674  2.71420850 -0.90839744
  C -2.47994539  3.07979493 -0.78237637
  C -1.50525647  2.10954143 -0.65125755
  N  0.21325039  0.19277475  0.55038861
  C -0.20661891  0.74589826  1.81182421
  C  1.48055038  0.10048867  0.12620163
  C  5.10620384 -0.72293373 -0.92895898
  C  5.20768293 -2.17692549 -1.25934636
  O  5.98298631 -0.03521855 -0.49860821
  C  2.61202974  0.28779370  1.10255994
  C  3.18229651  1.66937379  1.18689814
  O  2.96668082 -0.64536950  1.77733831
  H  1.68533938  1.33059901 -2.63620281
  H -0.02552241 -1.34830268 -2.24984740
  H -0.26948120 -1.71055303  1.62508736
  H -1.94569978 -3.92685716  0.63779677
  H -0.42657120 -4.15666977  1.53081849
  H -1.85246942 -3.49348103  2.36281128
  H -3.45684660 -0.64110721 -0.81372691
  H -5.18171970  1.07998173 -1.03128426
  H -4.57118657  3.47050044 -1.01715584
  H -2.19599608  4.12146268 -0.79807862
  H -0.46895325  2.41198930 -0.58403095
  H  0.41523183  0.35461285  2.62067053
  H -1.24818962  0.48601521  1.98964656
  H -0.12469663  1.83661199  1.81854547
  H  5.00550643 -2.32857165 -2.31912104
  H  6.20511833 -2.53439366 -1.02214196
  H  4.46553727 -2.73322563 -0.68876292
  H  3.98720455  1.74536667  0.45632154
  H  2.43688171  2.42707748  0.96264572
  H  3.61575732  1.82699042  2.17166510
