39
opt_min/./Product_4218_opt.xyz
  N  0.18022300 -1.35469200 -0.21607100
  C -1.00799862 -0.64696609 -0.67671249
  N -0.73251688 -0.21422807 -2.02532824
  N -2.23043042 -1.41523335 -0.68507435
  C -2.24852387 -2.53679837 -1.60822649
  C -1.18480948  0.57571497  0.31542905
  C -2.15102309  1.64014471 -0.23223408
  O -2.25962708  2.64018221  0.63452234
  C -3.08685244  3.72682455  0.23810993
  O -2.72720260  1.61065439 -1.28525620
  C -1.69189601  0.15933611  1.70236333
  O  0.06445886  1.25143785  0.35840328
  C  1.10316437  0.62004096  0.97466516
  C  2.41076876  0.82136302  0.54342225
  C  3.49817413  0.28000387  1.27678156
  C  4.78927289  0.44475725  0.84280437
  C  5.06218099  1.14587075 -0.32888283
  C  4.01157291  1.68576151 -1.06533014
  C  2.71367661  1.53029617 -0.64808989
  H  0.79280783 -1.55517822 -0.99494373
  H -0.02605675 -2.20726192  0.28712229
  H -1.56085147  0.23194995 -2.40533007
  H  0.01331569  0.47403205 -2.00180437
  H -2.46639851 -1.72838959  0.24861314
  H -1.59169561 -3.36731681 -1.31142575
  H -3.27035570 -2.90679259 -1.67127568
  H -1.93478838 -2.18023973 -2.58549531
  H -3.14339669  4.39273824  1.09501911
  H -4.07880570  3.36398980 -0.03839850
  H -2.64790102  4.24182290 -0.61830084
  H -1.13631082 -0.69854460  2.07292981
  H -2.74851499 -0.08669889  1.65150761
  H -1.56201666  0.99581150  2.38586163
  H  0.90701085  0.12833535  1.91485753
  H  3.29214032 -0.26557684  2.18605969
  H  5.60495629  0.02612246  1.41574580
  H  6.08102460  1.26965358 -0.66314169
  H  4.22162960  2.23105791 -1.97466558
  H  1.89806429  1.95442268 -1.21368895
