44
opt_min/./Product_2141_opt.xyz
  C -0.02168382  3.15446205 -3.01162895
  O -0.40509933  2.50345621 -1.80284606
  C  0.17211659  1.34476297 -1.51877075
  O  0.98634809  0.78766614 -2.20461401
  C -0.40973359  0.73498063 -0.25462126
  C -1.64358112 -0.13817974 -0.58845432
 Br -2.55318564  0.26235232 -2.28127254
  C -2.58624185  0.27333400  0.60237236
  C -3.17398033  1.60717280  0.18002480
  C -2.16851378  2.46521700  0.28123474
  C -1.00742203  1.67478975  0.83489978
  O -1.67500408  0.67170435  1.61062774
  C -1.10941006 -1.58394377 -0.68597621
  C -2.12793519 -2.65898902 -0.29043845
  C -0.64031270 -1.86612767 -2.04626025
  N -0.18839902 -2.16757265 -3.05093260
  N  0.12554487 -1.61573162  0.08656683
  C  0.57598247 -0.27439662  0.41882470
  C  2.03880119  0.01588212 -0.05091971
  N  2.67044605 -1.06428704 -0.51960138
  C  3.99536685 -0.98254357 -1.08617934
  O  2.52689974  1.11204318  0.09906855
  C  0.67965578 -0.08770291  1.94226714
  O  1.06737278  0.90844160  2.48210602
  O  0.39050851 -1.22046548  2.59663005
  C  0.50285359 -1.20078869  4.01437761
  H  0.27382505  4.17131253 -2.75958704
  H  0.80805587  2.61881841 -3.47433603
  H -0.88466890  3.16281513 -3.67809253
  H -3.26931116 -0.49234005  0.95782885
  H -4.17816723  1.74472060 -0.16671273
  H -2.12893562  3.50818215  0.04724440
  H -0.26778406  2.21645932  1.41219738
  H -3.14312354 -2.30186220 -0.45067643
  H -1.99090379 -3.55351950 -0.89475199
  H -2.00729593 -2.92354653  0.75825373
  H  0.06585644 -2.20013259  0.91237277
  H  2.15068324 -1.92496779 -0.60863336
  H  4.55633549 -0.22410022 -0.54127633
  H  3.94474125 -0.68788024 -2.13706535
  H  4.48820839 -1.94784239 -0.99989846
  H  0.62670020 -0.17334921  4.35906773
  H -0.40937367 -1.63404750  4.42146333
  H  1.36761450 -1.79785262  4.30734393
