40
opt_min/./Product_4762_opt.xyz
  C -0.31328600  1.22177300  1.01193100
  C  1.19494479  1.43963410  0.94066181
  C  1.62903989  0.09276472  0.31817286
  C  1.66338601 -1.03923519  1.37460991
  C  2.56463111 -0.82570788  2.55488582
  O  1.01060071 -2.03489796  1.21374718
  C  2.98966573  0.22576945 -0.35915702
  O  4.02387468  0.38575706  0.24516747
  O  2.89632089  0.12590244 -1.66694910
  C  4.10616052  0.25475244 -2.40229038
  O  0.63932672 -0.18891220 -0.64701294
  C -0.58475404  0.44172364 -0.29029852
  C -0.97599901  1.39204761 -1.42995034
  O -2.08571765  2.07504375 -1.11713721
  C -2.58396840  2.93754308 -2.13067212
  O -0.39391718  1.50178757 -2.47153780
  C -1.71881544 -0.56283744 -0.17878269
  C -2.87514912 -0.27655164  0.52753898
  C -3.89558856 -1.21148592  0.58851151
  C -3.76788669 -2.42859192 -0.05553185
  C -2.61521445 -2.71129455 -0.77233057
  C -1.59589514 -1.78186497 -0.83919140
  H -0.87874821  2.14670816  1.06204634
  H -0.56937769  0.59714322  1.87102810
  H  1.43729235  2.24506291  0.24680683
  H  1.65876071  1.64589667  1.90041713
  H  2.08812120 -0.15226196  3.26146638
  H  2.73470710 -1.77293334  3.05593249
  H  3.50609367 -0.38614317  2.23500080
  H  4.84227482 -0.46886908 -2.04759901
  H  3.84738509  0.06317669 -3.43819048
  H  4.51364141  1.26077461 -2.28598132
  H -3.51855379  3.33877606 -1.74957932
  H -1.87519793  3.74185840 -2.33101205
  H -2.75592572  2.38125142 -3.05343089
  H -2.98930508  0.67328578  1.03054173
  H -4.79057244 -0.98205689  1.14669453
  H -4.56482096 -3.15448327  0.00118079
  H -2.51589492 -3.65683369 -1.28146585
  H -0.68929086 -1.98099986 -1.38412677
