43
opt_min/./Product_4430_opt.xyz
  C  3.84057000  1.12285400 -1.46750200
  C  2.77032032  0.99808770 -0.42224462
  C  3.09290671  1.70393019  0.85995491
  C  1.66320426  0.30422608 -0.66698309
  C  0.51893126  0.06312059  0.26001938
  C -0.85917389  0.48479016 -0.32570045
  C -1.42458293  1.68172280  0.39473497
  C -1.09318193  2.99518653 -0.24821238
  C -2.09611044  1.58377506  1.53104576
  C -1.67694278 -0.82836401 -0.14917191
  C -3.17366243 -0.69429167 -0.25071343
  C -3.63619891 -0.04908619 -1.52333022
  O -3.93694188 -1.10869543  0.58689224
  C -1.02464651 -1.71729651 -1.25013437
  O -1.44388886 -1.97710381 -2.34077082
  O  0.14301673 -2.09561892 -0.75959573
  C  0.26475875 -1.43527115  0.55142660
  C  1.31462378 -2.12940347  1.38115195
  N -1.08045752 -1.39981578  1.06082955
  C -1.61886179 -2.66502714  1.52870362
  H  4.76418407  0.67247056 -1.10723042
  H  4.04690829  2.17005787 -1.67941076
  H  3.55218905  0.62806400 -2.38952963
  H  3.95125541  1.22889901  1.33384859
  H  3.36773906  2.73645333  0.65135482
  H  2.26798112  1.70133136  1.56427128
  H  1.55141454 -0.16338847 -1.63698581
  H  0.66510502  0.55264096  1.22242014
  H -0.75756275  0.72044886 -1.38882630
  H -0.01465384  3.08307708 -0.37576949
  H -1.54764023  3.06482611 -1.23600941
  H -1.44604275  3.82363983  0.35665243
  H -2.30722544  0.63381361  1.98730000
  H -2.46570232  2.45705509  2.03804194
  H -3.24434334  0.95911295 -1.61529611
  H -4.72103056 -0.02666065 -1.54786747
  H -3.25773487 -0.63889888 -2.35851965
  H  1.16186419 -3.20450324  1.36392976
  H  2.29532189 -1.90676779  0.97052722
  H  1.26334955 -1.76916762  2.40346422
  H -1.12239866 -2.91757403  2.46368285
  H -2.68055944 -2.53636873  1.71571932
  H -1.48070314 -3.48252653  0.81140926
