36
opt_min/./Product_3660_opt.xyz
  N -0.48692100 -0.18799000  0.68911100
  C -1.56063435 -0.20173308 -0.25970082
  N -2.35669868 -1.38567580 -0.00650912
  N -2.28875884  1.07578104 -0.19361489
  C -3.07548363  1.30709805  1.00329927
  C -0.94856233 -0.24331269 -1.70004428
  C -1.87903656 -0.87070179 -2.73653675
  O  0.27587560 -0.94704565 -1.81126517
  C  1.10989520 -1.19287937 -0.74205446
  C  0.98569151 -2.58800096 -0.21630451
  C  2.19061526 -0.32595730 -0.50882163
  C  2.33305342  0.86302475 -1.27319737
  C  3.36937238  1.73588622 -1.06248828
  C  4.31534800  1.48481720 -0.07365330
  C  4.19869269  0.33358577  0.69751952
  C  3.16620120 -0.54991506  0.49547504
  H -0.69522891 -0.64145118  1.56671941
  H -0.11266917  0.73937887  0.82811491
  H -2.65322491 -1.41651779  0.96202203
  H -3.17707721 -1.41072742 -0.59729878
  H -2.85711352  1.21048783 -1.02065695
  H -3.81212063  0.51896461  1.22249358
  H -2.40090054  1.39451590  1.85703130
  H -3.60674466  2.24882513  0.89234882
  H -0.77572618  0.81381418 -1.97012337
  H -2.81264260 -0.31754124 -2.81338862
  H -2.07582527 -1.90488836 -2.47217927
  H -1.38199923 -0.85214933 -3.70148696
  H  1.10320545 -3.29118021 -1.04263762
  H -0.01307616 -2.73973147  0.19228594
  H  1.72632370 -2.82024984  0.53960308
  H  1.61185095  1.06115205 -2.05135533
  H  3.45001538  2.62583151 -1.67093008
  H  5.12995179  2.17354503  0.09474404
  H  4.92850687  0.13834444  1.47121179
  H  3.10323469 -1.42932311  1.11677061
