68
opt_min/./Product_2830_opt.xyz
  C -3.33676100 -2.61465300  1.22513700
  O -2.11533253 -1.94626470  1.03513204
  C -2.01984564 -0.95184787  0.00651402
  C -2.78286236 -1.49951269 -1.23964516
  C -2.04205025 -2.28161016 -2.28743866
  O -3.97858616 -1.35635630 -1.30867866
  C -0.53051466 -0.81818384 -0.22856356
  C  0.28249902  0.20658887 -0.54426905
  C  0.03627662  1.70915345 -0.52924277
  C  1.33291827  2.46770082 -0.96809608
  C  2.07478453  3.30075947  0.04311509
  O  1.65782526  2.47972348 -2.12709588
  C -0.23527242  2.11973886  0.93186026
  C -0.84459576  3.47861551  1.18633326
  O  0.05459912  1.40136565  1.85779692
  C -1.03018529  2.23405079 -1.52209206
  C -2.30867098  1.44757046 -1.78393567
  C -3.24793692  1.25403235 -0.59995781
  C -2.71365073  0.33957370  0.50064870
  C  1.66737510 -0.31929014 -0.90324131
  C  1.92999894 -0.45655066 -2.43380078
  C  0.82975069 -0.12805898 -3.39780274
  O  2.98248313 -0.90371690 -2.80711158
  C  2.81785443  0.33303586 -0.16028032
  C  3.96967054  0.80924357 -0.77480578
  C  5.02240820  1.28788771 -0.01213863
  C  4.94437726  1.30272135  1.36966236
  C  3.80032566  0.82976529  1.99050237
  C  2.75245089  0.34203339  1.23301509
  N  1.59980689 -1.74923829 -0.56383943
  C  0.34427091 -2.03309789  0.09588148
  C -0.04344058 -3.47490410 -0.24426656
  O -0.61938104 -4.08695219  0.78919180
  C -0.92852242 -5.46232405  0.61030033
  O  0.24155898 -4.03775197 -1.26868139
  H -4.19181813 -1.93367348  1.27691219
  H -3.53241854 -3.35054854  0.43680881
  H -3.22997150 -3.12958217  2.17811658
  H -2.35169356 -3.32428530 -2.21516305
  H -2.36711103 -1.93215229 -3.26832578
  H -0.96496844 -2.22502782 -2.21441801
  H  1.81788851  3.08243398  1.07159835
  H  3.14422069  3.15569915 -0.09934176
  H  1.86911768  4.34963593 -0.17489614
  H -0.56612126  4.22000516  0.44533323
  H -0.54006602  3.81338728  2.17603246
  H -1.92885439  3.37632477  1.19414879
  H -1.32819264  3.23532004 -1.20972724
  H -0.52519125  2.34358929 -2.48502366
  H -2.09117587  0.48313034 -2.24367500
  H -2.85123053  2.03553978 -2.53137413
  H -3.50474197  2.22672215 -0.17370767
  H -4.16960475  0.81607076 -0.98456482
  H -3.55861005  0.03532609  1.12155174
  H -2.02451047  0.85537762  1.15719210
  H  0.93371710  0.92578442 -3.65060593
  H  0.96571106 -0.71544887 -4.30238170
  H -0.15180035 -0.29516351 -2.97393229
  H  4.05460475  0.81584813 -1.84795608
  H  5.91293089  1.64753537 -0.50673589
  H  5.76873525  1.67642525  1.95886804
  H  3.72375034  0.83503551  3.06778577
  H  1.86693964 -0.02771032  1.72691202
  H  2.39171953 -2.05216530 -0.01200382
  H  0.42838774 -2.02437441  1.19965665
  H -1.75304602 -5.57949331 -0.09635456
  H -1.21362935 -5.83899017  1.58901520
  H -0.05815483 -5.99665299  0.22383143
