57
opt_min/./Product_2135_opt.xyz
  C  2.25432700 -2.41643000  0.99392000
  O  1.21340974 -1.46452126  1.04925461
  C  0.79453808 -0.88905908 -0.13824815
  O  0.56506994 -1.92010411 -1.08779749
  C  1.44492074 -2.19212985 -2.15156366
  C -0.60981275 -0.13557080  0.06664015
  C -1.70255014 -0.88113138 -0.71065047
  C -2.75082040 -1.52979288 -0.07406806
  C -3.74290262 -2.16290550 -0.80511849
  C -3.70611482 -2.16477254 -2.18599611
  C -2.65579270 -1.53798487 -2.83234328
  C -1.66678464 -0.90655679 -2.10295643
  C -1.09842429  0.03162226  1.50406148
  C -1.91396910  1.12166440  1.80388959
  C -2.42930276  1.31886548  3.07195729
  C -2.16642410  0.41151857  4.08096648
  C -1.42165732 -0.71311537  3.78130542
  C -0.91021833 -0.91051682  2.50954253
  C -0.35892956  1.26052303 -0.61723477
  C -1.52229347  1.73867404 -1.50304171
  C -1.21658456  2.10413350 -2.93642142
  O -2.62697105  1.91628756 -1.05127379
  C  0.02200780  2.35488594  0.40448254
  C -0.38705259  3.76881183  0.06898654
  O  0.75848570  2.11166514  1.32733134
  N  0.86601962  1.08676704 -1.40583197
  C  1.75820555  0.21332915 -0.67398168
  C  2.71002060  0.87616089  0.34478388
  C  3.31117933  2.19457695 -0.11052189
  O  3.10212353  0.32971658  1.33629013
  H  2.44956654 -2.67022334  2.03432651
  H  1.93897878 -3.31353248  0.45006548
  H  3.16811722 -2.00523493  0.55685492
  H  1.39647897 -1.41608056 -2.92456425
  H  2.48383096 -2.33550687 -1.84078141
  H  1.07279370 -3.12499539 -2.57447293
  H -2.80735027 -1.54684211  1.00220484
  H -4.55076690 -2.65615900 -0.28482122
  H -4.48437402 -2.65252083 -2.75453492
  H -2.60353421 -1.54283421 -3.91213958
  H -0.84016642 -0.45428469 -2.62371831
  H -2.19960528  1.81801045  1.03352744
  H -3.04606966  2.18495349  3.26432506
  H -2.55729201  0.56706020  5.07592765
  H -1.23774533 -1.45839324  4.54167613
  H -0.36708778 -1.81496824  2.31070674
  H -2.04733846  1.77610031 -3.55718859
  H -0.28702397  1.67648661 -3.29242949
  H -1.17233561  3.19075496 -3.01144048
  H -1.46854297  3.86683711  0.12565327
  H -0.07940692  4.03007559 -0.94176471
  H  0.06899594  4.45348008  0.78072056
  H  1.30039679  1.98333945 -1.60880419
  H  2.46754583 -0.22212125 -1.39311632
  H  3.26322996  2.33714598 -1.18750183
  H  2.79759509  3.00936005  0.39510129
  H  4.35048549  2.21727349  0.21113050
