52
opt_min/./Product_5584_opt.xyz
  C  5.07073100  0.99662700  0.51825000
  C  4.62460368 -0.17203417 -0.31018645
  C  5.71238571 -0.85377050 -1.08185030
  C  3.35654422 -0.59416317 -0.38299835
  C  2.22554500 -0.01817034  0.30154460
  C  0.98169022 -0.48061481  0.15954018
  C -0.19869302  0.08085352  0.89122924
  C -0.04570629 -0.22394186  2.39464245
  C -0.39093125  1.60317860  0.73703296
  C -1.84084921  1.76571589  1.21345030
  C -2.53264868  2.96529248  0.57051588
  O -3.78780882  2.70399428  0.25513182
  C -4.51302785  3.75126503 -0.37281797
  O -1.98881630  4.03009812  0.41953376
  O -2.50006630  0.53981195  0.95546899
  C -1.58828138 -0.34151695  0.31009140
  C -1.60333307  0.02505078 -1.19501537
  O -2.21967673  0.95091012 -1.64944624
  O -0.87079151 -0.81799910 -1.92192738
  C -0.80158909 -0.59609902 -3.32618303
  C -2.12125579 -1.75732627  0.41180501
  C -3.09499639 -2.13281947 -0.51197113
  C -3.64939393 -3.39907437 -0.49575419
  C -3.24921984 -4.32223748  0.45423687
  C -2.30892170 -3.95034807  1.39664033
  C -1.75791598 -2.67860311  1.38355324
  H  4.89513622  1.92902425 -0.02022091
  H  4.53468358  1.04718145  1.46309656
  H  6.13610327  0.92585488  0.72829554
  H  5.30623053 -1.51712699 -1.84192483
  H  6.35654131 -0.11742535 -1.56133952
  H  6.33278231 -1.44526190 -0.40603067
  H  3.12651036 -1.44268705 -1.01616112
  H  2.41103207  0.83322262  0.93982450
  H  0.79729952 -1.32322751 -0.49097813
  H  0.55699035  0.55513961  2.85686434
  H  0.47491681 -1.16648664  2.54654182
  H -1.01103468 -0.25281166  2.89387317
  H -0.30315810  1.88964779 -0.31158836
  H  0.29600662  2.21351054  1.31634721
  H -1.86003046  1.93963850  2.30185202
  H -5.55563707  3.44369507 -0.37147845
  H -4.15687243  3.88633725 -1.39617138
  H -4.38086889  4.68767313  0.17460317
  H  0.24237414 -0.43375423 -3.59339181
  H -1.39957089  0.27714037 -3.59325984
  H -1.18412588 -1.48414108 -3.82996722
  H -3.45369425 -1.41760987 -1.23790454
  H -4.40199814 -3.66158973 -1.22515826
  H -3.67737622 -5.31361694  0.46211142
  H -1.99531788 -4.65076645  2.15710542
  H -1.03498343 -2.43710691  2.14022098
