44
opt_min/./Product_1014_opt.xyz
  C -1.80649800 -0.06569200  1.97883800
  O -2.25819938 -1.02797878  1.03719963
  C -1.63917214 -0.96416671 -0.22562157
  C -0.11561694 -1.32481317 -0.32905009
  O  0.54812351 -1.64653194  0.85926187
  C  0.17976504 -2.85173451  1.50667848
  C -0.19997479 -2.51942689 -1.34774236
  C -0.60962083 -1.93379037 -2.68895684
  C -1.89799673 -1.65399350 -2.56803124
  C -2.25479981 -2.06935070 -1.15197766
  O -1.39207191 -3.16573145 -0.93478280
  C  0.52436684 -0.03687842 -0.93880410
  C  1.50912324  0.60794664  0.00762207
  C  1.13933822  1.67695015  0.81072400
  C  2.04317780  2.22531250  1.70423756
  C  3.32180398  1.70636783  1.80678369
  C  3.69782227  0.64461327  1.00105793
  C  2.79832402  0.10133934  0.10320378
  N -0.55300537  0.85044641 -1.27161286
  C -1.67537257  0.40048212 -0.89680548
  C -2.94510449  1.14640001 -1.14732583
  N -4.01334539  0.62870112 -0.49316170
  C -5.30117077  1.27879975 -0.55499975
  O -3.01953982  2.11110472 -1.87537951
  H -0.73412089 -0.15884083  2.15588484
  H -2.03988172  0.94919821  1.64350879
  H -2.35412377 -0.28367498  2.89363039
  H  0.62344427 -2.78667592  2.49789653
  H -0.90160092 -2.95976220  1.59057350
  H  0.58840018 -3.72080109  0.98507058
  H  0.64804160 -3.19721348 -1.33564386
  H  0.05137413 -1.79232390 -3.52031948
  H -2.58546982 -1.19803742 -3.25101515
  H -3.28286899 -2.32677047 -0.92284731
  H  1.05120995 -0.29043827 -1.86411403
  H  0.15198621  2.10138960  0.71612827
  H  1.74520292  3.05903818  2.32249256
  H  4.02761070  2.12887670  2.50650598
  H  4.69698316  0.23998117  1.07025076
  H  3.09267622 -0.72814461 -0.52325002
  H -3.87301084 -0.08491350  0.20819296
  H -5.47559115  1.61250792 -1.57728955
  H -6.07578766  0.57602333 -0.25924977
  H -5.33502492  2.15583284  0.09688430
