57
opt_min/./Product_2983_opt.xyz
  C -1.57276392  1.56890823 -2.42190354
  C -1.67948269  0.84008665 -1.05741238
  C -2.19014154  1.93490396 -0.09090605
  F -1.88128622  1.74896762  1.19712567
  F -1.69010086  3.15048636 -0.37728162
  F -3.51695578  2.08970473 -0.14739034
  C -0.31171959  0.29881632 -0.61786753
  C  0.16798197 -0.76322810  0.07492990
  C -0.46574083 -1.75546386  1.06119174
  C  0.28719720 -3.13336448  1.08977667
  F -0.46730762 -4.12626463  1.58719682
  F  1.37173969 -3.14470407  1.86550969
  F  0.64593717 -3.54768800 -0.12294185
  C -0.33431572 -1.18955951  2.50664858
  F -0.94040673 -1.99818067  3.38615789
  F -0.87329204  0.01674477  2.66194816
  F  0.92376411 -1.05227255  2.93163606
  C -1.94884393 -2.15782096  0.83717606
  C -3.03020822 -1.09266992  1.02873563
  C -3.69184719 -0.74888830 -0.29255262
  C -2.70344256 -0.29057553 -1.36043539
  C  1.63698130 -0.95600338 -0.37390718
  C  2.77497041 -1.52101998  0.51534745
  C  3.30704169 -0.56543311  1.53909780
  O  3.27927504 -2.58563717  0.28493906
  C  1.53340607 -1.70585487 -1.75554164
  C  2.82014772 -2.08052711 -2.40942086
  O  0.45799713 -1.87085040 -2.27218572
  N  2.03596297  0.41295104 -0.63723748
  C  0.87763915  1.07167176 -1.21954937
  C  0.92045043  2.54572706 -0.72298705
  O  0.93967719  2.54695549  0.59246496
  C  0.98515579  3.80596820  1.26225304
  O  0.97372386  3.49816293 -1.44893528
  C  1.02813375  0.99581554 -2.66308750
  N  1.37444744  0.87133328 -3.74674364
  H -1.32658145  0.85179825 -3.19987139
  H -2.54699916  2.00213276 -2.65008391
  H -0.86018648  2.38725723 -2.44719643
  H -2.00846114 -2.58786738 -0.16785392
  H -2.17117754 -2.95886208  1.54053160
  H -2.63607603 -0.19501431  1.48476531
  H -3.78887176 -1.47809095  1.71032552
  H -4.19280068 -1.63791019 -0.68312942
  H -4.46064796  0.00527578 -0.12903822
  H -3.30923510  0.03731358 -2.20641143
  H -2.10779069 -1.13386704 -1.71421595
  H  4.27541098 -0.21169737  1.18618459
  H  2.65714282  0.28637139  1.69697407
  H  3.47303447 -1.10418735  2.46824105
  H  3.01196683 -3.12540629 -2.16406037
  H  3.66603449 -1.49433894 -2.06336336
  H  2.70846254 -1.99464411 -3.48829528
  H  2.86357428  0.49044625 -1.22233217
  H  1.76721357  3.74281739  2.01688126
  H  0.01978241  3.97423066  1.73891046
  H  1.19700596  4.60240909  0.54827415
