58
opt_min/./Product_5904_opt.xyz
  C -0.86427066 -1.84262921  0.98338964
  O -0.53394300 -2.51064928  1.93949258
  C  0.20015682 -1.10934771  0.14876060
  O  0.88311318 -2.02900218 -0.65665939
  C  0.12654249 -2.68412602 -1.64366961
  C -0.42218295  0.10687667 -0.60547228
  O  0.60390724  0.47109918 -1.49317483
  C  0.62269113  1.72392174 -2.13974290
  C -1.73228428 -0.19788994 -1.29107112
  O -2.01607395  0.25266674 -2.38529802
  C -2.66330072 -1.06427644 -0.54544966
  C -4.06536961 -1.10974772 -1.05233347
  C -2.26794102 -1.78477786  0.52986616
  C -3.22882344 -2.63697686  1.29308778
  C -0.57843108  1.01918638  0.67353420
  C -1.29126550  2.34920009  0.62381867
  C -1.52200434  3.00094968  1.83562797
  C -2.19399828  4.20717141  1.88068015
  C -2.68326429  4.77809519  0.71791966
  C -2.51465975  4.11041299 -0.48022816
  C -1.83145667  2.90539301 -0.52806957
  N  0.81244926  1.02368194  1.07529755
  C  1.27023418  1.82323798  2.18268143
  C  1.24042053 -0.38563216  1.07947421
  C  1.25772888 -0.89117963  2.44678565
  N  1.41407728 -1.07766290  3.56614373
  C  2.66008005 -0.54788019  0.55932429
  C  3.31109720  0.48991418 -0.08828570
  C  4.59978420  0.30819363 -0.55916773
  C  5.24201335 -0.90535799 -0.38554198
  C  4.59367539 -1.94051376  0.26627696
  C  3.30686332 -1.76328657  0.74082733
  H -0.61755629 -3.36151728 -1.20680805
  H  0.84812510 -3.26124301 -2.21904426
  H -0.37657759 -1.97710301 -2.30913004
  H  0.62359636  2.55153156 -1.42503021
  H  1.56173342  1.72498938 -2.69290808
  H -0.20028332  1.83388900 -2.84943349
  H -4.13201692 -0.54345192 -1.97796673
  H -4.74765514 -0.67646116 -0.32100581
  H -4.37998512 -2.13669488 -1.23037962
  H -3.63779884 -3.41872908  0.65320643
  H -4.06191351 -2.03763244  1.65750424
  H -2.71914658 -3.09904178  2.13496840
  H -1.18743440  0.39857192  1.37715099
  H -1.19069730  2.55272870  2.75902902
  H -2.34657393  4.69564742  2.83168124
  H -3.21039337  5.71907466  0.75051952
  H -2.92094918  4.52146877 -1.39218790
  H -1.75498014  2.40167909 -1.47401298
  H  2.33785919  1.64097095  2.30836645
  H  0.77945204  1.59648179  3.13850524
  H  1.12131455  2.87512244  1.94061285
  H  2.80982537  1.43351201 -0.22328011
  H  5.10323043  1.11851234 -1.06557666
  H  6.24752764 -1.04304157 -0.75610159
  H  5.09003196 -2.88872407  0.40725472
  H  2.80058899 -2.56964079  1.25013554
