35
opt_min/./Product_196_opt.xyz
  C  3.97746800  0.03267300  0.67783800
  C  3.09596783  0.79031754 -0.27949766
  O  3.29188295  1.95911296 -0.54581251
  C  1.97874660  0.06201483 -0.87688789
  C  1.47417938 -1.17629626 -0.71993105
  C  1.85805236 -2.31582914  0.14594280
  C  0.29285989 -1.22698241 -1.66952900
  C -0.85793528 -0.39123552 -1.03284145
  C -0.27311480  1.02545010 -1.15126522
  C  1.06478110  0.72039304 -1.90355488
  O  0.70103616 -0.37416075 -2.72328107
  C -0.10882842  1.43798762  0.29182547
  C  0.44034579  2.76008615  0.67210587
  N -0.48463085  0.57490658  1.13762400
  C -1.09227738 -0.55868630  0.49150565
  C -2.60369712 -0.55976223  0.71029480
  C -3.26442036 -1.90437553  0.52325313
  O -3.22361722  0.43573063  0.97140695
  H  4.82844988  0.65003731  0.95475142
  H  4.32196123 -0.89460240  0.23019567
  H  3.40955947 -0.20335407  1.57526101
  H  1.97257194 -2.00317954  1.18228061
  H  2.81235453 -2.72888775 -0.18424313
  H  1.11300572 -3.10601132  0.08925359
  H  0.00425251 -2.20842180 -2.03835011
  H -1.76892256 -0.54813350 -1.60710326
  H -0.87885215  1.72921430 -1.72017556
  H  1.48880093  1.53835673 -2.47663583
  H  0.74975658  2.74690963  1.71347074
  H -0.33912297  3.51210427  0.55903927
  H  1.28173569  3.02833318  0.03821062
  H -0.66584886 -1.47844145  0.89924463
  H -3.66420455 -2.22688175  1.48264816
  H -4.10881802 -1.79672856 -0.15537496
  H -2.57639520 -2.65308847  0.14454791
