30
opt_min/./Product_3296_opt.xyz
  C  1.90253194  0.40358284 -0.93664120
  C  1.12288806  0.46205458  0.37378869
  C  0.55308338 -0.89544920  0.86345869
  C  1.09118254 -2.11885856  0.12972318
  C -1.00179356 -0.71527816  0.79009104
  C -1.80965776 -1.94110205  0.39171015
  N -1.26464314  0.45293713 -0.04373422
  C -1.52300950  0.19901192 -1.44521776
  C -0.15521431  1.35456335  0.26288602
  C -0.42133148  2.09423731  1.58474775
  C  0.00014714  2.41052143 -0.72074519
  N  0.14881552  3.28183964 -1.44639181
  H  2.23770756  1.40123966 -1.21918956
  H  1.28939126  0.02524380 -1.75159608
  H  2.77422180 -0.23652916 -0.82324036
  H  1.78514646  0.88622317  1.13665594
  H  0.80853334 -1.02157953  1.92236883
  H  0.83838150 -2.10247593 -0.92785938
  H  0.66576841 -3.02121465  0.56478707
  H  2.17263757 -2.17199269  0.22779941
  H -1.33943608 -0.43610462  1.79700785
  H -1.63165435 -2.74092083  1.10925144
  H -2.86553121 -1.68377469  0.40113544
  H -1.54639359 -2.30601984 -0.59714718
  H -2.52725560 -0.20880995 -1.54170113
  H -1.47757631  1.14228999 -1.99212766
  H -0.80914988 -0.49485497 -1.91430566
  H -1.41950792  2.52553295  1.56422951
  H  0.30736934  2.89766576  1.70209354
  H -0.32565254  1.43183607  2.44164354
