26
opt_min/./Product_3487_opt.xyz
  C -0.54771988 -0.77468067  1.05310422
  C -0.67460683 -2.20599548  0.52946971
  C -0.57221379 -1.99145819 -0.99379827
  C -0.16439064 -3.18625679 -1.70205494
  N  0.11115166 -4.15252831 -2.24562718
  O  0.39135145 -0.96644596 -1.13494995
  C  0.14222650 -0.02612608 -0.12188366
  C -0.75943595  1.10447932 -0.66751981
  O -1.14177675  1.91147068  0.31124034
  C -1.91962699  3.05683672 -0.03504941
  O -1.06243366  1.19906952 -1.82515076
  C  1.45698292  0.63024934  0.31981165
  O  1.51928318  1.44028803  1.20428611
  O  2.46531058  0.21753819 -0.42247323
  C  3.75133765  0.77109514 -0.15791467
  H -1.51782757 -0.32818555  1.26453145
  H  0.05758264 -0.71504716  1.95619639
  H  0.17077285 -2.80971327  0.86202259
  H -1.60077590 -2.69585291  0.81907976
  H -1.54303663 -1.66651518 -1.41110785
  H -1.29432307  3.94265148  0.08102315
  H -2.76233414  3.10553329  0.65260798
  H -2.26706239  2.97462242 -1.06653929
  H  3.65825099  1.69392930  0.41760178
  H  4.34110767  0.04584954  0.40576552
  H  4.22130511  0.96169786 -1.12134001
