53
opt_min/./Product_2872_opt.xyz
  N -2.71401380  2.39252001 -1.63776933
  C -2.36684712  1.34851475 -1.33179771
  C -1.98966336 -0.01745080 -1.01490601
 Br -2.12923109 -0.83081207 -2.89336925
  C -0.54087084 -0.05664728 -0.63118622
  C  0.35970944 -1.06418213 -0.51368770
  C  0.18972129 -2.49774665 -0.17403759
 Cl  1.54985151 -3.47131499 -0.82245917
 Cl  0.39409789 -2.59232834  1.65315478
  C -1.11169682 -3.19919605 -0.55874838
  C -2.30509270 -3.03949373  0.38802874
  C -2.62422477 -1.64804570  0.92599501
  C -3.06678129 -0.60768501 -0.09709515
  C  1.75043921 -0.44071562 -0.57497714
  C  2.54739330 -0.68441390  0.74908019
  N  2.38156522  0.30331619  1.64532787
  C  3.04540089  0.27003498  2.92722892
  O  3.19436078 -1.68310832  0.94863837
  C  2.61583931 -0.98593981 -1.75123623
  C  1.90686777 -1.43567406 -3.00651252
  O  3.81208345 -0.95633453 -1.67234436
  N  1.50495013  1.00421394 -0.74499096
  C  2.01093771  1.66762128 -1.94028557
  N  0.09441948  1.18898901 -0.59174853
  C -0.32178946  2.19722979  0.29474515
  C -1.16164913  1.89605934  1.36823879
  C -1.61484843  2.89094424  2.21130264
  C -1.20813782  4.20127044  2.02296429
  C -0.33517075  4.49796998  0.99078084
  C  0.10589492  3.51053811  0.12952779
  H -1.36002972 -2.91037908 -1.57808560
  H -0.89616878 -4.26930283 -0.58861517
  H -3.18390752 -3.43720962 -0.12332909
  H -2.12056639 -3.67030648  1.25874138
  H -1.78129862 -1.28318674  1.51181664
  H -3.46547227 -1.76639722  1.61416482
  H -3.86892273 -1.02498635 -0.71027167
  H -3.50080816  0.23762255  0.44913574
  H  1.92205498  1.15372392  1.35971090
  H  2.98477579 -0.74228452  3.32677781
  H  4.10163397  0.53554633  2.83380275
  H  2.55444584  0.96411150  3.60472313
  H  2.18211785 -2.46787276 -3.21194903
  H  0.82667817 -1.35244299 -2.94690430
  H  2.27906271 -0.84961635 -3.84689955
  H  1.33364026  2.48024647 -2.19339390
  H  2.99467750  2.07678741 -1.70810977
  H  2.09245378  1.02984813 -2.81892975
  H -1.43967292  0.87056180  1.55379602
  H -2.27170796  2.63813052  3.03014816
  H -1.55862083  4.98085251  2.68136016
  H  0.00370684  5.51190222  0.84275964
  H  0.78183285  3.77638840 -0.66593671
