48
opt_min/./Product_5136_opt.xyz
  C -0.53061779  0.98775816 -0.40910837
  C  0.03282097  0.07222446  0.67629899
  C -0.79061492 -1.21426416  0.78529748
  N -2.20962590 -1.04357463  0.64222738
  C -3.03156283 -2.01245417  1.32550632
  C -2.74152539  0.14895498  0.25698945
  C -2.01592932  1.16419816 -0.25366128
  C -2.55565415  2.45269470 -0.70250145
  N -3.90147047  2.65764884 -0.57327033
  O -1.85338042  3.31523673 -1.19998619
  C -0.14113176 -2.16472376 -0.27831026
  C -0.97817726 -2.34379845 -1.55709379
  C -0.00391793 -3.47240188  0.33918619
  N  0.06040338 -4.49078560  0.85754633
  N  1.13457574 -1.53897608 -0.60552362
  C  2.19719698 -2.43778384 -0.99466550
  C  1.44508835 -0.45700879  0.32539412
  C  2.17498942 -0.96184772  1.58395683
  C  2.24746922  0.63658878 -0.36407768
  C  2.73402515  1.71727329  0.36337166
  C  3.43674064  2.73341321 -0.25738125
  C  3.66095007  2.69620798 -1.62235304
  C  3.15535990  1.64223003 -2.36170158
  C  2.45024110  0.62827171 -1.73852660
  H -0.05795340  1.97043578 -0.36662544
  H -0.31487910  0.56286999 -1.39208984
  H  0.04003283  0.60466220  1.62992653
  H -0.62085645 -1.66368473  1.77388141
  H -3.04089142 -1.84795667  2.41139557
  H -4.05539605 -1.95588538  0.95808505
  H -2.64723163 -3.01639943  1.13855726
  H -3.81609791  0.19637659  0.36162847
  H -4.23343830  3.57858457 -0.80587430
  H -4.49053063  2.07783626 -0.00738495
  H -2.02642722 -2.50130062 -1.31683353
  H -0.61464940 -3.20233489 -2.11881274
  H -0.88463435 -1.45786727 -2.17847996
  H  1.96138177 -2.86174597 -1.97413277
  H  3.12284167 -1.87156051 -1.08073312
  H  2.35493859 -3.26972656 -0.29492159
  H  2.55757623 -0.13568776  2.17458471
  H  3.02028488 -1.58597445  1.30126141
  H  1.51534082 -1.55552496  2.21284024
  H  2.55291242  1.79026993  1.42630752
  H  3.80394238  3.56269465  0.32927609
  H  4.21070207  3.48873979 -2.10672689
  H  3.30368681  1.61172559 -3.43150020
  H  2.03926320 -0.17322167 -2.33088959
