38
opt_min/./Product_5070_opt.xyz
  O  1.07723200 -2.06273300 -3.46402400
  C  1.07919979 -2.34272147 -2.35658346
  O  1.07595842 -2.67136782 -1.25869192
  C  0.81539202  0.43133087 -1.53288003
  C -0.51465683  0.30774525 -1.42666688
  C -0.64355073  3.21619432 -1.22515767
  O -0.17777681  3.27664889 -0.18106114
  O -1.10888808  3.20321677 -2.26853392
  C -0.82423214 -0.04694925 -0.00148374
  C -1.46255386 -1.46158376  0.08706232
  C -1.15353241 -2.19827513  1.35019587
  O -2.19439092 -1.86209965 -0.77344814
  C -1.88297274  0.82449039  0.65375410
  C -1.65242703  1.38242793  1.90313810
  C -2.61169055  2.19239418  2.48417545
  C -3.80491257  2.44200619  1.82815172
  C -4.04006661  1.87268387  0.58802768
  C -3.08443509  1.06307379  0.00005967
  N  0.43852343 -0.01490207  0.67850818
  C  1.34894374  0.23986523 -0.19727231
  C  2.79930411  0.28103695  0.13297111
  N  3.04163275  0.10461077  1.44588919
  C  4.37033341  0.13741434  2.00119735
  O  3.66027378  0.43432992 -0.71246321
  H  1.41214075  0.67584093 -2.38989304
  H -1.25672634  0.31898447 -2.20070061
  H -1.38563381 -3.25267172  1.22377737
  H -1.77962698 -1.78962023  2.14297468
  H -0.11333638 -2.05512576  1.62622591
  H -0.71660581  1.18777551  2.40192446
  H -2.42351591  2.63059341  3.45290002
  H -4.55219019  3.07487649  2.28291889
  H -4.97177315  2.05632394  0.07431462
  H -3.28198513  0.60597804 -0.95739278
  H  2.24271593  0.00974852  2.05367220
  H  5.06614982 -0.22783013  1.24542465
  H  4.66087634  1.15703754  2.27180106
  H  4.41764988 -0.49629121  2.88483330
