22
opt_min/./Product_3332_opt.xyz
  C  1.74086383 -0.39882322 -0.50531477
  O  2.35096328 -0.34491973 -1.54441416
  C  1.84252526 -1.56229829  0.39411815
  C  0.87530615 -1.89081331  1.25378964
  C -0.33479630 -1.07610676  1.46204387
  O -1.21395189 -1.42782773  2.21869594
  C -0.43565919  0.19675384  0.67762829
  C  0.81395189  0.71948691 -0.03145781
  C  0.21390054  1.43150531 -1.27397454
  C -0.01161028  2.84246392 -1.03501136
  N -0.18006931  3.94456649 -0.78585024
  N -1.06945482  0.79205729 -1.50522983
  C -1.43133275  0.12969440 -0.49877753
  C -2.68624894 -0.64751293 -0.40861369
  H  2.69450284 -2.20811077  0.22742741
  H  0.92543827 -2.78451426  1.86236715
  H -0.86743309  0.95822137  1.34446189
  H  1.41582298  1.38367873  0.59145585
  H  0.84910499  1.33423588 -2.16419944
  H -2.87602194 -0.96460278  0.61373566
  H -3.52269944 -0.06109381 -0.78205253
  H -2.60092366 -1.53166919 -1.04000068
