68
opt_min/./Product_2939_opt.xyz
  F -1.72218200  2.97473700 -2.18190300
  C -0.58826611  2.38381127 -1.64459700
  C -0.99090695  1.37977557 -0.61403806
  C -0.32445729  0.29467318 -0.15854385
  C  1.11520516 -0.12248692 -0.29893294
  C  1.85125373  0.09409410  1.01693924
  C  3.09224584 -0.49507444  1.23691089
  C  3.80051623 -0.24560132  2.39802825
  C  3.29678703  0.62265962  3.35122393
  C  2.09531450  1.26450973  3.11492674
  C  1.38491432  1.01059551  1.95368176
  C  1.07549924 -1.58951991 -0.74783937
  C  0.64139134 -1.87315745 -2.04016361
  C  0.59825956 -3.17171975 -2.51100738
  C  0.98419635 -4.22001977 -1.69511388
  C  1.37720950 -3.95410540 -0.39707925
  C  1.41290497 -2.65378084  0.07585891
  C  1.97503176  0.64464913 -1.35450773
  C  2.51803514  2.03985212 -0.99464594
  C  1.78830656  3.26645668 -1.54980486
  C  0.34752535  3.46159713 -1.09298924
  C -1.34283369 -0.50290738  0.67492262
  C -0.86229771 -0.77854023  2.09646894
  O -0.11071122 -1.65894054  2.42453991
  O -1.40197941  0.08545582  2.94495824
  C -1.08810811 -0.08510176  4.32072328
  C -1.80153278 -1.76272333 -0.07186334
  C -1.71642711 -3.04230408  0.45235880
  C -2.20152672 -4.12092396 -0.26955896
  C -2.78576890 -3.93547327 -1.50774816
  C -2.88788766 -2.65635130 -2.02708479
  C -2.40007430 -1.57895963 -1.31438778
  N -2.51093520  0.33603150  0.74357130
  C -2.30693873  1.36711611  0.01666548
  C -3.31432384  2.46118531 -0.06612817
  O -2.72996026  3.62045287  0.26811551
  C -3.53302684  4.79118667  0.23912618
  O -4.46941993  2.33149950 -0.36202410
  H -0.12690966  1.88434065 -2.50400705
  H  3.51727258 -1.14658779  0.48866018
  H  4.75435015 -0.72746112  2.55345727
  H  3.84609671  0.81202927  4.26153720
  H  1.70897057  1.97448615  3.83159655
  H  0.46164907  1.54345182  1.77581428
  H  0.31421621 -1.07473472 -2.68916126
  H  0.25656452 -3.36343811 -3.51761000
  H  0.96002251 -5.23451231 -2.06420854
  H  1.65369654 -4.76318429  0.26210341
  H  1.67248330 -2.48070426  1.10684533
  H  2.84471620 -0.00110364 -1.49723953
  H  1.46732715  0.68381998 -2.31402878
  H  3.52981177  2.09358580 -1.40277488
  H  2.61118437  2.13837194  0.08609172
  H  2.35630101  4.14126683 -1.22821008
  H  1.81782046  3.24150186 -2.64147211
  H -0.00976845  4.42534306 -1.45877843
  H  0.29201317  3.47839662 -0.00366832
  H -1.76483147 -0.81822597  4.76310770
  H -1.22923055  0.88462370  4.79208231
  H -0.05682130 -0.42570667  4.43409859
  H -1.26404680 -3.21403369  1.41487555
  H -2.12203301 -5.11258437  0.15027019
  H -3.16443138 -4.77939102 -2.06426049
  H -3.35389487 -2.49346116 -2.98738410
  H -2.50023041 -0.58443989 -1.72392250
  H -4.49157849  4.57131097 -0.23350077
  H -3.69483144  5.13543813  1.26135010
  H -2.99462151  5.54787125 -0.32925469
