46
opt_min/./Product_1100_opt.xyz
  C -2.33287000  0.09760600  1.04757300
  C -1.14571049 -0.11046917  0.10311969
  C  0.18767416  0.61985908  0.49154411
  C  0.15444363  1.56318131  1.69098986
  F -0.75936425  2.54767005  1.67518779
  F -0.05944853  0.96437551  2.87407834
  F  1.33448161  2.21325848  1.81610117
  C  0.42672768  1.48284896 -0.83271457
  C -0.56525564  2.62359355 -0.79827792
  C -1.73637594  2.05194198 -1.03479168
  C -1.42481476  0.59206900 -1.27577931
  O -0.11903080  0.64978232 -1.82553360
  C  1.29042974 -0.47615023  0.63749597
  C  2.58696260 -0.09981238 -0.15358827
  N  3.42606232  0.76805080  0.45367624
  C  4.64754690  1.18233297 -0.20260257
  O  2.84613337 -0.58068581 -1.23371968
  C  1.69145312 -0.82578746  2.08701740
  N  0.70823930 -1.61038667 -0.02978718
  C  1.41670794 -2.86170743 -0.00943432
  C -0.73555656 -1.61187551 -0.12664052
  C -1.12733061 -2.12371810 -1.52844997
  C -1.36296930 -2.59395084  0.88544583
  H -2.29990779  1.05507083  1.55392365
  H -2.38453202 -0.66498135  1.81520915
  H -3.25425773  0.07121266  0.46921450
  H  1.46199421  1.72718850 -1.04172092
  H -0.32298133  3.64290146 -0.57270364
  H -2.71745304  2.48080589 -1.06657937
  H -2.12147394  0.08074848 -1.92516943
  H  3.18633308  1.21753020  1.31801192
  H  4.43894911  1.44293364 -1.24155093
  H  5.06495831  2.03910902  0.31831779
  H  5.37363420  0.36615405 -0.20184076
  H  2.14985780  0.00030845  2.62289849
  H  0.81995341 -1.15658536  2.64719849
  H  2.40949459 -1.64064926  2.05087565
  H  1.31706337 -3.40941674  0.94116842
  H  1.05169398 -3.49628141 -0.81300823
  H  2.46962032 -2.67269924 -0.20113844
  H -2.19165687 -1.99982091 -1.71026009
  H -0.90998517 -3.18510355 -1.59908692
  H -0.55598675 -1.59283718 -2.28335163
  H -2.44835499 -2.56540768  0.83751189
  H -1.04002393 -2.38747380  1.90462452
  H -1.05025018 -3.60427990  0.63945478
