51
opt_min/./Product_2332_opt.xyz
  C -2.63453449  4.08072242 -0.04133107
  C -1.97511608  2.82569594  0.41872037
  O -1.56130549  2.64537373  1.53437595
  C -1.88279747  1.62158932 -0.54669162
 Br -2.23409330  2.13570686 -2.45561588
  C -0.46793545  1.15302314 -0.48817786
  C  0.21932691  0.07584688 -0.07048974
  C -0.25359943 -1.27534977  0.40616168
  C -0.79466034 -1.11527692  1.83520461
  C  0.88975164 -2.29775569  0.49588031
  C -1.26160328 -1.87391357 -0.61241692
  C -2.76201054 -1.75885376 -0.35311170
  C -3.39780526 -0.49383100 -0.91207490
  C -3.08380571  0.77014466 -0.11866801
  C  1.71055319  0.53751988 -0.13075452
  C  2.92369656 -0.40349815 -0.10991305
  N  3.54722192 -0.43336586  1.07547944
  C  4.77024681 -1.17327229  1.27811272
  O  3.28899221 -1.01117563 -1.09208846
  O  1.83380396  1.47876025  0.98021778
  C  1.15605568  2.56819612  0.62175747
  O  1.06450078  3.57900475  1.23623211
  C  0.60134101  2.23381878 -0.79636067
  C  0.34990136  3.42202968 -1.55858629
  N  0.24707337  4.41870463 -2.10985496
  N  1.74808295  1.45576722 -1.25300210
  C  1.65123909  0.93001750 -2.59772665
  H -2.92445686  4.66896868  0.82387134
  H -1.90882855  4.64841069 -0.62737826
  H -3.48793934  3.87735121 -0.68349404
  H -1.54975403 -0.34157754  1.91950991
  H -1.20652285 -2.05825315  2.18722874
  H  0.02368151 -0.83131053  2.49447574
  H  1.36118630 -2.45328464 -0.47076796
  H  1.64535790 -1.99382488  1.21233439
  H  0.48013079 -3.24574609  0.83755658
  H -1.05263925 -1.45345979 -1.59911808
  H -1.03472597 -2.93852113 -0.68517483
  H -3.23650683 -2.60517041 -0.85551527
  H -2.98625743 -1.85524849  0.70772278
  H -3.09886440 -0.37277313 -1.95387660
  H -4.48188471 -0.62679460 -0.90662785
  H -2.95718989  0.52568496  0.93833452
  H -3.94867399  1.43898428 -0.18168921
  H  3.19714944  0.13670934  1.82787434
  H  5.15403843 -1.46071126  0.30063321
  H  4.58208190 -2.07674040  1.86269131
  H  5.49960219 -0.55314833  1.79509940
  H  0.68080457  0.46410838 -2.80551920
  H  1.80836118  1.75823111 -3.28684399
  H  2.43728392  0.19175903 -2.73104346
