35
opt_min/./Product_1617_opt.xyz
 Cl  1.83521381  1.86274938 -1.68546971
  C  0.89918809  1.71482397 -0.17999372
  C -0.54636872  1.19510584 -0.37542321
 Br -0.90881315  0.49994109 -2.16803717
  C -1.36228366  2.52745263 -0.15963518
  C -1.36120748  2.76303292  1.34103846
  C -0.12229057  3.14298713  1.61801267
  C  0.59359170  3.18587389  0.28303254
  O -0.45544139  3.50588437 -0.61099244
  C -0.73425106  0.13263158  0.72370869
  C -1.12248051 -1.28418498  0.25032429
  N -2.39085759 -1.38745580 -0.16740608
  C -2.93548127 -2.62055450 -0.68538543
  O -0.35697461 -2.22445913  0.31415513
  O  0.44708353  0.10598320  1.49803149
  C  1.53085788  0.78169606  0.86992427
  C  2.25963522  1.52738484  1.88262806
  N  2.84820779  2.10542030  2.67213717
  C  2.62465655 -0.17850219  0.25381975
  O  3.66145580  0.30131719 -0.15055100
  N  2.30380186 -1.46323804  0.27510832
  C  3.20435718 -2.46321684 -0.25178755
  H -2.30276034  2.57814032 -0.69878606
  H -2.20354693  2.62778304  1.99042153
  H  0.34389683  3.37209380  2.55435721
  H  1.44426222  3.85466962  0.20106315
  H -1.53434037  0.43897286  1.41393512
  H -2.97476105 -0.56764933 -0.21970193
  H -3.25357433 -2.48522980 -1.71906046
  H -3.78417603 -2.94079004 -0.07960925
  H -2.15390864 -3.37604088 -0.64224990
  H  1.37031513 -1.76952796  0.55024978
  H  3.90341381 -2.78927468  0.52125197
  H  2.62486212 -3.31398661 -0.60079274
  H  3.77683672 -2.03779797 -1.07678312
