27
opt_min/./Product_3584_opt.xyz
  C -1.09179000 -0.96449200 -0.96457900
  O -0.44872138 -0.93755668 -1.98625290
  C -2.52485214 -1.28414089 -0.93379565
  C -3.32253579 -1.02493173  0.10880200
  C -2.84046902 -0.39652132  1.33980817
  O -3.47793032 -0.36186345  2.36574765
  C -1.43424550  0.18117467  1.26266283
  C -0.46069840 -0.62963788  0.39468597
  N  0.57845707  0.35623994  0.22398923
  C  1.90387386  0.14588346  0.02442499
  O  2.16822461 -1.18073646  0.07968816
  C  3.52853776 -1.55126317 -0.10373705
  O  2.71604947  1.01492603 -0.15519443
  N  0.03008627  1.66229613  0.22266537
  C  0.15399650  2.34342143 -1.06882800
  N -1.37715750  1.44333168  0.53129690
  H -2.91098543 -1.74326462 -1.83425337
  H -4.37165397 -1.28761700  0.09558277
  H -1.04293503  0.27371077  2.28955543
  H -0.07210306 -1.53138218  0.87083902
  H  3.54064045 -2.41257847 -0.77064937
  H  3.96591580 -1.81405122  0.86085140
  H  4.08246201 -0.72002331 -0.54378963
  H  0.97872795  3.04813817 -0.99380048
  H  0.35570381  1.63617089 -1.87479701
  H -0.77610536  2.86571334 -1.28146142
  H -1.68184313  2.23542467  1.09483099
