43
opt_min/./Product_4936_opt.xyz
  C -1.18243800 -0.72366500  1.43940900
  C -0.81168683 -2.17123961  1.33012763
  C  0.06160028 -2.61297664  0.42352992
  N  0.67567670 -1.81764005 -0.50560381
  C  1.35375632 -2.43159162 -1.62018674
  C  0.46699491 -0.41014397 -0.49871914
  C -0.85823507  0.06357863  0.15627919
  C -1.93274334 -0.04577376 -0.94106819
  N -2.55016569 -1.24463145 -0.98982733
  O -2.14584820  0.83375679 -1.74241545
  N -0.54503916  1.43758446  0.47593902
  C -1.30685974  2.45361849  0.98844080
  N -2.64561350  2.17270428  1.05698139
  C -3.56978540  3.20545911  1.45559149
  O -0.82708050  3.48741890  1.39123831
  O  0.84377288  1.71012171  0.33072050
  C  1.49398678  0.46583619  0.28394823
  C  2.82877507  0.57279021 -0.39422016
  C  3.71864799 -0.49242259 -0.31810384
  C  4.94223256 -0.42350242 -0.95857356
  C  5.29146362  0.71303677 -1.66913633
  C  4.41407646  1.78219440 -1.73045479
  C  3.18498376  1.71456796 -1.09723159
  H -0.60702493 -0.26328736  2.25222542
  H -2.23624639 -0.60817032  1.70789296
  H -1.24734256 -2.85015446  2.04515071
  H  0.31868827 -3.65987750  0.35556151
  H  2.04438357 -3.19831944 -1.26353298
  H  0.64150006 -2.90262030 -2.30997950
  H  1.92424643 -1.68202463 -2.16291027
  H  0.48535535 -0.03829347 -1.53404123
  H -3.23364755 -1.40469651 -1.71277661
  H -2.44279952 -1.93458631 -0.26451571
  H -3.02291117  1.39601967  0.54310522
  H -4.41918192  2.75757957  1.97158537
  H -3.92461546  3.78937824  0.60041780
  H -3.04102906  3.87535403  2.13266992
  H  1.62810752  0.05250573  1.29827015
  H  3.45268618 -1.36855224  0.25619936
  H  5.62685437 -1.25675232 -0.89737602
  H  6.24911769  0.76553159 -2.16618474
  H  4.68683142  2.67574603 -2.27152359
  H  2.49403963  2.54158198 -1.13501947
