42
opt_min/./Product_1820_opt.xyz
  N  0.13044703 -1.64850405 -2.44206696
  C -0.16167973 -1.18948270 -1.43585040
  C -0.49300228 -0.56910772 -0.17939195
  C -1.78180249  0.30570424 -0.17641137
 Br -2.68112711  0.49510535 -1.92710240
  C -2.67293846 -0.35890294  0.87779296
  C -3.14712787 -1.71334592  0.33357430
  C -1.85720480 -2.56766628  0.32997639
  C -0.80451320 -1.61246270  0.91674681
  C -1.66447809 -0.84470895  1.92491446
  C -1.16643558  1.73007624  0.07042865
  C -2.16405710  2.88495766 -0.16160493
  C -1.71507793  3.94333242 -1.11560011
  O -3.18784867  2.90449716  0.46109921
  N  0.07302745  1.69573096 -0.67654445
  C  0.62740470  0.54012339  0.03340730
  C  2.01605674  0.09789110 -0.32116608
  C  2.61426796  0.50060096 -1.50710261
  C  3.88059977  0.05034856 -1.83112627
  C  4.55603075 -0.80488416 -0.97767124
  C  3.96111585 -1.20364191  0.20751045
  C  2.69327748 -0.75860790  0.53716002
  C  0.44967131  1.09869514  1.45102263
  O  1.12606981  0.96231068  2.41947742
  O -0.68599685  1.82901877  1.40602366
  H -3.46911284  0.29757305  1.22886225
  H -3.59893082 -1.64757626 -0.65316307
  H -3.89224672 -2.13066058  1.00800538
  H -1.95715851 -3.44423342  0.96620416
  H -1.59327443 -2.90941927 -0.66869938
  H  0.08240778 -2.11277467  1.30444008
  H -2.13714748 -1.52156935  2.63366463
  H -1.16523819 -0.07139321  2.49472247
  H -1.25434629  3.52973009 -2.00493369
  H -2.56481323  4.56876852 -1.37547239
  H -0.96906770  4.55000106 -0.60528318
  H -0.06851582  1.51504556 -1.66725079
  H  2.09880692  1.17475762 -2.17622914
  H  4.33940989  0.36573597 -2.75550862
  H  5.54330798 -1.15719519 -1.23323226
  H  4.48291563 -1.86530489  0.88044699
  H  2.24664947 -1.06481972  1.46913880
