52
opt_min/./Product_2440_opt.xyz
  C -0.67292100 -3.72842700  1.29755600
  O -0.04477351 -2.51079613  0.92720787
  C -0.84640891 -1.46351824  0.48201754
  F -1.55999263 -1.94766591 -0.63810424
  C  0.14467868 -0.44394339 -0.05843281
  C  0.22969912  0.88899999 -0.16992131
  C -0.79867372  1.98396310  0.08641867
  C -0.67976696  2.59518078  1.50023592
  F -0.61602040  1.68098777  2.47163566
  F  0.40480495  3.35882332  1.65331993
  F -1.71532463  3.39095417  1.79773081
  C -0.54777175  3.18181101 -0.87425767
  F -1.45549924  4.15134027 -0.68470863
  F  0.63555239  3.78384688 -0.75917406
  F -0.66796925  2.80497216 -2.15184376
  C -2.24783639  1.52796245 -0.27191155
  C -3.17287044  1.04698899  0.85147892
  C -3.18068353 -0.46411441  1.02774494
  C -1.87114688 -1.05459457  1.54507969
  C  1.57268921  1.25794658 -0.75957451
  C  2.52601587  1.99490368  0.19293111
  O  2.28513363  1.64577098  1.45133932
  C  3.18251105  2.12963726  2.44717019
  O  3.44735670  2.66281593 -0.18464153
  N  2.27078271 -0.00956014 -0.94155557
  C  3.14527631 -0.05170482 -2.09007762
  C  1.32297647 -1.08756826 -0.75375065
  C  0.79395801 -1.64487788 -2.09655392
  C  0.93169729 -3.12394205 -2.30898149
  O  0.33101272 -0.89924020 -2.91950120
  H -0.96468318 -3.72924740  2.35166404
  H  0.07838277 -4.50102494  1.14102315
  H -1.53967612 -3.93938470  0.66865393
  H -2.74034590  2.37118884 -0.75707981
  H -2.16014507  0.73941583 -1.02142452
  H -2.96040931  1.52606451  1.80262749
  H -4.18801722  1.34188660  0.57738263
  H -3.96375240 -0.70724700  1.74927028
  H -3.45278577 -0.93761317  0.08390378
  H -2.12414459 -1.96983055  2.08065932
  H -1.38198127 -0.39385099  2.25517900
  H  1.49809854  1.81474518 -1.70364300
  H  3.29134279  1.33932440  3.18684552
  H  2.75614399  3.02270496  2.90559900
  H  4.14372324  2.37460764  1.99387115
  H  3.86700535  0.75677871 -1.98595298
  H  3.67498439 -1.00360198 -2.08540444
  H  2.61640230  0.06694053 -3.04489965
  H  1.77942978 -1.87893144 -0.15467239
  H  1.11261024 -3.32998473 -3.36119712
  H -0.02055797 -3.58083870 -2.04151757
  H  1.71365439 -3.55553773 -1.69306638
