40
opt_min/./Product_573_opt.xyz
  C  1.28899413  1.86683164  0.98982751
  C  0.77023218  0.48592064  0.84607290
  C -0.42767817  0.08500059  0.42314174
  C -1.55774240  0.90865669 -0.02366990
  C -2.26472400  1.69310936  0.88264245
  C -3.34150464  2.45040409  0.45938251
  C -3.72688403  2.42839356 -0.87173360
  C -3.03530059  1.63878832 -1.77471267
  C -1.95862531  0.87780057 -1.35636757
  C -0.49507913 -1.44624305  0.45660076
  C -1.15598710 -1.79460406  1.70468246
  N -1.62377967 -2.05152540  2.71745549
  C -1.21664002 -2.09084380 -0.73933549
  O -0.61606098 -2.62085289 -1.64430223
  N -2.56060184 -2.01605305 -0.64892263
  C -3.42004309 -2.40740512 -1.74274738
  N  0.91750061 -1.78369290  0.46497368
  C  1.65073184 -0.71900065  1.12669896
  C  3.06332180 -0.55150689  0.54619541
  N  3.21182860 -1.16009845 -0.64029441
  C  4.43827803 -1.11695397 -1.39749738
  O  3.92321536  0.09425344  1.10690709
  H  2.11320124  2.02782290  0.29596460
  H  0.50671984  2.59625717  0.79387825
  H  1.68660417  2.01208132  1.99328567
  H -1.96403485  1.69892922  1.92046592
  H -3.88844599  3.05145511  1.16999909
  H -4.56931206  3.01836361 -1.20000782
  H -3.32870144  1.62071616 -2.81438103
  H -1.42777901  0.25037828 -2.05787433
  H -2.98106698 -1.48428938  0.09851297
  H -4.36313729 -2.79028620 -1.35929571
  H -2.90639254 -3.17533493 -2.32018696
  H -3.61552392 -1.55101258 -2.40095420
  H  1.12132649 -2.72364667  0.78415779
  H  1.74409832 -0.84965313  2.21901601
  H  2.40552882 -1.63772078 -1.02274809
  H  5.02145138 -2.03116625 -1.25862390
  H  4.21295221 -0.99384575 -2.45583583
  H  5.02646562 -0.27091153 -1.04242415
