46
opt_min/./Product_4781_opt.xyz
  C  6.07212100  0.39355000 -0.07892300
  C  4.62992702  0.00781987  0.01681739
  C  4.33387562 -1.09024995  0.99958642
  C  3.69902771  0.59046124 -0.75203766
  C  2.29395147  0.27835141 -0.77258010
  C  1.42720413  0.89283029 -1.58179907
  C -0.05567410  0.63042150 -1.64223799
  C -0.62358524  1.12873553 -2.97043506
  C -0.43218297 -0.84344998 -1.36697359
  C -0.99700927 -0.82232147  0.06570916
  C -2.01592193 -1.89794471  0.32395162
  C -3.34642574 -1.58494584  0.55632465
  C -4.27193395 -2.59105153  0.77875590
  C -3.87604916 -3.91561589  0.76901712
  C -2.54522398 -4.23343638  0.53641018
  C -1.62024878 -3.23092504  0.31627277
  O -1.57775876  0.46639893  0.18912914
  N -0.70905777  1.32274117 -0.53080584
  C -0.51640609  2.62104965 -0.16384562
  N -1.21470751  2.99441447  0.93860733
  C -1.06908798  4.31882981  1.49335326
  O  0.21980302  3.35306309 -0.79746246
  H  6.22789921  1.16179861 -0.83058571
  H  6.67792218 -0.47490711 -0.33663970
  H  6.42580546  0.76748918  0.88099490
  H  5.08619827 -1.11064908  1.78327250
  H  3.35923184 -0.96548373  1.46092280
  H  4.34853518 -2.05803262  0.49736828
  H  4.00502402  1.37369454 -1.43093259
  H  1.94989455 -0.49911384 -0.10373037
  H  1.77986525  1.69632872 -2.20865761
  H -0.39545980  2.18550404 -3.07552470
  H -0.17007438  0.58318028 -3.79506071
  H -1.70278618  1.00231485 -2.99583984
  H -1.20974120 -1.16463442 -2.05920588
  H  0.41699817 -1.51292980 -1.46028104
  H -0.16982416 -0.91091901  0.79397102
  H -3.65595483 -0.55051513  0.55877001
  H -5.30476875 -2.33319559  0.95907114
  H -4.59579959 -4.70227173  0.94168787
  H -2.22904304 -5.26499425  0.52899263
  H -0.58398805 -3.48015081  0.14159358
  H -1.76772986  2.30922579  1.42387666
  H -1.16363254  5.05901296  0.69899142
  H -0.08460614  4.44433760  1.95340595
  H -1.84040602  4.48557252  2.23908688
