46
opt_min/./Product_2242_opt.xyz
  C  1.25598300 -2.34650700 -1.82871600
  C -0.01157973 -1.53270639 -1.77314750
  O -0.77976618 -1.50141584 -2.69394979
  C -0.22477338 -0.70404745 -0.50410574
  C -1.62428207 -0.06321489 -0.25396973
 Br -3.06102226 -0.32091244 -1.54503767
  C -2.03769103 -0.62212659  1.11562455
  C -2.31977100 -2.12260002  0.97111395
  C -0.91643944 -2.72384465  0.74688483
  C  0.00269627 -1.49093938  0.80487766
  C -0.71032062 -0.65540402  1.87157065
  C -1.24757191  1.45081475 -0.25299202
  C -2.19966009  2.41491394  0.41873757
  O -3.38620332  2.35028791 -0.16535418
  C -4.38719408  3.23847419  0.31645423
  O -1.91219844  3.12097836  1.34448396
  O  0.06696904  1.48917755  0.27166443
  C  0.64570961  0.60745469 -0.64132243
  C  2.13033687  0.48263746 -0.50536050
  C  2.70616653  0.43627545  0.75781067
  C  4.07884670  0.30976813  0.88217189
  C  4.87809340  0.23519832 -0.24559327
  C  4.30427242  0.30370472 -1.50380163
  C  2.93301786  0.42957027 -1.63812872
  O  0.27575992  1.16661009 -1.92328327
  C -0.92303837  1.73648067 -1.74447671
  O -1.54701154  2.33604414 -2.55417568
  H  0.99698473 -3.37568103 -2.07419936
  H  1.86142590 -1.96760176 -2.65098682
  H  1.83750185 -2.31549103 -0.91566448
  H -2.85009459 -0.05662658  1.56979892
  H -3.00018573 -2.34399167  0.15119360
  H -2.76935811 -2.49746470  1.89073365
  H -0.84745357 -3.24867666 -0.20458010
  H -0.65337911 -3.42636283  1.53799205
  H  1.04827770 -1.71610177  1.00463585
  H -0.27926036  0.32359750  2.05474666
  H -0.79187694 -1.19259650  2.81578469
  H -4.50892593  3.12298677  1.39549771
  H -5.29924893  2.96918911 -0.20952971
  H -4.10688239  4.27009472  0.09838548
  H  2.08611981  0.52242431  1.63537744
  H  4.52326564  0.27619394  1.86573648
  H  5.94838635  0.13623036 -0.14346723
  H  4.92586078  0.26458587 -2.38578617
  H  2.48009935  0.50497091 -2.61376716
