56
opt_min/./Product_5530_opt.xyz
  C  1.17803400  1.40027400 -2.02582300
  C  1.47080505  0.13440555 -1.20315492
  C  2.72124644 -0.49122156 -1.82530941
  C  0.23187165 -0.83189911 -1.19913341
  C -0.38717820 -0.95437834 -2.59061362
  C  0.67077605 -2.24390139 -0.77192406
  C -0.66931224 -0.21204187 -0.06967053
  C -1.64282708 -1.14060241  0.65278596
  C -2.36140573 -2.15268249  0.02711741
  C -3.28051728 -2.91814543  0.72516187
  C -3.52476603 -2.67436651  2.06295447
  C -2.86004309 -1.63506662  2.68869351
  C -1.94190602 -0.87439027  1.98864590
  C -1.61503343  0.91800014 -0.51600267
  C -2.67320314  0.69249490 -1.38986744
  C -3.53974708  1.71528830 -1.73463031
  C -3.38567557  2.97847307 -1.19360081
  C -2.36697550  3.20374757 -0.28432334
  C -1.49924533  2.18157459  0.05400167
  N  0.30397457  0.34178493  0.87552702
  C  1.63527388  0.48102485  0.30937709
  C  2.58448618 -0.45616659  1.09853841
  N  3.90508460 -0.29749883  0.89578523
  C  4.89763981 -1.05132041  1.62233171
  O  2.15111060 -1.24974074  1.91625260
  C  2.13947754  1.91135441  0.60074715
  H  0.28052584  1.90478971 -1.68539474
  H  2.01241554  2.09463360 -1.96290370
  H  1.05765790  1.14468607 -3.07427267
  H  3.10577251 -1.33418014 -1.26023424
  H  3.50871865  0.25822033 -1.90322590
  H  2.50235425 -0.82659115 -2.83715430
  H  0.37928666 -1.26768336 -3.29857325
  H -1.15702721 -1.72028379 -2.60882037
  H -0.82537262 -0.02426628 -2.93599551
  H  1.38914047 -2.65147306 -1.47905492
  H  1.11132423 -2.24182016  0.21867188
  H -0.17166775 -2.92559908 -0.75350821
  H -2.22960610 -2.36235444 -1.02197539
  H -3.81171421 -3.70776546  0.21315226
  H -4.23991172 -3.27481776  2.60641128
  H -3.06202889 -1.40678445  3.72466790
  H -1.47009606 -0.04515964  2.49164960
  H -2.84669103 -0.28926381 -1.79557869
  H -4.34744329  1.51800987 -2.42477061
  H -4.06624620  3.77365066 -1.46146978
  H -2.24912827  4.17715843  0.16916799
  H -0.72394824  2.35056390  0.78237163
  H  0.37426796 -0.22754321  1.71528498
  H  4.23063033  0.37509852  0.22352481
  H  4.37055283 -1.72035987  2.30007902
  H  5.51912632 -1.63457789  0.94101606
  H  5.53797519 -0.38379940  2.20413895
  H  3.07921486  2.12944905  0.10045307
  H  2.28491321  2.01979311  1.67399609
  H  1.40016821  2.63940437  0.28679604
