64
opt_min/./Product_2708_opt.xyz
  C  1.73251000  0.91183600 -3.14246400
  C  0.90012728  0.08664657 -2.19898414
  O  0.14844214 -0.77462859 -2.59813207
  C  1.09488283  0.26727422 -0.69050205
  C -0.22324656  0.53227909  0.12610329
  C -1.42342791  1.24090532 -0.48816254
  C -1.56977478  1.59295353 -1.81943970
  C -2.69671473  2.26563752 -2.26710423
  C -3.70123290  2.61903309 -1.39026779
  C -3.55212863  2.31509540 -0.04713286
  C -2.42861464  1.64877086  0.39420762
  C  0.31169543  1.49800215  1.23826936
  C  0.41276404  2.91048085  0.64380186
  C  1.53085464  2.74265621 -0.40633527
  C  2.06354210  1.32492920 -0.14317343
  C  1.79967350  1.20431208  1.36083570
  C -0.64213408 -0.90321619  0.57779674
  C -1.04148652 -0.94038704  2.08408537
  N -2.36154128 -1.00177314  2.32470553
  C -2.89587508 -1.04536420  3.66495341
  O -0.19492986 -0.94613923  2.95018335
  C -1.78347721 -1.54682675 -0.24188306
  O -2.80785812 -0.96772412 -0.55601296
  N -1.60494845 -2.85678989 -0.45145939
  C -2.58996360 -3.64834690 -1.14919337
  O  0.48905871 -1.75286665  0.46017510
  C  1.56323634 -1.16129041 -0.22168404
  C  2.08526335 -2.04197877 -1.39501684
  C  1.54679774 -3.43898654 -1.44304955
  O  2.93985464 -1.63146465 -2.13289456
  C  2.83561671 -1.28099788  0.64982005
  O  3.90891159 -0.81935248  0.36892937
  O  2.61022972 -2.12499317  1.64838977
  C  3.70086325 -2.41564575  2.51181323
  H  2.04745174  0.26263103 -3.95733731
  H  2.60255809  1.33834547 -2.65990843
  H  1.13076945  1.71125791 -3.57339624
  H -0.81449767  1.35461482 -2.54468697
  H -2.77882078  2.50944815 -3.31632735
  H -4.58303585  3.13416428 -1.74061614
  H -4.31508393  2.60279034  0.66156091
  H -2.32346513  1.45932889  1.45071684
  H -0.23834911  1.43703408  2.17287157
  H -0.51000357  3.29192058  0.21493252
  H  0.71900341  3.60282595  1.42853653
  H  1.15938643  2.87073472 -1.42009803
  H  2.32748047  3.47011487 -0.24818249
  H  3.08485986  1.14757256 -0.47208837
  H  2.30796977  2.00160358  1.90549814
  H  2.03723323  0.27680949  1.86739670
  H -3.01701343 -0.97722551  1.55721722
  H -3.44876670 -0.13113951  3.89115135
  H -3.56252680 -1.90058368  3.77875494
  H -2.05833484 -1.14095615  4.35409976
  H -0.78277062 -3.31756167 -0.09394338
  H -3.34585022 -4.03266588 -0.45887720
  H -3.08474408 -3.01316369 -1.88313004
  H -2.10373256 -4.48241899 -1.64973848
  H  2.24792897 -4.07762760 -1.97502391
  H  0.61037250 -3.40512088 -1.99888511
  H  1.36505928 -3.81329588 -0.43989164
  H  3.61738399 -3.46545864  2.78536320
  H  3.62832662 -1.79251751  3.40461643
  H  4.64554401 -2.22040922  2.00026664
