39
opt_min/./Product_838_opt.xyz
  C -2.61261125  3.66667804  1.78720055
  N -1.70467808  2.57536414  1.52044686
  C -0.91347968  2.58362898  0.43651176
  O -0.88590630  3.45600107 -0.40413655
  C -0.00753067  1.39764864  0.34814077
  C  1.34950665  1.41330408  0.40525687
  C  2.21565736  2.51061191  0.53404357
  N  2.95235129  3.38651418  0.58440832
  C  1.79766206  0.04112049  0.18203690
  C  3.23192030 -0.38207361  0.24422954
  N  3.77636127 -0.63474353 -0.96295257
  C  5.16576291 -0.99576061 -1.11629713
  O  3.82011614 -0.46923521  1.29649750
  N  0.81936890 -0.76964439 -0.00003618
  C -0.41620203 -0.02613713  0.12153527
  C -1.16438598 -0.63175073  1.34393201
  O -1.15221935 -0.08149070  2.42309495
  N -1.76511785 -1.79788146  1.10108141
  C -2.44964780 -2.53702707  2.13701751
  C -1.27771727 -0.21404608 -1.14896573
  O -2.10430165  0.58697215 -1.50070649
  N -1.02963405 -1.39550365 -1.75553010
  C -1.65570272 -1.73601741 -3.01564503
  H -2.05584803  4.57162378  2.04291172
  H -3.26975260  3.39658492  2.60937908
  H -3.20671245  3.87178688  0.89532379
  H -1.62924096  1.81487011  2.18357218
  H  3.22427909 -0.50722441 -1.79598969
  H  5.63865372 -0.36938188 -1.87206178
  H  5.26401483 -2.04603309 -1.39920508
  H  5.65529166 -0.83386323 -0.15695011
  H -1.73557589 -2.19699934  0.17502002
  H -3.52781349 -2.52687886  1.96520117
  H -2.23395246 -2.06142320  3.09207854
  H -2.09610248 -3.56788435  2.15284171
  H -0.17377153 -1.86596469 -1.48624098
  H -0.91132004 -2.08559093 -3.72855994
  H -2.14507241 -0.84578732 -3.40951284
  H -2.40474997 -2.51701397 -2.86826315
