74
opt_min/./Product_3178_opt.xyz
  C -1.79412000 -3.30662700  2.55371900
  O -1.34733187 -2.39202051  1.56014950
  C -1.64961088 -2.68576191  0.30827904
  O -2.21485410 -3.68618520 -0.04793144
  C -1.34752153 -1.48968036 -0.62879846
  C -2.83066491 -1.08700327 -0.73877394
  O -3.51722596 -0.93935687  0.24447320
  O -3.30297525 -1.06566092 -1.96963602
  C -4.67998412 -0.76647338 -2.15240293
  C -0.50050506 -0.46263957  0.09195361
  C  0.79504151 -0.54278120  0.46407780
  C  1.85786666 -1.60759639  0.33164577
 Br  1.68675605 -2.81464909  1.94018965
  C  3.24955881 -0.98885465  0.30101086
  C  4.23469977 -1.20089693  1.25473419
  C  5.51199603 -0.68880140  1.08900392
  C  5.83598060  0.03170092 -0.04372586
  C  4.86540215  0.24467863 -1.00835549
  C  3.59125968 -0.25987483 -0.83953248
  C  1.87693995 -2.55899606 -0.87875030
  C  0.77289755 -3.60518066 -1.00851656
  C -0.20320844 -3.27470895 -2.12658778
  C -0.76563853 -1.85846604 -2.01159298
  C  1.18082497  0.70231651  1.28086082
  C  2.21287080  1.62046152  0.58655847
  N  3.24843030  2.04061384  1.33460513
  C  4.18564546  3.03135732  0.86363562
  O  2.00249112  2.05502036 -0.53190944
  C  1.52625830  0.35032040  2.73046645
  N -0.02327064  1.53394480  1.27885000
  C -1.04411104  0.92749405  0.43338548
  C -1.22313139  1.72318161 -0.87560438
  O -1.95260181  1.32092432 -1.77239876
  N -0.63094651  2.91496626 -0.86529604
  C -0.52468902  3.74349738 -2.03889019
  C -2.35841021  1.06608505  1.27436420
  O -2.29737382  0.91466203  2.47748469
  N -3.42225208  1.58593746  0.64645299
  C -4.68043790  1.72939317  1.34306669
  H -1.35699964 -2.96874986  3.48895621
  H -1.46178653 -4.31882161  2.31572755
  H -2.88347448 -3.28506393  2.60600368
  H -5.17276140 -0.64511927 -1.18644070
  H -4.74237083  0.15339020 -2.73460852
  H -5.13357233 -1.58976594 -2.70428685
  H  4.03258080 -1.78446458  2.13966905
  H  6.25588552 -0.87245121  1.85040511
  H  6.83567502  0.41662963 -0.17968691
  H  5.09754849  0.80359995 -1.90184785
  H  2.85211529 -0.06256883 -1.60024584
  H  2.84328899 -3.07100114 -0.83392145
  H  1.89273068 -1.94466323 -1.77946570
  H  0.22222136 -3.69432169 -0.07718180
  H  1.21855519 -4.58414099 -1.19503602
  H -1.01974009 -3.99614384 -2.10463849
  H  0.30167058 -3.35871161 -3.09146496
  H -1.54212553 -1.74108996 -2.76311320
  H  0.00379043 -1.12045602 -2.24854761
  H  3.42522602  1.63626372  2.23766978
  H  5.19997975  2.63091996  0.86193481
  H  4.14879006  3.92013433  1.49700451
  H  3.89939697  3.29816028 -0.15198408
  H  1.58428327  1.26256089  3.32369483
  H  2.45791814 -0.19973993  2.82433626
  H  0.72257259 -0.26229767  3.13691210
  H -0.40159250  1.57755440  2.22491474
  H  0.02224908  3.06014853 -0.10492977
  H  0.37245919  3.49194744 -2.60878444
  H -1.40231954  3.57255814 -2.66072221
  H -0.47880490  4.78915323 -1.73934693
  H -3.44876412  1.55497608 -0.36239003
  H -5.32654191  2.39335228  0.77423412
  H -4.48194579  2.15229749  2.32701284
  H -5.16405268  0.75898756  1.47628548
