31
opt_min/./Product_865_opt.xyz
  F -0.52689379  1.69121088 -0.67780978
  C  0.05603528  0.76331776  0.14486482
  C  1.07102886 -0.16215850 -0.57723993
 Br  1.31670300  0.25109316 -2.45856269
  C  2.35334624  0.12931108  0.26106796
  C  2.77226796  1.53708866 -0.12393141
  C  1.90125444  2.33679147  0.47488611
  C  0.96152359  1.41594736  1.22706024
  O  1.79771353  0.31383379  1.55037622
  C  0.44370485 -1.58688921 -0.37668561
  C  0.77011591 -2.52187069 -1.44237622
  N  1.05009687 -3.26508392 -2.26135193
  C  0.96617107 -2.23052886  0.83240925
  N  1.36240283 -2.78955145  1.74422674
  N -0.99965614 -1.36955964 -0.18805223
  C -1.72117902 -1.18498840 -1.44678823
  C -0.99613061 -0.22448929  0.71543262
  C -2.27671007  0.49712529  1.13460032
  C -3.59916530 -0.04119732  0.69386343
  O -2.16027883  1.45515904  1.85410237
  H  3.11002789 -0.65085100  0.25133206
  H  3.58366666  1.77078347 -0.78315148
  H  1.79965384  3.40162361  0.43022917
  H  0.43432455  1.80733725  2.09095972
  H -1.21637478 -1.72325859 -2.24856104
  H -1.80124365 -0.13531557 -1.74096473
  H -2.71800927 -1.61244129 -1.34203995
  H -0.56865763 -0.58648008  1.66717176
  H -3.77180025  0.21572096 -0.34947556
  H -3.62155133 -1.12276826  0.80078444
  H -4.37992554  0.41795757  1.29670772
