40
opt_min/./Product_1089_opt.xyz
  C  3.31428572  0.89130789  2.63898587
  O  2.43202812  0.17960406  1.78280746
  C  2.27000414  0.67115192  0.56511695
  O  2.91445827  1.56029527  0.07895937
  C  1.26291922 -0.19369772 -0.24330613
  C -0.16638705  0.42473422 -0.38455401
  C -0.36805757  1.65491677  0.50685507
  C -1.63189752  2.45113889  0.32053045
  O  0.46280965  1.98561316  1.30895991
  C -0.15237611  0.84123150 -1.90150066
  C -0.27696499 -0.41877463 -2.73068375
  C  0.90844757 -1.01190098 -2.62360702
  C  1.73747290 -0.10362819 -1.74556203
  O  1.20827914  1.17168558 -2.07301455
  C -1.06235027 -0.76290571  0.07013513
  C -1.55724325 -1.68348288 -0.94786043
  N -2.03092776 -2.53963918 -1.54469083
  C -2.32748187 -0.36350018  0.85714408
  O -2.43166787 -0.37726230  2.04481932
  O -3.28944921 -0.02713494 -0.00287764
  C -4.56665584  0.28574548  0.54902374
  O -0.21184303 -1.49180697  0.94764681
  N  1.10526641 -1.45945840  0.43958265
  C  1.45415406 -2.68862117 -0.22706102
  H  2.76163383  1.68505621  3.14484699
  H  4.12917780  1.33197970  2.06103414
  H  3.69347511  0.17247511  3.36195849
  H -2.18731221  2.18877396 -0.57317813
  H -2.26167008  2.29896679  1.19707211
  H -1.36546839  3.50688558  0.30606677
  H -0.79289635  1.67714594 -2.16385589
  H -1.13956197 -0.69981258 -3.29895878
  H  1.25837867 -1.92217465 -3.06617506
  H  2.81476687 -0.11984735 -1.87553896
  H -4.45363242  0.76664875  1.52175945
  H -5.05653634  0.94978828 -0.15910686
  H -5.14555202 -0.63127956  0.66621005
  H  2.49369631 -2.61397112 -0.53702675
  H  1.35544044 -3.48577636  0.50821107
  H  0.82057446 -2.92284318 -1.09053648
