57
opt_min/./Product_5898_opt.xyz
  C -1.40197500 -1.24366900  1.22879400
  O -1.55061391 -1.84696866  2.26591775
  C -0.33225080 -0.17507115  1.05133398
  O  0.09294038  0.45502828  2.23941650
  C  0.10151145 -0.21007020  3.48725817
  C -0.81284060  0.98830737  0.13981973
  O -1.78515349  1.67040915  0.89779476
  C -2.61649170  2.61871644  0.25972669
  C -1.44467874  0.44615384 -1.14602367
  O -1.26057981  1.00140647 -2.21213691
  C -2.34021787 -0.69918451 -1.01011740
  C -3.23795534 -0.97366454 -2.17688573
  C -2.29715882 -1.49927377  0.07936490
  C -3.17493991 -2.69184626  0.23622805
  C  0.53493495  1.72713598 -0.17760296
  C  0.86312224  2.79337457  0.88604527
  C  0.58916447  2.37806810 -1.58958503
  C -0.18874923  3.65524674 -1.82308027
  O  1.33929226  1.95199676 -2.42731973
  N  1.49259676  0.63120785 -0.17365195
  C  2.90268801  0.91233599 -0.20507702
  C  0.95405349 -0.61427771  0.27181201
  C  1.75793547 -1.51605837  1.21747082
  O  2.80502190 -0.91624286  1.76747505
  C  3.58419665 -1.67977639  2.68226677
  O  1.43671028 -2.65393220  1.43250244
  C  0.63337555 -1.51826453 -0.94679624
  O -0.08961365 -2.48178433 -0.91587394
  O  1.29005699 -1.08790938 -2.00337258
  C  1.05625299 -1.73223276 -3.24827136
  H  0.74592540  0.40955299  4.11194600
  H  0.50710871 -1.22127700  3.42899562
  H -0.89672357 -0.25601838  3.92683401
  H -3.02150162  2.25196683 -0.68614532
  H -3.43466971  2.78802303  0.95729391
  H -2.09391384  3.56197006  0.08401315
  H -3.03005483 -0.26051677 -2.97095082
  H -4.28324603 -0.88819988 -1.88381805
  H -3.07271961 -1.98129009 -2.55352282
  H -4.13493995 -2.38653447  0.65412421
  H -3.35277786 -3.18068423 -0.71625425
  H -2.71225773 -3.38927969  0.92903004
  H  1.34111339  3.66568155  0.44769432
  H  1.53717700  2.36611255  1.62054058
  H -0.03881324  3.09054995  1.41205927
  H  0.33215298  4.23417370 -2.58227697
  H -1.16773599  3.39695165 -2.21786878
  H -0.31243562  4.25032745 -0.92530558
  H  3.42752866  0.02944359 -0.56454430
  H  3.31667781  1.19979383  0.76878104
  H  3.07493034  1.71313978 -0.92038474
  H  3.26601064 -1.45648447  3.70201672
  H  3.45647507 -2.74556993  2.48591993
  H  4.62045097 -1.38007723  2.53942433
  H  2.01532118 -1.80217325 -3.75681147
  H  0.37283005 -1.11210130 -3.83020894
  H  0.62534750 -2.72204838 -3.08715758
