43
opt_min/./Product_4428_opt.xyz
  C  4.59247800 -0.70769800 -0.23494700
  C  4.14119330  0.71927044 -0.13214509
  C  5.18582146  1.78131377 -0.31623791
  C  2.86468948  1.06755454  0.07210230
  C  1.75292799  0.16361596  0.21914658
  C  0.50034132  0.58065646  0.41470206
  C -0.70716840 -0.30340157  0.52838296
  C -0.37845981 -1.60760788  1.25517092
  C -1.89963682  0.42091433  1.19054617
  C -2.93902967  0.50665177  0.03160674
  C -4.36483302  0.86880163  0.39095738
  C -4.48238854  2.19265625  1.08729526
  O -5.29987154  0.17023600  0.09863495
  C -2.24621262  1.48063837 -0.94915753
  O -2.45452288  2.64406909 -1.12412593
  O -1.28981890  0.76807037 -1.53356863
  C -1.31784456 -0.54470297 -0.92181135
  C -0.62241693 -1.51585084 -1.84142109
  N -2.73704101 -0.70854972 -0.74237465
  C -3.31559574 -1.95975736 -0.29946677
  H  4.24334841 -1.15726035 -1.16548638
  H  5.67685876 -0.77875835 -0.21028147
  H  4.19763014 -1.30230736  0.58867261
  H  6.18729325  1.38771737 -0.16167542
  H  5.13488626  2.18467635 -1.32914844
  H  5.02422176  2.60933899  0.37255662
  H  2.61704034  2.12063031  0.12905766
  H  1.97539586 -0.89223499  0.16688609
  H  0.30862034  1.64558603  0.44096620
  H  0.30752147 -2.22169092  0.67882419
  H  0.09629904 -1.37227235  2.20635623
  H -1.27704415 -2.18736611  1.44745814
  H -2.32226524 -0.17461338  2.00243846
  H -1.64052255  1.40348054  1.57756630
  H -5.52744518  2.40363850  1.29927055
  H -4.06959216  2.95476733  0.42539633
  H -3.90765230  2.19920711  2.00952161
  H  0.38964682 -1.16407498 -2.02054995
  H -0.59034287 -2.51256068 -1.41179361
  H -1.16594788 -1.55241849 -2.78170332
  H -3.62763565 -1.91844175  0.74632358
  H -4.19430319 -2.16530787 -0.91179915
  H -2.60028385 -2.77138784 -0.42103850
