34
opt_min/./Product_110_opt.xyz
  C -2.37064900 -1.66168900 -1.09786400
  C -2.07869893 -0.58715573 -0.09251895
  O -2.81329940 -0.32732861  0.82867611
  C -0.77374875  0.18815330 -0.30261665
  C -0.99152892  1.70179839 -0.44458110
  C -2.40075799  2.21637406 -0.43233527
  O -0.04740318  2.42334623 -0.68139744
  C  0.31118306 -0.22087181  0.77352338
  C -0.18963899 -1.23993332  1.78852852
  C  0.86957648  0.97548002  1.54865271
  C  1.39878549 -0.87200824 -0.15611128
  C  2.78393809 -0.91300538  0.45208165
  C  3.77377383  0.11929696 -0.01019688
  O  3.06361972 -1.75723894  1.26665397
  N  1.25983448 -0.22065115 -1.44082466
  N -0.14734120 -0.21880310 -1.59722261
  H -3.36514524 -2.05932834 -0.91594400
  H -1.63644207 -2.45518993 -0.99831383
  H -2.28420825 -1.27547631 -2.10803922
  H -2.92219940  1.90161973  0.47018842
  H -2.38292905  3.30091878 -0.49854764
  H -2.93815335  1.81073747 -1.28700652
  H  0.63749266 -1.54086839  2.42645976
  H -0.58157748 -2.12948978  1.30354402
  H -0.97260616 -0.81401373  2.40985904
  H  1.34209313  1.71178426  0.90731916
  H  1.59602166  0.62468969  2.27704312
  H  0.06483511  1.47227712  2.08612525
  H  1.07792116 -1.91052818 -0.31142741
  H  4.75281044 -0.12897132  0.38929633
  H  3.48570094  1.10501598  0.34405829
  H  3.81367712  0.14506701 -1.09534204
  H  1.60433134  0.74527547 -1.37383349
  H -0.39812154  0.41667388 -2.35042550
