40
opt_min/./Product_5001_opt.xyz
  C -0.25100753  1.02986715 -0.08795614
  O  0.48941381  1.96180575  0.13286820
  C  0.04784954 -0.36594042  0.49289602
  O -0.63363712 -0.62552486  1.66667564
  C -0.51134142  0.31561289  2.72781415
  C -0.31227329 -1.48170482 -0.53068828
  O -0.14435369 -2.68376752  0.16905977
  C -0.26472192 -3.92001889 -0.51604415
  C -1.72806776 -1.28588241 -1.08979130
  O -2.46807713 -2.22001347 -1.28659312
  C -2.14461457  0.10245807 -1.36149513
  C -3.38724979  0.22227914 -2.17994882
  C -1.46032428  1.17338911 -0.90997933
  C -1.84717706  2.58104538 -1.23694644
  N  0.66507829 -1.26110770 -1.58474408
  O  1.78872164 -0.58062131 -0.98768157
  C  1.60432852 -0.51847488  0.42606106
  C  2.45156182  0.64090127  1.02466196
  N  3.30107959  1.17361226  0.14159478
  C  4.18577690  2.25579881  0.49025077
  O  2.40472859  0.91657578  2.20012294
  C  2.08496145 -1.72439689  1.07983705
  N  2.55544637 -2.65530165  1.54540608
  H -1.09077380 -0.12025812  3.54096338
  H  0.53007122  0.44208814  3.02886236
  H -0.93337555  1.28519510  2.44671749
  H  0.37282384 -3.96727169 -1.40723070
  H  0.08217099 -4.65621675  0.20950875
  H -1.29782614 -4.12327054 -0.79550003
  H -4.02142949 -0.64257162 -1.98540676
  H -3.93026188  1.13749477 -1.96248696
  H -3.13100358  0.20716069 -3.24116978
  H -2.07529517  2.69178238 -2.29459341
  H -2.72634412  2.87459498 -0.66090374
  H -1.02709334  3.24631698 -0.97069110
  H  1.03093624 -2.16153567 -1.90792062
  H  3.24530982  0.89248869 -0.82702526
  H  5.20072080  2.02293893  0.16553508
  H  3.85872899  3.18909147  0.02430269
  H  4.16031488  2.36928968  1.57384948
