31
opt_min/./Product_611_opt.xyz
  F -2.34214300  3.25749300  0.54706300
  C -2.42393100  2.17116260 -0.23676940
  F -1.63983844  2.43191051 -1.30463041
  F -3.68074968  2.13154781 -0.70329367
  C -2.04540541  0.93880502  0.50739519
  C -2.55412841 -0.29990962  0.46584168
 Cl -3.70271982 -0.98752989 -0.55130767
  C -1.83915432 -1.06835067  1.56437865
  C -0.39145075 -1.38774575  1.06790261
  C  0.19873470  0.03008288  1.01622471
  C -0.97565073  0.87200746  1.58664390
  O -1.55781740 -0.04284043  2.49882452
  C  0.58532680  0.16094631 -0.47388949
  C  1.87157300  0.96062311 -0.65171522
  O  2.94169853  0.52095605 -0.95458119
  O  1.61177000  2.24177908 -0.38420107
  C  2.68168531  3.17914254 -0.49533152
  O  0.74000066 -1.15125933 -0.92790614
  N -0.28254208 -1.94198166 -0.26042106
  C  0.11613415 -3.32906626 -0.35005459
  H -2.38920542 -1.89820423  1.99876841
  H  0.07271667 -2.01143508  1.85032530
  H  1.08914594  0.12355321  1.63767893
  H -0.71479596  1.80484769  2.07578200
  H -0.20806234  0.65757656 -1.04512621
  H  2.93964109  3.53734219  0.50379282
  H  2.32797425  4.00678703 -1.11081680
  H  3.54764475  2.69970133 -0.95776326
  H  0.69371377 -3.66814019  0.51791363
  H  0.72514165 -3.43588764 -1.24677942
  H -0.78497956 -3.93590016 -0.45294521
