34
opt_min/./Product_3516_opt.xyz
  C -2.86366596  1.31428621  0.15124627
  C -1.67344276  0.61015355 -0.47656022
  C -0.28855982  1.22473704 -0.19023548
  C -0.08256539  1.75856873  1.22391147
  C  0.65956191  0.05594125 -0.56664152
  C  1.88910493 -0.00363893  0.33729535
  N  3.01411121  0.46972077 -0.24151398
  C  4.28336778  0.49415743  0.44078826
  O  1.87967675 -0.47438299  1.45643664
  N -0.14323581 -1.15330656 -0.54519273
  C  0.45493678 -2.40494053 -0.16256578
  C -1.51009791 -0.88615092 -0.12392084
  C -1.85599296 -1.27864337  1.32381426
  C -2.38351677 -1.66398132 -0.99615271
  N -3.03889299 -2.27304662 -1.70725726
  H -2.81337380  1.31523036  1.23675053
  H -3.78327025  0.82174670 -0.15459111
  H -2.90182358  2.34840348 -0.18665300
  H -1.79784100  0.63743742 -1.56799693
  H -0.12499098  2.06585459 -0.87071701
  H -0.86129796  2.47689738  1.46536538
  H -0.07397824  0.96763236  1.96432293
  H  0.87583811  2.26727971  1.29182046
  H  0.99387780  0.20676750 -1.61044583
  H  2.97021247  0.84677246 -1.17350607
  H  5.03025174 -0.05098716 -0.14393386
  H  4.14599537  0.00225247  1.40063534
  H  4.63474405  1.51356289  0.60436997
  H  0.72067305 -2.46149462  0.90018487
  H  1.36322537 -2.54669705 -0.74824324
  H -0.23700326 -3.21019998 -0.40846561
  H -1.19370750 -0.77967591  2.02254257
  H -2.88722563 -1.01265940  1.53901388
  H -1.74759347 -2.35263307  1.44803560
