39
opt_min/./Product_4080_opt.xyz
  C  3.31548523  0.47760070  0.76372701
  C  2.73777871 -0.57343413 -0.14166918
  C  3.67186503 -1.14578886 -1.16325949
  C  1.46513426 -0.95524150 -0.09557746
  C  0.41206162 -0.40186621  0.81369984
  C -0.58749401  0.51429173  0.06968980
  C -0.44364925  1.98469928  0.34440092
  C -0.59872102  2.86309434 -0.85869505
  C -0.21753010  2.48702544  1.55065518
  C -1.99151815 -0.08787758  0.43521782
  C -2.79214668 -0.42199842 -0.83580705
  O -3.85052385 -1.16490895 -0.54565796
  C -4.70010159 -1.56876313 -1.61391248
  O -2.48347923 -0.06304988 -1.94301919
  C -2.88907396  0.79965592  1.30348950
  N -1.74732985 -1.32377999  1.13202144
  C -0.50686293 -1.48497772  1.33415835
  C  0.02910838 -2.60937860  1.99905579
  N  0.51755031 -3.50860090  2.51654037
  H  3.02041774  0.30918920  1.79765937
  H  2.96058887  1.46528906  0.47121707
  H  4.40032373  0.47119381  0.71460209
  H  3.83419141 -0.42039586 -1.96213404
  H  3.26279028 -2.04932225 -1.60925703
  H  4.63779467 -1.37690844 -0.72051825
  H  1.11407889 -1.70626461 -0.79182311
  H  0.86823074  0.11536801  1.65965416
  H -0.46334873  0.34905077 -1.00661342
  H -1.62481765  2.80558398 -1.22188202
  H  0.05077198  2.53105376 -1.66487255
  H -0.37332144  3.89928271 -0.61841484
  H -0.11623891  3.54674590  1.70635567
  H -0.10205504  1.87132437  2.42675470
  H -5.72538935 -1.37589138 -1.30382052
  H -4.55400360 -2.63551784 -1.78706452
  H -4.45524992 -1.00635580 -2.51723083
  H -3.15655071  1.70925992  0.77348110
  H -3.78350640  0.24203150  1.56584368
  H -2.36453458  1.07443816  2.21635578
