53
opt_min/./Product_1690_opt.xyz
  C -4.37773100  0.29532000 -3.25607000
  N -3.60606782  0.52203158 -2.05570470
  C -2.75233684 -0.40895211 -1.56854833
  O -2.67589902 -1.51094707 -2.08484718
  C -1.99398706 -0.04675312 -0.28642417
  C -2.61409129 -0.88842817  0.86685143
  O -2.00396617 -1.11530125  1.88934217
  N -3.89990788 -1.25625275  0.69167352
  C -4.60288389 -2.05935293  1.66587038
  C -0.50517506 -0.45460956 -0.39685358
  C  0.63273821 -0.27573351  0.36081845
  C  0.87786489  0.10057713  1.82881625
  F  2.06379866 -0.48048876  2.24476220
  C  0.96447668  1.61079769  2.26386894
  C -0.38316658  2.38854170  2.20184692
  C -0.97674917  1.65569198  1.01444997
  C -2.22938507  1.46433404  0.18457555
  N  1.71738376 -0.73344942 -0.42012355
  C  3.09257407 -0.78753421 -0.25912993
  C  3.84298863  0.19332354  0.38957905
  C  5.21801991  0.08752610  0.45934284
  C  5.88076476 -0.96872895 -0.14194901
  C  5.14495358 -1.92717557 -0.82157308
  C  3.77052012 -1.84066446 -0.88201319
  N  1.26843246 -0.96383845 -1.75621937
  C  1.51012670  0.25878346 -2.55970994
  N -0.09687288 -1.18124171 -1.53418805
  H -5.44153380  0.42888744 -3.05303397
  H -4.19467404 -0.72763088 -3.58103462
  H -4.07658684  0.98236428 -4.04922281
  H -3.65014514  1.44101237 -1.65112123
  H -4.33763584 -1.15331841 -0.20898010
  H -5.52584195 -1.56224291  1.96872939
  H -3.95132007 -2.17626671  2.52959591
  H -4.83883546 -3.04390993  1.25880099
  H  0.12678669 -0.40839860  2.44793875
  H  1.36838898  1.59987861  3.27699273
  H  1.68820037  2.11533389  1.62214425
  H -0.20076198  3.45225658  2.04635551
  H -0.96108688  2.25459660  3.11457709
  H -0.95488017  0.67315194  1.45189585
  H -0.20424744  1.77830238  0.25577969
  H -2.24114903  2.16102411 -0.65512864
  H -3.16678049  1.52214424  0.73645151
  H  3.35679253  1.03976481  0.84695991
  H  5.77931913  0.85237579  0.97665396
  H  6.95597703 -1.03900270 -0.08520742
  H  5.64272613 -2.75584521 -1.30450263
  H  3.19453923 -2.58427594 -1.41051294
  H  2.58206382  0.43790434 -2.58218222
  H  1.15852728  0.06874838 -3.57116781
  H  0.99928632  1.13844722 -2.15146314
  H -0.67507486 -1.36767205 -2.33200486
