44
opt_min/./Product_1131_opt.xyz
  C -3.94486949 -2.96094993 -0.52235608
  N -2.59403957 -2.49816081 -0.31106756
  C -2.33281910 -1.41444346  0.45175358
  O -3.18706275 -0.82187127  1.08378363
  C -0.90806549 -0.99614100  0.52080543
  C  0.11970499 -1.25849981 -0.30584102
  C  0.07472065 -1.96618966 -1.51310802
  N  0.03247207 -2.53776398 -2.50920328
  C  1.35762012 -0.50246476  0.12242874
  C  1.71998164  0.53002212 -0.99035512
  N  2.98419267  0.98335031 -0.92262690
  C  3.48310650  2.00711310 -1.81092818
  O  0.91665353  0.88354423 -1.82011330
  C  2.57659706 -1.40789619  0.37062552
  C  2.95437101 -2.31664399 -0.76673811
  O  3.19686965 -1.34626657  1.40017974
  N  0.94916658  0.11564042  1.37636705
  C  1.55019671  1.36613191  1.76732431
  C -0.48320541 -0.04560124  1.60091490
  C -0.74506426 -0.57980437  3.01098891
  C -1.24797194  1.28406579  1.40564941
  O -1.56691392  2.02339770  2.29531468
  O -1.43478721  1.51981950  0.11341376
  C -2.11806960  2.71892022 -0.22950507
  H -3.95189918 -4.04728015 -0.60168041
  H -4.54453388 -2.64541911  0.33046745
  H -4.37234232 -2.52884863 -1.43052252
  H -1.87342884 -2.89327034 -0.89432759
  H  3.59891911  0.66739771 -0.18813040
  H  2.76159030  2.12688452 -2.61720906
  H  3.59703953  2.95885649 -1.28623096
  H  4.44671685  1.70668760 -2.22175520
  H  2.32829542 -3.20786295 -0.72758621
  H  3.99182083 -2.62670377 -0.65778800
  H  2.79729706 -1.83995702 -1.73062011
  H  1.39651502  2.17714959  1.04081611
  H  2.61988866  1.21351632  1.92024907
  H  1.11352387  1.66989577  2.71642703
  H -0.21932413 -1.52083846  3.15047872
  H -0.38854028  0.14051599  3.74161178
  H -1.81370567 -0.72142393  3.15229416
  H -3.17724523  2.62132041  0.01671442
  H -1.70007800  3.56551288  0.32050892
  H -1.98163759  2.84521745 -1.30103906
