51
opt_min/./Product_5349_opt.xyz
  N  0.47813800  0.53988400  1.51217600
  C -0.88923740  0.82749547  1.10129488
  N -1.86179238  0.01914647  1.80017383
  N -1.13317221  2.20517165  1.46450968
  C -2.47126890  2.71838170  1.23622895
  C -1.01110909  0.58257089 -0.47137654
  C -2.29499812 -0.12985682 -0.80909638
  C -2.43001176 -1.49962216 -0.60387522
  C -3.61294511 -2.14698834 -0.90667512
  C -4.68309750 -1.43745428 -1.42532601
  C -4.55478450 -0.07815265 -1.65040433
  C -3.36830245  0.56686747 -1.34807401
  N  0.11860416 -0.17567629 -0.97538888
  C -0.03079358 -0.59847551 -2.35999884
  C  1.41177293  0.26916032 -0.64313943
  C  1.71645503  1.70441623 -0.78752841
  N  2.90025009  1.96066559 -1.41976946
  C  3.35508866  3.29718684 -1.70178621
  O  0.97044248  2.63230917 -0.48693088
  C  2.41022207 -0.71567232 -0.40203704
  C  3.67553266 -0.38350168  0.13742663
  C  4.61282754 -1.35146790  0.41380245
  C  4.33992815 -2.69296313  0.18131755
  C  3.08550386 -3.05079958 -0.29431176
  C  2.13642231 -2.09241082 -0.56684101
  H  0.92210053  1.33924070  1.94002872
  H  0.57554478 -0.28638183  2.08504049
  H -1.87573994  0.29814002  2.77606586
  H -1.61957649 -0.96175867  1.74117083
  H -0.44460179  2.77711013  0.98143009
  H -2.61548198  3.57347014  1.89785133
  H -3.19599721  1.94644904  1.48314532
  H -2.64741679  3.04640017  0.20573722
  H -1.03504290  1.58488403 -0.92591375
  H -1.59359194 -2.06531698 -0.21859407
  H -3.70090659 -3.21130053 -0.74081922
  H -5.60790484 -1.94383084 -1.66040704
  H -5.37862345  0.48310570 -2.06633169
  H -3.27890752  1.62586924 -1.54094938
  H  0.94017375 -0.89207662 -2.75343467
  H -0.42284652  0.21632848 -2.98261176
  H -0.71465970 -1.44408028 -2.43687179
  H  3.47290466  1.19156966 -1.72653765
  H  2.59807465  3.98144022 -1.32111963
  H  4.30849100  3.49950022 -1.20753078
  H  3.47571929  3.44909464 -2.77665663
  H  3.89727875  0.64494698  0.37654778
  H  5.56711283 -1.06256911  0.83105569
  H  5.08111987 -3.44687573  0.39236883
  H  2.84872166 -4.09463981 -0.44375944
  H  1.16033257 -2.39413718 -0.90852834
