43
opt_min/./Product_4914_opt.xyz
  C  0.54971916  0.86407508 -1.12722285
  C  0.11573808  0.25233999  0.20206085
  C  0.85997223 -1.06554399  0.45855274
  N  2.26229018 -1.01272365  0.21347298
  C  3.06319368 -2.12492026  0.65733482
  C  2.77783555 -0.09745240 -0.66400547
  C  2.04446873  0.83216162 -1.29135234
  C  2.60870268  1.91885630 -2.11213186
  N  3.82218165  1.68343118 -2.68533461
  O  2.04567275  2.99098795 -2.24509010
  C  0.03862184 -2.07524537 -0.42976300
  C  0.00156748 -3.37396240  0.21973933
  N -0.01630645 -4.39001166  0.74356130
  C  0.69713664 -2.26029816 -1.72011971
  N  1.22989153 -2.40861964 -2.71953070
  N -1.25927350 -1.44977338 -0.60567174
  C -2.40880022 -2.31213512 -0.71154432
  C -1.35388072 -0.21254077  0.15430252
  C -2.24389708  0.79352321 -0.61039550
  N -2.22986085  2.03333766 -0.07748176
  C -2.93025004  3.13361212 -0.69741237
  O -2.93559350  0.48829241 -1.55410868
  C -1.95483690 -0.41803472  1.56048295
  H  0.22976551  1.90500711 -1.20618824
  H  0.08140758  0.31791424 -1.95221764
  H  0.31271426  0.94362325  1.02532470
  H  0.71314107 -1.36613822  1.50592631
  H  3.03471977 -2.95973461 -0.05427437
  H  4.09768694 -1.80615812  0.77797066
  H  2.69449426 -2.48571661  1.61820853
  H  3.85520762 -0.13122633 -0.73635046
  H  4.21005004  0.76131372 -2.76133862
  H  4.15704246  2.37859959 -3.33255735
  H -2.22005979 -3.05858020 -1.48357601
  H -2.65953748 -2.83278860  0.22425993
  H -3.25331626 -1.70507723 -1.02861956
  H -1.56322195  2.26176131  0.64095692
  H -3.32656847  3.79709083  0.07015968
  H -2.27412349  3.69774394 -1.36430627
  H -3.75101033  2.72062189 -1.28197480
  H -1.54744367 -1.31502136  2.02442874
  H -1.73914017  0.42995425  2.20635206
  H -3.03479440 -0.52918428  1.49379812
