36
opt_min/./Product_5157_opt.xyz
  O  3.12999093  1.61947034  2.32902962
  C  3.53413637  0.86229148  1.28447439
  O  4.27368237  1.36005729  0.49812605
  C  2.97617814 -0.54943357  1.21760669
  C  1.53302038 -0.57582984  1.73560252
  C  1.36508853  0.16781806  3.04256423
  O  0.55667085 -0.07701431  3.87724188
  O  2.32868777  1.08048913  3.34875169
  C  0.74158328 -0.03857529  0.51836541
  C -0.74837727 -0.49099304  0.57413403
  N -0.90912082 -1.78057831  0.24287458
  C -2.21820228 -2.39542343  0.23529260
  O -1.63821379  0.25511625  0.89963448
  C  0.75975920  1.50659720  0.45654656
  O  1.08970140  2.12345020 -0.51868432
  O  0.37691698  2.01688974  1.61345850
  C  0.27168333  3.43490267  1.72270489
  N  1.42992162 -0.65607263 -0.59036353
  C  1.07023100 -0.36827022 -1.96115940
  C  2.80024050 -1.01055339 -0.24957479
  C  3.81350316 -0.53550973 -1.19142219
  N  4.55106975 -0.31262194 -2.03402290
  C  2.85689607 -2.47766099 -0.30028833
  N  2.76998083 -3.61565755 -0.33948386
  H  3.64831098 -1.21205829  1.77387840
  H  1.21338617 -1.60760174  1.92514070
  H -0.12097296 -2.31692513 -0.08512253
  H -2.77143830 -2.05775999  1.11124195
  H -2.77888036 -2.10473144 -0.65589412
  H -2.10869322 -3.47571530  0.25940572
  H -0.61572506  3.63359164  2.31909869
  H  0.18441855  3.87727948  0.72968922
  H  1.16219262  3.81819870  2.22360983
  H  1.73714772  0.36476997 -2.42308644
  H  1.09297065 -1.29199237 -2.54602700
  H  0.06152011  0.03559661 -1.97319821
