14
opt_min/./Product_3217_opt.xyz
  C -1.55957200  0.37867600 -0.31735900
  C -0.15056011  0.91807880 -0.00869893
  N  0.62827068 -0.30386167  0.16408264
  C  2.03261146 -0.33181324  0.41328597
  N -0.10107387 -1.40749956  0.04162265
  C -1.31466683 -1.10979197 -0.20907859
  H -2.31915838  0.72753121  0.38119481
  H -1.87776527  0.64240594 -1.33096276
  H -0.12978947  1.51029618  0.91730921
  H  0.25513170  1.53044652 -0.82020189
  H  2.61510322 -0.33023696 -0.51683136
  H  2.27490691 -1.23117149  0.97850370
  H  2.30778853  0.54390018  1.00081680
  H -2.06114005 -1.86696372 -0.33350326
