59
opt_min/./Product_2769_opt.xyz
  C -1.15086100 -1.29574200  3.74005400
  O -1.21532924 -0.83280265  2.39614079
  C -0.16363830 -1.10356559  1.61564101
  O  0.78759947 -1.73350955  1.97275902
  C -0.40532462 -0.52873697  0.22375498
  C  0.67301676 -0.86768264 -0.85110720
 Br  1.84328949 -2.41091391 -0.43847332
  C -0.20161830 -1.30258652 -2.07425574
  C -0.70252768 -2.74094251 -1.89958350
  C -1.51822111 -2.62675205 -0.59738561
  C -1.68143310 -1.10644435 -0.41254929
  C -1.53371083 -0.59578634 -1.84475407
  C  1.56253308  0.41042712 -0.97020438
  C  1.69230773  0.83063408 -2.45604534
  C  2.38721231 -0.05420038 -3.45884509
  O  1.20202537  1.87375577 -2.81677634
  C  2.94871198  0.27837800 -0.29424841
  C  4.04234681 -0.34789208 -0.88434752
  C  5.26282345 -0.43854689 -0.23922560
  C  5.43025330  0.08336638  1.02909899
  C  4.33963406  0.65529490  1.65384889
  C  3.12007679  0.73987093  1.00640018
  N  0.78814093  1.44685830 -0.30528059
  C  1.35120489  2.77278258 -0.16551126
  C -0.43528538  1.04461337  0.32719480
  C -1.70018499  1.69346195 -0.30537621
  C -1.50231933  2.81715906 -1.28340895
  O -2.80953703  1.37798627  0.05839944
  C -0.45667822  1.49531629  1.83875315
  C -1.71472267  2.02591587  2.45957043
  O  0.56939162  1.49421331  2.47190907
  H -0.11085292 -1.35524966  4.06484663
  H -1.70465423 -0.58237225  4.34551691
  H -1.61128292 -2.28310216  3.80501499
  H  0.25412358 -1.10546240 -3.03894468
  H  0.06851576 -3.50343525 -1.87907153
  H -1.36860397 -2.98184057 -2.72986627
  H -2.49423588 -3.10028578 -0.70024582
  H -1.01102163 -3.08907347  0.24872437
  H -2.58421025 -0.82957790  0.12490875
  H -2.32116063 -0.96907999 -2.49695503
  H -1.47889098  0.47870158 -1.96711285
  H  2.47597069 -1.09016467 -3.15204900
  H  1.84210745  0.01256835 -4.40032511
  H  3.37754058  0.36350995 -3.64269404
  H  3.97226254 -0.81891068 -1.84690829
  H  6.07753182 -0.94901834 -0.73076538
  H  6.38377295  0.01635891  1.53117547
  H  4.42201004  1.03452065  2.66146584
  H  2.29394724  1.15064350  1.55308141
  H  2.42602227  2.71788317 -0.32648677
  H  0.95083607  3.48029754 -0.89441719
  H  1.18290079  3.16663039  0.83777215
  H -0.67979908  2.63383321 -1.96839572
  H -2.43121924  2.96527424 -1.83139740
  H -1.29611612  3.72902327 -0.72401433
  H -2.59648785  1.46153057  2.17843033
  H -1.58509289  2.02297373  3.53995507
  H -1.85053417  3.05794596  2.13347061
