43
opt_min/./Product_5239_opt.xyz
  C  0.92724400 -0.92795400 -1.23746200
  O  0.77858967 -1.84172867 -2.01509886
  C  2.11635812 -0.88752379 -0.34189316
  O  2.93213037 -1.90961857 -0.64597554
  C  4.21425352 -2.06003869 -0.07505031
  C  2.25280202  0.04110039  0.65555796
  O  3.32185077 -0.03313872  1.49816660
  C  3.62947091  1.06000792  2.34255649
  C  1.16246610  0.99483820  0.90389228
  O  0.91718600  1.44434051  2.00645098
  C  0.36900116  1.42530269 -0.32452221
  C  1.20193167  2.49365159 -1.03273488
  C -0.05778125  0.21823027 -1.18246436
  C -0.40154843  0.62638913 -2.61842159
  C -1.36098422 -0.21448797 -0.41783945
  C -2.39494306 -0.89969086 -1.30432388
  O -2.26958003 -2.21966625 -1.19637022
  C -3.12274475 -3.00188753 -2.02340454
  O -3.19618613 -0.34505651 -2.00156154
  N -1.87512096  0.98920427  0.17753472
  C -0.98132988  1.88432041  0.20645480
  C -1.19642859  3.21454968  0.85013458
  C -2.06541305  3.12958813  2.06615230
  O -0.68858037  4.22358567  0.43301660
  H  4.63983338 -2.93184056 -0.57079973
  H  4.84561620 -1.18976619 -0.25997985
  H  4.15469165 -2.23874202  0.99980517
  H  3.63277680  2.00314411  1.78960495
  H  2.93247721  1.13910375  3.17723264
  H  4.63214870  0.85427109  2.71420967
  H  2.07838235  2.04130061 -1.49329762
  H  1.52786183  3.24370262 -0.31478136
  H  0.61148656  3.00030633 -1.78964217
  H -0.71464269 -0.25126344 -3.17798491
  H -1.21071791  1.35244770 -2.62635545
  H  0.47109361  1.04398349 -3.11389123
  H -1.11244330 -0.91424429  0.39055376
  H -2.92062002 -2.79353711 -3.07539141
  H -2.90106582 -4.03963864 -1.79223200
  H -4.16840592 -2.77150517 -1.81114036
  H -2.94186607  2.53111377  1.83578428
  H -2.33816013  4.12214749  2.41256017
  H -1.50030439  2.61426185  2.84184508
