36
opt_min/./Product_461_opt.xyz
  C -3.16490749  1.41108652  0.29964669
  O -1.97142888  0.71163703  0.62755504
  C -1.22978909  0.24478436 -0.46752620
  C -1.99574537 -0.65694954 -1.31456394
  N -2.62945652 -1.36222137 -1.95247123
  C  0.11395386 -0.45689603  0.05321894
  O  0.61170946 -1.24978195 -0.97476947
  C  0.35389365 -2.64708502 -0.92232519
  O  0.00966835 -1.23361425  1.18306845
  C -0.30626884 -0.69223264  2.45537313
  C  1.02731053  0.81528632  0.13670044
  C  2.48891185  0.48042746  0.19780539
  C  3.17218173  0.58335432  1.40142834
  C  4.51260965  0.24612853  1.46880464
  C  5.17700767 -0.18712349  0.33491266
  C  4.49910798 -0.27811110 -0.86962777
  C  3.15852120  0.05343324 -0.94208596
  O  0.71773768  1.52156409 -1.03515508
  N -0.67828047  1.32186020 -1.25436221
  C -1.28597152  1.98990036 -2.20350705
  N -1.87072221  2.58897609 -2.98892095
  H -2.94315860  2.34965377 -0.21453347
  H -3.82297783  0.80243619 -0.32598944
  H -3.64839012  1.61695157  1.25171723
  H  1.08652422 -3.13973546 -0.28015927
  H -0.65037362 -2.85620237 -0.55503034
  H  0.45503747 -2.99522899 -1.94724563
  H -1.36533998 -0.44127618  2.52231943
  H -0.06762433 -1.49185537  3.15389994
  H  0.29450241  0.18531268  2.69329658
  H  0.71941150  1.39732113  1.02007186
  H  2.66037796  0.92628042  2.28943797
  H  5.03719677  0.32737873  2.40919526
  H  6.22329549 -0.44966757  0.38723010
  H  5.01769693 -0.60877026 -1.75690915
  H  2.62194394 -0.01017976 -1.87414315
