58
opt_min/./Product_3055_opt.xyz
  C -3.18275400  2.01458100  2.90762800
  N -2.92405804  1.61085482  1.54647449
  C -2.12015495  0.57519660  1.23962720
  O -1.57732893 -0.11394788  2.07784380
  C -1.96159710  0.33747749 -0.27453265
  C -0.56803679 -0.18973314 -0.46093694
  C  0.04639088 -1.37396474 -0.70706866
  C -0.44256345 -2.69448036 -1.17438256
 Br  0.66346660 -4.17583813 -0.49563601
 Br -0.16206332 -2.68919592 -3.19480054
  C -1.90247317 -3.10050777 -0.98529119
  C -2.52435736 -2.62792047  0.33045889
  C -3.62337588 -1.59584685  0.07724728
  C -3.16810094 -0.43942915 -0.81262129
  C  1.54645623 -1.12340637 -0.54633610
  C  2.35091663 -1.55032442 -1.79173138
  C  2.51067133 -0.46162331 -2.81151784
  O  2.78827898 -2.65940331 -1.92219481
  C  2.13474711 -1.72201681  0.73738283
  C  1.33321358 -1.90720097  1.85627871
  C  1.88091728 -2.39550557  3.02790295
  C  3.23190146 -2.68624599  3.10282381
  C  4.03794076 -2.46302656  2.00140876
  C  3.49665215 -1.97105569  0.82650780
  N  1.67515744  0.28429816 -0.30854846
  C  0.50388747  0.78643312 -0.21182042
  C  0.26305996  2.19882411  0.10946997
  C  0.07259932  3.13379109 -0.90291707
  C -0.19213397  4.45488476 -0.59068436
  C -0.27440553  4.85409950  0.73303145
  C -0.07484826  3.92814008  1.74295549
  C  0.19371817  2.60573135  1.43627831
  H -2.65872632  1.31848647  3.55997586
  H -2.81134313  3.02596334  3.08328248
  H -4.25169274  1.98135682  3.12353661
  H -3.33891517  2.16262693  0.81307460
  H -1.96921396  1.32188895 -0.76284714
  H -2.49793521 -2.71648414 -1.81548455
  H -1.96118078 -4.18771189 -1.05434670
  H -1.76738603 -2.19297565  0.98299183
  H -2.95775375 -3.47806727  0.85800430
  H -4.47985836 -2.08532757 -0.39318651
  H -3.95863249 -1.20875587  1.04232666
  H -2.93333100 -0.78600577 -1.82132295
  H -4.00031233  0.26254012 -0.91281842
  H  1.53255746 -0.14802963 -3.17377491
  H  3.10426324 -0.82465990 -3.64629391
  H  2.98486298  0.39662298 -2.33896554
  H  0.28338345 -1.65943791  1.83031890
  H  1.24198993 -2.54480392  3.88545784
  H  3.65534319 -3.07315233  4.01772201
  H  5.09717430 -2.66657955  2.05211255
  H  4.14131230 -1.79039268 -0.01881887
  H  0.13936238  2.82353893 -1.93571297
  H -0.33460077  5.17429067 -1.38367330
  H -0.48073157  5.88608214  0.97552754
  H -0.12594745  4.23667228  2.77682986
  H  0.36564612  1.89215457  2.22660024
