39
opt_min/./Product_4063_opt.xyz
  C -2.40174349  1.11437795  1.74971627
  C -1.67102845  0.89384861  0.43376629
  C -0.21584284  1.37951855  0.42797394
  C -0.08425689  2.88364260  0.24757257
  C  0.43253071  0.58656289 -0.72025916
  C  1.87320467  0.22105188 -0.46097378
  C  2.86931407  0.63040602 -1.33807334
  C  4.19530957  0.30835096 -1.11438744
  C  4.55307253 -0.44204853 -0.00688540
  C  3.56575370 -0.86180653  0.86737233
  C  2.23998027 -0.53459839  0.64647354
  N -0.41410286 -0.57478700 -0.86929292
  C -0.05758113 -1.65291368 -1.73831309
  C -1.52768164 -0.60351824  0.04021332
  C -2.82432296 -1.04308610 -0.67349861
  C -3.68437835 -2.06379482  0.02142939
  O -3.11692773 -0.55378396 -1.73190895
  C -1.17919161 -1.40701828  1.19867612
  N -0.79964793 -2.01754023  2.09224448
  H -1.77323699  0.82667654  2.59116063
  H -3.31197084  0.51763459  1.79144371
  H -2.67367177  2.16162367  1.86013831
  H -2.21063166  1.38354178 -0.38399568
  H  0.25940197  1.09590338  1.37331112
  H -0.59681839  3.41062221  1.04938188
  H  0.96610735  3.16885582  0.26198179
  H -0.51362371  3.19802504 -0.70224682
  H  0.39448773  1.18619993 -1.64702977
  H  2.60080004  1.21385500 -2.20886605
  H  4.95259297  0.64298898 -1.80970029
  H  5.58778890 -0.69918381  0.16948118
  H  3.82872527 -1.45190877  1.73364753
  H  1.48535936 -0.89567303  1.33017856
  H  0.82951947 -2.19778321 -1.38286597
  H  0.16120810 -1.26230720 -2.73746999
  H -0.88770499 -2.35264960 -1.81631579
  H -4.62772554 -1.58959902  0.29411232
  H -3.91966894 -2.86629858 -0.67682793
  H -3.21536170 -2.46993170  0.91237534
