46
opt_min/./Product_1580_opt.xyz
  C -0.39625083  2.55118243  2.44579750
  C -0.36903040  1.10179318  2.06729893
  O  0.00523380  0.22905314  2.80310370
  C -1.05704951  0.69015807  0.74065753
  C -1.22627034  1.78226172 -0.33022866
  F -2.17922833  2.66833743  0.00380023
  F -0.16945188  2.55306390 -0.63580978
  F -1.61237434  1.22846555 -1.49292419
  C -0.23935294 -0.48508365  0.13333977
  C -0.29093222 -1.87414503 -0.08720732
  C  0.77971771 -2.07667284 -1.03487557
  C  1.11180546 -3.20546511 -1.81676006
  N  1.38085709 -4.06223897 -2.52898996
  N  1.46534946 -0.98201549 -1.26281979
  N  0.88819807 -0.02948942 -0.54086584
  C  1.71369643  1.07489659 -0.21340221
  O  2.44180175  1.40014716 -1.25167835
  C  3.41432744  2.42564944 -1.07782656
  O  1.73313736  1.56128391  0.88263020
  C -1.02269303 -3.18915380  0.34183686
  C  0.11142684 -4.15407996  0.75931044
  C -1.74714277 -3.71183505 -0.92532196
  C -2.01729026 -3.34097279  1.55875041
  C -3.19642239 -2.34919675  1.69292447
  C -2.45947336 -1.14248597  1.17224519
  C -2.54411162  0.35645787  1.18732817
  H -1.39577064  2.80410644  2.80078652
  H  0.31101817  2.71012897  3.25506673
  H -0.14942318  3.20830750  1.61969829
  H  3.22511522  2.97419076 -0.15426647
  H  4.40340302  1.96763019 -1.04964546
  H  3.33493176  3.08894654 -1.93724634
  H  0.69679498 -3.71446883  1.56585410
  H -0.31169660 -5.08937052  1.11865854
  H  0.78494519 -4.39786208 -0.05450020
  H -1.65289941 -3.02646038 -1.76464585
  H -2.80829387 -3.84916987 -0.73353421
  H -1.33739595 -4.66974350 -1.23485164
  H -1.43164226 -3.26020228  2.47653191
  H -2.38833190 -4.36591421  1.49907790
  H -3.51299133 -2.27618522  2.73227092
  H -4.05555044 -2.63002253  1.08392255
  H -1.50643504 -1.27689665  1.68275593
  H -2.38680355 -1.36074834  0.10853643
  H -3.25784218  0.74298587  0.45935312
  H -2.76495809  0.79791189  2.15837729
