38
opt_min/./Product_4034_opt.xyz
  C  1.06636200  1.27380200  0.36286500
  C -0.14846542  0.69417517  1.08328631
  C -1.07402041  0.24647134 -0.05764813
  C -1.88130844 -1.05510469  0.22297086
  N -2.18161493 -1.26500617  1.52274917
  C -2.93052984 -2.42398867  1.95077121
  O -2.24166029 -1.78994496 -0.66336944
  C -2.13224277  1.30902563 -0.43554639
  C -1.67057674  2.72323111 -0.68525916
  O -3.28918237  1.00299145 -0.58094421
  N -0.16441867 -0.04618293 -1.16112305
  C -0.66462869 -0.01407462 -2.50747512
  C  1.20192466  0.33108719 -0.84033984
  C  1.99171984  0.95180973 -1.99119149
  C  1.92120429 -0.94101451 -0.34850545
  O  1.40458963 -2.00764589 -0.17339020
  O  3.22082638 -0.70516935 -0.09662180
  C  3.97600362 -1.81522608  0.37730168
  H  0.87768237  2.28779065  0.01159741
  H  1.95977945  1.28729490  0.98866734
  H  0.17206400 -0.18456430  1.64677766
  H -0.62974044  1.40455874  1.75567693
  H -1.94522192 -0.58672344  2.22677307
  H -2.92313415 -3.13688104  1.12730529
  H -2.46404259 -2.86616471  2.83079909
  H -3.96516263 -2.16055442  2.18295994
  H -2.54941302  3.34963792 -0.82707070
  H -1.07859891  2.74345246 -1.59970052
  H -1.06607018  3.10980338  0.12969632
  H -1.66471921 -0.44142585 -2.49207724
  H -0.70487459  0.99033268 -2.95701415
  H -0.04880925 -0.65770499 -3.13587438
  H  1.62133474  1.95140355 -2.20914521
  H  3.03988624  1.01650262 -1.70971964
  H  1.91028860  0.33898829 -2.88440576
  H  4.95819329 -1.42334479  0.63229072
  H  3.48853713 -2.25569264  1.24888956
  H  4.05466071 -2.57140082 -0.40561833
