46
opt_min/./Product_1585_opt.xyz
  C  4.83902400 -0.50430300 -0.05663300
  C  3.44672770 -1.03252893  0.16867903
  O  3.15487758 -2.20358180  0.08936452
  C  2.42754989 -0.01801126  0.46297260
  C  2.40225865  1.31499771  0.37181142
  F  3.31831978  2.16206050 -0.09062698
  C  0.99533584  1.74904394  0.68778053
  C  0.20823302  1.28349431 -0.61804686
  C  0.09457237 -0.22639988 -0.32638933
  C  1.00474976 -0.35618682  0.91646114
  O  0.62834050  0.79386966  1.65327338
  C -1.41867176 -0.44156335 -0.04562000
  C -1.73764511 -0.63072637  1.47600788
  O -2.29480078  0.25642160  2.08626950
  N -1.35486458 -1.80530981  1.98270487
  C -1.62674608 -2.14307336  3.36169374
  C -1.91382824 -1.67727108 -0.81932243
  O -1.48823673 -2.79338977 -0.56709469
  N -2.79780793 -1.39703921 -1.77615224
  C -3.40299865 -2.40689712 -2.61145122
  N -2.09800300  0.75477514 -0.50790869
  N -1.12073829  1.76346779 -0.74944018
  C -1.57268762  2.97863754 -1.20647661
  N -0.59300080  3.90278707 -1.43181166
  C -0.92216534  5.24156132 -1.85833926
  O -2.75448794  3.19779489 -1.36722338
  H  4.92220823 -0.19441086 -1.09923309
  H  5.04462443  0.35746487  0.57070036
  H  5.56333401 -1.29449861  0.12557389
  H  0.81396254  2.76172309  1.03134297
  H  0.80206100  1.51733458 -1.51202657
  H  0.41845145 -0.85677945 -1.15350087
  H  0.90756375 -1.26880707  1.49177411
  H -1.09239802 -2.54213862  1.33332789
  H -2.69047582 -2.34133263  3.51845830
  H -1.05140480 -3.02373562  3.63556686
  H -1.33638712 -1.30340177  3.99460181
  H -3.08109443 -0.42906444 -1.88397000
  H -4.40574621 -2.65436476 -2.25555542
  H -2.78481461 -3.30365312 -2.56260832
  H -3.46290593 -2.04807672 -3.63720281
  H -2.74442528  1.07816275  0.22375948
  H  0.36886110  3.70671150 -1.21629019
  H -0.32109406  5.52257843 -2.72421937
  H -0.76013802  5.96555240 -1.05502677
  H -1.97814828  5.24339071 -2.12602327
