39
opt_min/./Product_4705_opt.xyz
  C  2.31422097  1.77323305 -0.19470097
  C  2.83163799  1.11909594 -1.43867200
  C  2.55416587 -0.16342572 -1.66346003
  N  1.82068304 -0.94060481 -0.79428570
  C  1.84158353 -2.37055875 -0.92844083
  C  0.86512393 -0.36760400  0.10808836
  C  0.94251994  1.17861266  0.12945771
  C  0.40307738  1.73674730  1.45827048
  N  1.16116813  1.44182410  2.53391356
  O -0.58128212  2.43610016  1.51763984
  C -0.10080401  1.50345852 -0.93558186
  C -0.13932747  2.76409659 -1.56613246
  N -0.11307448  3.79327592 -2.06828999
  N -0.94561270  0.58355775 -1.15626454
  C -0.65554874 -0.53534859 -0.30322036
  C -1.49202385 -0.36080037  0.99947863
  N -2.69267380  0.16719644  0.77608399
  C -3.60934420  0.48690799  1.84346023
  O -1.06179060 -0.71380999  2.07925679
  C -1.13093791 -1.85079171 -0.91708777
  C -1.20440256 -3.01531307  0.03903025
  O -1.50771273 -1.91678885 -2.05929257
  H  2.20965282  2.85228799 -0.33168708
  H  3.00256181  1.61220565  0.64063642
  H  3.39842124  1.70189329 -2.14180944
  H  2.92973896 -0.67999362 -2.53331991
  H  0.98872855 -2.74428788 -1.50278396
  H  2.75125245 -2.66791413 -1.44476671
  H  1.83482228 -2.83843070  0.06086365
  H  0.98457450 -0.82170356  1.10193766
  H  0.79893147  1.69122073  3.44053011
  H  1.88902944  0.74798985  2.49527420
  H -2.89787444  0.49333544 -0.15858035
  H -3.96084261  1.51060686  1.73420874
  H -4.46062822 -0.19686850  1.83796481
  H -3.07803197  0.38840394  2.78795993
  H -0.56901960 -2.88688930  0.90862777
  H -2.23663833 -3.08965410  0.38130996
  H -0.96521453 -3.94029783 -0.47857996
