26
opt_min/./Product_3871_opt.xyz
  O -1.42456162 -2.39019282  0.37534169
  C -1.49607237 -2.68859519 -0.72712660
  O -1.55935511 -3.00573426 -1.82331389
  C -1.12882116  0.13386776 -1.56960266
  C -2.25648162  0.83690779 -1.27528015
  C -4.00274638 -0.92437533  0.80592077
  O -4.40729154 -1.48486799 -0.10808922
  O -3.60318841 -0.35823912  1.71267808
  N -1.97394190  1.57536938 -0.15471190
  C -2.82348638  2.38536624  0.46631533
  N -3.58797763  3.06615220  0.97660067
  N -0.72048726  1.36188460  0.27373774
  C -0.18409335  0.49558698 -0.56142991
  C  1.17804363  0.01810804 -0.39332187
  C  1.69859233 -0.98455959 -1.21023020
  C  2.99376178 -1.42951598 -1.02510533
  C  3.78316522 -0.88236862 -0.02682342
  C  3.27163490  0.11431318  0.78972106
  C  1.97821082  0.56341916  0.61102943
  H -0.97660668 -0.52026330 -2.40168815
  H -3.22330673  0.87062996 -1.73645522
  H  1.09391728 -1.41926535 -1.99213035
  H  3.39007144 -2.20712981 -1.66158822
  H  4.79504251 -1.23143137  0.11597287
  H  3.89009199  0.53804279  1.56695568
  H  1.56360987  1.33599546  1.23874081
