57
opt_min/./Product_2264_opt.xyz
  C -3.96871390  1.59726511  1.01021977
  O -2.71699998  1.32433685  0.42718465
  C -2.21990487 -0.01299793  0.52887360
  C -2.23746902 -0.53816857  1.98157532
  C -0.76586615  0.09596262  0.13178465
  C  0.09912225 -0.79578368 -0.35557355
  C -0.13072009 -2.15288640 -0.98125546
  C -0.61397329 -3.07347785  0.03318161
  N -1.01843166 -3.79688290  0.81936090
  C  1.11936072 -2.71694701 -1.47585482
  N  2.01300146 -3.19131339 -2.00810621
  C -1.07897644 -2.15139971 -2.23984041
  C -1.78337197 -0.83222918 -2.55164778
  C -3.11344448 -0.66961361 -1.81694278
  C -3.04989411 -0.98600155 -0.32560848
  C  1.50903288 -0.24748251 -0.31907087
  C  2.38299627 -1.11455516  0.60964431
  O  3.37970892 -0.41631188  1.12323720
  C  4.23529456 -1.09115779  2.03967002
  O  2.15746361 -2.27454869  0.83934323
  C  2.10622573 -0.22530491 -1.73680856
  O  1.46995662  0.06797245 -2.71559066
  O  3.39911700 -0.50711603 -1.72942172
  C  4.03704638 -0.57677612 -3.00069050
  N  1.35617145  1.07801000  0.25552199
  C  2.23569293  2.12655391 -0.19502004
  C -0.05210049  1.41923287  0.33026260
  C -0.30314745  2.13490400  1.66164123
  C -0.79968767  3.54702915  1.52386406
  O -0.06565537  1.61958019  2.72138025
  H -4.75923782  0.94144467  0.63613113
  H -4.20640276  2.62198021  0.72677859
  H -3.93351008  1.52870158  2.10191769
  H -3.23566543 -0.87027038  2.25590457
  H -1.91130119  0.23141959  2.67485196
  H -1.55762908 -1.38054698  2.07498044
  H -1.81571803 -2.94760319 -2.11425652
  H -0.46016765 -2.41116480 -3.10127657
  H -1.12126649  0.00322759 -2.33304680
  H -1.98116834 -0.80417657 -3.62474831
  H -3.84389686 -1.35010420 -2.26348372
  H -3.47697589  0.34927601 -1.95992837
  H -4.06808784 -0.98241939  0.06974157
  H -2.66428069 -1.99059894 -0.16668803
  H  4.28666364 -2.15297067  1.79394426
  H  5.21416713 -0.62470902  1.95447159
  H  3.84636374 -0.96978056  3.05189764
  H  5.05513882 -0.90227619 -2.80767966
  H  3.51654029 -1.29792947 -3.63262021
  H  4.02725853  0.40218978 -3.48371683
  H  2.20422755  2.93859378  0.53111277
  H  3.25185689  1.74278889 -0.23476726
  H  1.95691634  2.52297935 -1.18440593
  H -0.36454660  2.08093882 -0.49585466
  H -0.06325463  4.14201911  0.98869768
  H -1.71496900  3.54040796  0.93725310
  H -0.98331258  3.98121227  2.50243677
