43
opt_min/./Product_878_opt.xyz
  C  0.51087200  0.89969500 -1.57881100
  C -0.32990126  0.60026207 -0.34390206
  C -1.57716847 -0.30225093 -0.57883816
  C -1.98322320 -0.52506484 -2.04060849
  F -2.30875757  0.59048709 -2.70096628
  F -3.09051389 -1.30300088 -2.09593069
  F -1.07703567 -1.13079759 -2.82587988
  C -2.70674293  0.66948238 -0.04854420
  C -2.54941686  0.90543200  1.43649254
  C -1.50903431  1.71886981  1.55235437
  C -1.02652240  1.92705813  0.13299677
  O -2.24629503  1.89663456 -0.58543421
  C -1.33217955 -1.63660205  0.17612665
  C -0.92758485 -2.79960869 -0.74719356
  C -2.56049616 -2.10465072  0.97258195
  N -0.25295197 -1.33009356  1.11653964
  C  0.45818991 -0.09993611  0.80234800
  C  1.93491031 -0.27702334  0.53013493
  C  2.43789672 -1.34430185 -0.20412338
  C  3.79725564 -1.47160884 -0.42938716
  C  4.67776515 -0.53067908  0.07485830
  C  4.18946255  0.53723994  0.80665165
  C  2.83086385  0.66044901  1.03308578
  H -0.07228375  1.48025757 -2.29261811
  H  1.38535812  1.48009698 -1.28938653
  H  0.85427344 -0.01036681 -2.06365189
  H -3.70924935  0.42705422 -0.39560312
  H -3.20115710  0.51876673  2.19328231
  H -1.08259902  2.16131737  2.43131397
  H -0.46488017  2.83052581 -0.08181889
  H -1.74816061 -3.10569351 -1.39017148
  H -0.65712783 -3.64912642 -0.11999748
  H -0.07431892 -2.54625833 -1.37021869
  H -2.39384247 -3.11926288  1.32565621
  H -3.44827695 -2.09762536  0.34687012
  H -2.71490950 -1.47290273  1.83961558
  H  0.38399339 -2.11060645  1.21094354
  H  0.38010571  0.54206680  1.69250639
  H  1.76934371 -2.08842491 -0.61029224
  H  4.16858995 -2.30768550 -1.00247241
  H  5.73875059 -0.63064114 -0.10106361
  H  4.86932346  1.27592046  1.20542971
  H  2.45567517  1.49564804  1.60726926
