43
opt_min/./Product_5500_opt.xyz
  O  0.29095800  2.23364400 -3.15727700
  C -0.54748685  1.64202178 -3.66107608
  O -1.39110447  1.07871093 -4.19189224
  C  0.19027959 -0.74595103 -1.78599791
  C  1.51478863 -0.60516408 -1.71550109
  C  2.53390882 -3.90972444 -2.76012167
  O  2.55682604 -3.59580029 -3.85946145
  O  2.47592870 -4.21034102 -1.65780748
  N  1.91968010 -0.45032274 -0.40541593
  C  3.09929706  0.14887855  0.00682870
  N  3.07108333  0.51164448  1.31421514
  C  4.14344289  1.28809780  1.88527199
  O  4.04535423  0.25970709 -0.74288821
  N  0.83413425 -0.70325049  0.47991395
  C  1.01994342 -2.01785253  1.08402141
  C -0.36517607 -0.58603573 -0.38065836
  C -0.82922866  0.87581726 -0.26595155
  O -0.31108209  1.69794081  0.43888804
  O -1.86644199  1.11926776 -1.07122573
  C -2.39523376  2.43964971 -1.02347197
  C -1.49653055 -1.49294544  0.02657320
  C -1.82134931 -2.62940332 -0.69808030
  C -2.87000527 -3.43709169 -0.28998547
  C -3.59738900 -3.11866578  0.84215350
  C -3.27028194 -1.98907507  1.57618757
  C -2.22492844 -1.18091006  1.17122604
  H -0.43635230 -0.89154488 -2.63995143
  H  2.24238764 -0.58478240 -2.50398022
  H  2.15109587  0.59263807  1.72556002
  H  3.89776427  2.35153754  1.92946904
  H  5.01908175  1.15374366  1.25202245
  H  4.36015247  0.92851002  2.89211739
  H  0.99944105 -2.83197650  0.35070549
  H  1.98793071 -2.01826931  1.58219795
  H  0.23912286 -2.18106039  1.82257786
  H -3.10428096  2.51619529 -1.84413777
  H -2.89748681  2.60388723 -0.06829425
  H -1.59678093  3.17609595 -1.13597395
  H -1.25255661 -2.89385674 -1.57665875
  H -3.11819165 -4.31992575 -0.86061708
  H -4.41653221 -3.74747774  1.15732073
  H -3.83078301 -1.73896995  2.46457650
  H -1.95878153 -0.30275366  1.74182715
