48
opt_min/./Product_1706_opt.xyz
  C  2.62583800  2.18532100  1.95879500
  O  1.51839349  1.69897974  1.21109283
  C  1.76970611  1.22875783 -0.00062985
  O  2.84710163  1.26807988 -0.54202355
  C  0.53265977  0.59766343 -0.62143210
  C -0.77525228  1.36442315 -0.30294345
  C -1.30641366  1.64292800 -1.73548342
  C -0.40238734  2.76186666 -2.22196832
  C  0.76082489  2.18131556 -2.47375295
  C  0.54434010  0.70653027 -2.17180545
  O -0.82581251  0.53218254 -2.47848055
  C -1.54739946  0.43889698  0.67152700
  C -2.00099551  1.29857173  1.88116959
  C -1.45035615  0.88410141  3.20806299
  O -2.74312207  2.22955484  1.71335912
  C -2.85877581 -0.20164235  0.17477130
  C -3.24998878 -1.43989209  0.92830109
  O -3.54270901  0.29327693 -0.68134065
  O -0.61117392 -0.53064798  1.09157692
  C  0.32278493 -0.78787363  0.06544856
  C  1.62892256 -1.23307101  0.80024093
  N  2.59999094 -1.66511746 -0.02337606
  C  3.90242452 -2.04074409  0.47861610
  O  1.72957698 -1.18399525  2.00030059
  C -0.15868563 -2.06132512 -0.67717847
  C  0.08704654 -2.29182565 -2.14011382
  O -0.74792980 -2.87747093 -0.01680932
  H  2.20678474  2.72370530  2.80419496
  H  3.22733085  1.34333626  2.30608586
  H  3.24163141  2.84090019  1.34027591
  H -0.57663257  2.30349439  0.21590945
  H -2.37757219  1.76407865 -1.83685365
  H -0.68806095  3.79260080 -2.27521486
  H  1.69446476  2.59606778 -2.79523092
  H  1.18836187  0.02300914 -2.71306120
  H -0.51598714  0.34341302  3.09255884
  H -2.17491108  0.22206144  3.68242466
  H -1.33185423  1.76086745  3.83981770
  H -3.25819944 -2.28250031  0.23846175
  H -2.55644009 -1.66039497  1.73214064
  H -4.26367304 -1.30995713  1.30363290
  H  2.49858717 -1.58692044 -1.02064431
  H  4.59914083 -1.20121313  0.41200593
  H  3.78899466 -2.32835396  1.52244593
  H  4.28968613 -2.87862925 -0.09761039
  H  1.12770601 -2.17583646 -2.43080487
  H -0.24380643 -3.30024638 -2.37950032
  H -0.51401954 -1.57826040 -2.70276339
