53
opt_min/./Product_5637_opt.xyz
  C  5.75429604 -0.12528610 -1.53843887
  C  5.25507267 -1.50032739 -1.20244535
  C  6.19664155 -2.62173276 -1.51238634
  C  4.06578421 -1.73793040 -0.63806824
  C  3.11743392 -0.72222793 -0.25162957
  C  1.90042657 -1.01292313  0.20978375
  C  0.84800616 -0.01345620  0.60822878
  C  1.46475946  1.21127766  1.28374971
  C -0.12500177 -0.67784614  1.60165015
  C -1.35032557 -1.08799577  0.76545518
  C -1.28571937 -2.60982194  0.46208974
  N -1.84925936 -3.37883316  1.41161170
  C -1.87215003 -4.82137966  1.32359749
  O -0.72120124 -3.04191252 -0.51670425
  C -2.57777913 -0.76645033  1.46869012
  N -3.53916141 -0.51330939  2.03381058
  O -1.31268009 -0.34588770 -0.43054960
  C -0.08121824  0.34622172 -0.62176999
  C  0.49948778 -0.06366651 -1.99010490
  C -0.41075704 -0.88863555 -2.83831187
  O  1.59250477  0.29763471 -2.35047455
  C -0.38295871  1.84220577 -0.71806884
  C -1.60298018  2.32779508 -0.26328663
  C -1.89151432  3.67905509 -0.32806362
  C -0.96628258  4.56439714 -0.84966587
  C  0.24685491  4.08689082 -1.31528072
  C  0.53859708  2.73659907 -1.25236812
  H  6.55985959 -0.18183780 -2.26580462
  H  6.14060536  0.37177208 -0.64880442
  H  4.95653921  0.48418735 -1.95473437
  H  5.70975201 -3.58839092 -1.41250462
  H  7.04422788 -2.59142026 -0.82538134
  H  6.59225638 -2.52923786 -2.52228397
  H  3.76190243 -2.76040963 -0.45520280
  H  3.43491409  0.30268020 -0.34689398
  H  1.60179179 -2.05010348  0.27273856
  H  2.13091588  1.74428349  0.61431678
  H  0.69428527  1.90565090  1.61251402
  H  2.03723699  0.88185455  2.14825633
  H -0.42216647  0.02421736  2.38312698
  H  0.32846953 -1.54585613  2.08035823
  H -2.35416408 -2.95158363  2.17347861
  H -2.89733049 -5.18523010  1.24122374
  H -1.40272971 -5.26268386  2.20357441
  H -1.31575589 -5.10768696  0.43327253
  H -0.00227278 -0.97668856 -3.84045174
  H -0.48356201 -1.87578913 -2.37970632
  H -1.40824640 -0.45894779 -2.85672147
  H -2.33692449  1.64671865  0.13996324
  H -2.84532323  4.03491102  0.03275259
  H -1.18717889  5.61990450 -0.90015190
  H  0.97075941  4.77085840 -1.73173694
  H  1.47566231  2.37373519 -1.64411045
