47
opt_min/./Product_5122_opt.xyz
  C -3.60387609 -0.53117346  0.73329900
  C -2.94442201 -0.61386457 -0.61336771
  C -3.80980829 -1.14273946 -1.71517016
  C -1.67845911 -0.27727891 -0.83702978
  C -0.72465826  0.23403598  0.18454986
  C  0.60397614 -0.53712427  0.29581924
  C  0.41514105 -1.85750652  0.98630327
  C  0.02350815 -2.99912468  0.08673575
  C  0.53789803 -2.04435572  2.29217002
  C  1.51447094  0.50551628  0.96542388
  C  2.96078264  0.30705406  0.60019924
  C  3.41412169  0.64473380 -0.66871282
  C  4.73779109  0.44200872 -1.01531527
  C  5.61921008 -0.10860437 -0.09986762
  C  5.17221581 -0.44946146  1.16420137
  C  3.85014405 -0.23975182  1.51311294
  O  1.05038276  1.78101777  0.51933552
  C -0.19682661  1.66174411 -0.13320085
  C -1.19870716  2.68145965  0.42249455
  O -1.87693082  3.27181780 -0.55575225
  C -2.88086920  4.20853932 -0.18327673
  O -1.36996247  2.87364425  1.59425270
  C  0.00716284  1.85479327 -1.56114364
  N  0.25239552  1.97098802 -2.67093238
  H -3.20656267 -1.30185914  1.39350933
  H -3.43221536  0.43519908  1.20352167
  H -4.67638509 -0.68394329  0.64307036
  H -4.18882788 -2.13098439 -1.45333223
  H -4.66779402 -0.48989548 -1.86504397
  H -3.26079702 -1.21809792 -2.64840521
  H -1.27529121 -0.36015062 -1.83845951
  H -1.17950084  0.27370303  1.17994732
  H  0.98824559 -0.71912235 -0.71701298
  H  0.86267270 -3.68650599 -0.02135865
  H -0.80962724 -3.55514951  0.51287832
  H -0.26648924 -2.65007455 -0.89941354
  H  0.36839835 -3.01166307  2.73290882
  H  0.80437450 -1.25498391  2.96839751
  H  1.39836388  0.48267935  2.05591999
  H  2.73214598  1.08528071 -1.38226420
  H  5.07698384  0.71248772 -2.00396480
  H  6.65413968 -0.26533287 -0.36893203
  H  5.85542163 -0.87723589  1.88466824
  H  3.50527294 -0.50767357  2.50205297
  H -3.82364445  3.68444071 -0.01502584
  H -2.97966947  4.90237982 -1.01481811
  H -2.58662532  4.73237430  0.72860232
