65
opt_min/./Product_2962_opt.xyz
  C -1.20767600  2.61600400  2.55314700
  O -0.87539310  1.66911697  1.54141222
  C -1.43516575  1.82280706  0.35383695
  O -2.18956821  2.71940389  0.07212132
  C -0.86646987  0.83190689 -0.68481727
  O  0.19557421  1.56175286 -1.31343340
  C -0.01769064  2.90244465 -1.69062374
  C -0.22921717 -0.40485385 -0.06672132
  C -0.74149811 -1.52837685  0.46760157
  C -2.16042736 -1.99733818  0.81526910
  C -2.44671507 -1.62318536  2.28931046
  F -1.70611829 -2.33330688  3.15230721
  F -2.18583541 -0.34629944  2.57076967
  F -3.72361046 -1.81698017  2.63728757
  C -2.31435991 -3.54642279  0.76430247
  F -1.47153603 -4.26134096  1.51748306
  F -3.53122734 -3.92232755  1.19960794
  F -2.21948573 -4.01782454 -0.47706545
  C -3.33902895 -1.54520264 -0.08656205
  C -3.70998175 -0.06226973 -0.09056539
  C -3.36058559  0.60239888 -1.41639639
  C -1.88989356  0.43378368 -1.78076362
  C  0.38751870 -2.48668619  0.80868162
  C  0.55236258 -3.58172954 -0.26650188
  C  1.24411388 -4.83635758  0.18033921
  O  0.24283699 -3.37548176 -1.41483255
  N  1.58940716 -1.72395459  0.60975557
  C  2.73935940 -1.92535230  1.43646462
  C  1.30539105 -0.47742222 -0.08226067
  C  1.85579030 -0.63390093 -1.51070897
  C  1.90150682  0.69347298  0.68458250
  C  2.72967497  1.64256073  0.10210041
  C  3.27223490  2.66507775  0.86237972
  C  3.01281795  2.74362401  2.21861597
  C  2.19727119  1.79458573  2.81153331
  C  1.64197056  0.78364070  2.04924799
  H -0.28856107  2.82960934  3.09430082
  H -1.61114845  3.52223666  2.09858687
  H -1.94815702  2.17408720  3.21985291
  H  0.74936206  3.11378291 -2.43555072
  H  0.10836825  3.58844390 -0.84648597
  H -1.00374962  3.06497463 -2.13271615
  H -3.10826346 -1.86991672 -1.10190853
  H -4.21612345 -2.10922223  0.23697304
  H -4.78343833  0.03768935  0.08076613
  H -3.21508916  0.46558961  0.72032679
  H -3.61004335  1.66032751 -1.35121298
  H -3.96313117  0.15885809 -2.21152847
  H -1.67494099 -0.59751992 -2.06219391
  H -1.67865856  1.04739592 -2.65831176
  H  0.33887457 -2.89982520  1.82263420
  H  0.60746387 -5.37590729  0.87767767
  H  1.44897402 -5.46203423 -0.68482353
  H  2.17157157 -4.60133841  0.69526534
  H  3.23764080 -2.86873920  1.18771755
  H  3.45145970 -1.12304540  1.25920314
  H  2.49401640 -1.94244981  2.50738287
  H  2.93461615 -0.76090519 -1.45741737
  H  1.42155260 -1.52787668 -1.94783431
  H  1.61497242  0.21286047 -2.13893913
  H  2.94659297  1.59571918 -0.95153258
  H  3.90646120  3.40151000  0.39028651
  H  3.44447010  3.53703884  2.81142768
  H  1.99833590  1.83888461  3.87317107
  H  0.99397592  0.05790276  2.51654562
