60
opt_min/./Product_2345_opt.xyz
  C -3.29867300 -1.63238400  1.71472000
  C -3.09027690 -0.62539130  0.61770776
  O -3.75776738  0.37729930  0.53102267
  C -1.98615152 -0.93564860 -0.37759713
  C -0.84916811  0.15018559 -0.52526752
  C -0.92941164  1.39776897  0.33305812
  C -0.51859607  2.63082387 -0.17804565
  C -0.51051475  3.77212427  0.60325962
  C -0.91545722  3.71695274  1.92411667
  C -1.33015931  2.50717458  2.44776733
  C -1.33605853  1.36672951  1.66492608
  C -0.90553550  0.44357146 -2.04655487
  C -2.19218655  1.23280605 -2.35888174
  C -3.29745616  0.16530446 -2.27384808
  C -2.52996670 -1.08118893 -1.83804501
  C -1.24824220 -0.91448616 -2.65449661
  C  0.44623831 -0.68850564 -0.12312873
  C  0.70707849 -0.48953572  1.40992472
  N  1.71932699  0.31095559  1.75635802
  C  1.97460552  0.65828248  3.13286328
  O  0.01827843 -1.08635421  2.21492966
  C  1.67383412 -0.44328908 -0.95631793
  C  2.32668594 -1.52024171 -1.54490640
  C  3.46790017 -1.32684995 -2.30271801
  C  3.97746771 -0.05391788 -2.48449815
  C  3.33531573  1.02733575 -1.90582443
  C  2.19452800  0.83731143 -1.14667054
  N  0.06512472 -2.07354867 -0.15214233
  C -1.19618340 -2.19828114 -0.12612441
  C -1.77167074 -3.57213852 -0.04264599
  C -0.95877590 -4.49503584  0.80984335
  O -2.77827129 -3.89847484 -0.62766807
  H -2.35178598 -1.80864088  2.22560883
  H -3.64798626 -2.57112013  1.29166104
  H -4.03951777 -1.26150452  2.41904845
  H -0.21494654  2.71697679 -1.20961274
  H -0.18844715  4.70866210  0.17124308
  H -0.91408462  4.60836784  2.53410382
  H -1.65603836  2.44341611  3.47535391
  H -1.65398570  0.44196400  2.11500588
  H  0.00300652  0.90109571 -2.43381080
  H -2.13457699  1.67066534 -3.35623915
  H -2.37089514  2.03441076 -1.64701567
  H -4.08493636  0.45073655 -1.58221490
  H -3.75363813 -0.02286791 -3.24666626
  H -3.08336372 -2.00691552 -1.98000251
  H -0.49291404 -1.67804338 -2.48076400
  H -1.44732169 -0.85573790 -3.72280755
  H  2.25637800  0.76992913  1.03681006
  H  1.50210452 -0.09291172  3.76301702
  H  3.04768707  0.67277117  3.31726312
  H  1.54999251  1.63749997  3.37041009
  H  1.92827883 -2.51161515 -1.39724305
  H  3.96096087 -2.17499508 -2.75407778
  H  4.86714496  0.09759593 -3.07729691
  H  3.72082270  2.02685040 -2.04496880
  H  1.68748979  1.69266380 -0.72412109
  H  0.05549454 -4.50687631  0.41622833
  H -0.90130053 -4.09667037  1.82045537
  H -1.38522684 -5.49399242  0.81693850
