45
opt_min/./Product_1121_opt.xyz
  C -1.18963705  1.86193376  2.03927898
  C -1.50767789  1.67185479  0.57999161
  O -2.21691698  2.44673580 -0.01480691
  C -0.91372867  0.44216945 -0.11464173
  C -1.58566510  0.18380318 -1.49321954
  C -2.10110898 -1.25460878 -1.44288159
  C -3.35012869 -1.26038933 -0.56039621
  C -2.77019010 -0.93187768  0.83286247
  C -1.24285307 -0.88013363  0.61213634
  C -1.06847651 -1.90554728 -0.51086453
  C -0.47109343  0.42063417 -2.46107792
  C -0.40631882 -0.05840314 -3.79459683
  N -0.26560427 -0.60533777 -4.79035135
  N  0.64162256  0.76879058 -1.94258462
  C  0.59099669  0.77655606 -0.50500774
  C  0.99176857  2.19305634 -0.04267250
  O  0.58953668  3.08667082 -0.93177572
  C  0.87771099  4.45544698 -0.67245350
  O  1.57316778  2.44114892  0.97793321
  C  1.67279924 -0.15955156  0.00887642
  C  2.63567710 -0.65801783 -0.85966242
  C  3.64818690 -1.47569413 -0.39037514
  C  3.72928743 -1.78930485  0.95471237
  C  2.80234702 -1.25912099  1.83321915
  C  1.78517393 -0.44176541  1.36662421
  H -0.45757501  1.15820522  2.41392766
  H -2.11246718  1.76524755  2.60904743
  H -0.82444882  2.87426626  2.19765900
  H -2.36544623  0.93687464 -1.63397951
  H -2.21889091 -1.71846657 -2.41933884
  H -3.81599904 -2.24465729 -0.56905748
  H -4.08971622 -0.53106363 -0.88461608
  H -3.15841113  0.00953737  1.21798435
  H -3.01319223 -1.71104500  1.55238980
  H -0.68285842 -1.06788954  1.52054060
  H -1.35108789 -2.91300767 -0.21606420
  H -0.06025947 -1.92131433 -0.92180015
  H  1.72155054  4.76320417 -1.29129651
  H  1.12258952  4.59613665  0.38077973
  H -0.01008855  5.02220224 -0.94060672
  H  2.57958415 -0.41500458 -1.90841548
  H  4.38232618 -1.86069293 -1.08097593
  H  4.51984731 -2.42861882  1.31869103
  H  2.87301145 -1.47016349  2.88839863
  H  1.11531758  0.00766094  2.07708567
