41
opt_min/./Product_4655_opt.xyz
  C -1.22156200 -1.71827800  1.05872400
  C -0.46949114 -2.96021729  0.70705176
  C  0.81686927 -2.88998019  0.36215398
  N  1.52456774 -1.71872431  0.22319372
  C  2.84337280 -1.79025702 -0.36533872
  C  0.82354979 -0.48894443 -0.01868241
  C -0.70403691 -0.50363851  0.28359196
  C -1.38837740 -0.37491899 -1.08119116
  N -1.52497155 -1.54061255 -1.74708834
  O -1.68164847  0.69921772 -1.56816618
  C -0.93364514  0.80385827  1.08673155
  C -2.33211610  1.36958199  0.84309669
  N -2.38694471  2.70284042  0.69555119
  C -3.61772509  3.38428582  0.37640222
  O -3.30924486  0.64791265  0.88600466
  N  0.18307150  1.67561863  0.77439786
  C  1.30963012  0.76297973  0.80062827
  C  2.57247262  1.40433210  0.26653997
  O  3.68861103  1.08829597  0.59067895
  O  2.30127110  2.35468361 -0.62839994
  C  3.40027587  3.04804025 -1.20722718
  H -2.29465001 -1.81864255  0.87839914
  H -1.11361204 -1.52599470  2.13287583
  H -0.94807840 -3.91255299  0.86050745
  H  1.39291003 -3.78718560  0.18364636
  H  3.20882216 -2.81368489 -0.32213028
  H  2.82874656 -1.46848834 -1.41577405
  H  3.53534323 -1.15027336  0.18110151
  H  0.95365509 -0.21013780 -1.08414374
  H -2.09516070 -1.54591703 -2.57754213
  H -1.30857032 -2.41140177 -1.28138847
  H -0.87902402  0.58571698  2.16289204
  H -1.52518828  3.22269398  0.65023862
  H -3.73363360  3.49447421 -0.70512650
  H -4.44239003  2.78142281  0.75447910
  H -3.62999065  4.36646988  0.84694630
  H  0.06173401  2.02502255 -0.17518914
  H  1.49346956  0.43903075  1.83207607
  H  4.30626664  2.44372546 -1.13362290
  H  3.54733925  3.99171642 -0.67891631
  H  3.14702102  3.23965555 -2.24837590
