33
opt_min/./Product_551_opt.xyz
  C -3.94495300  0.34180500 -1.25905800
  C -2.88841037  0.43353093 -0.23106527
  C -2.26227732  1.47287367  0.31909662
 Br -2.39692293  3.29341396 -0.09453846
  C -1.22983964  0.91767058  1.27563912
  C -0.08777881  0.36813212  0.38101312
  C -0.79885264 -0.82873136 -0.28249068
  C -2.19688023 -0.75722741  0.41945495
  O -1.86598301 -0.27127327  1.70696512
  N -0.08755487 -2.02808248  0.12186737
  N  0.84392854 -1.71270710  1.15729006
  C  1.08166100 -0.26538469  1.16519339
  C  2.39674844  0.08639927  0.50898140
  C  2.87062270 -0.61545913 -0.59058301
  C  4.05993541 -0.25180240 -1.19642196
  C  4.78943585  0.82211678 -0.71601153
  C  4.32259678  1.52681011  0.37987927
  C  3.13535249  1.16039915  0.98823393
  H -4.14582718  1.32118240 -1.69292330
  H -4.86806437 -0.03834763 -0.81802171
  H -3.64151795 -0.34348276 -2.05116946
  H -0.93177595  1.53702812  2.11601539
  H  0.26960579  1.13083503 -0.31508310
  H -0.87848845 -0.75697770 -1.36699784
  H -2.73830983 -1.69565180  0.47372834
  H  0.41119246 -2.46930117 -0.64729865
  H  0.38750435 -1.98813643  2.02789497
  H  1.08852205  0.10817827  2.19281346
  H  2.31650624 -1.46096096 -0.96553806
  H  4.42078206 -0.80824173 -2.04975140
  H  5.71721665  1.10801745 -1.18843280
  H  4.88640618  2.36412103  0.76447926
  H  2.77463713  1.71316601  1.84433328
