38
opt_min/./Product_4408_opt.xyz
  C  0.02210100  0.54846900 -1.58912800
  O  0.22184303  0.99134073 -2.69441783
  C -1.19006139  0.93758098 -0.81080632
  O -1.73334211  2.01982180 -1.35997977
  C -2.83985118  2.69459968 -0.80282483
  C -1.60618140  0.23195789  0.28747297
  O -2.68409334  0.70348514  1.00427952
  C -3.53153892 -0.22040400  1.65760775
  C -0.86895964 -0.92238612  0.78151124
  O -1.02321039 -1.36717594  1.90526048
  C  0.10317028 -1.62147642 -0.18648980
  C -0.70257906 -2.64344652 -0.98014453
  C  0.87654901 -0.59063435 -1.02884152
  C  1.66590570 -1.20662866 -2.18745776
  N  1.81545212 -0.11949887 -0.00449040
  C  1.79954803  1.15666472  0.42708548
  C  2.65511139  1.43209143  1.62984761
  O  1.14469394  1.99345586 -0.17264873
  N  2.26296876 -1.20029746  0.77589932
  C  1.23380654 -2.24352950  0.66239011
  H -2.94802784  3.60046756 -1.40005329
  H -2.67296815  2.95663397  0.24080944
  H -3.74911313  2.09326953 -0.88616876
  H -4.42741299  0.34902676  1.90506756
  H -3.79589199 -1.05478314  1.00036455
  H -3.08215980 -0.61400250  2.57063759
  H -0.05259060 -3.25560879 -1.60171762
  H -1.42375146 -2.13652852 -1.61940100
  H -1.24025680 -3.29707171 -0.29396885
  H  2.26574602 -2.05267826 -1.86085898
  H  0.98331024 -1.52860718 -2.96758833
  H  2.31811705 -0.44278900 -2.60436954
  H  3.70491468  1.31831105  1.36874457
  H  2.47179742  2.44564990  1.97305265
  H  2.41875919  0.70956114  2.40855866
  H  3.15911106 -1.52739341  0.41305997
  H  1.62109654 -3.15623868  0.20357758
  H  0.85956502 -2.48119071  1.66148177
