25
opt_min/./Product_132_opt.xyz
  N -2.19655498  3.52595602  0.40744197
  C -1.92668125  2.43618356  0.20015823
  C -1.56972159  1.06586689 -0.06032979
  C -0.16366455  0.61177378  0.45975767
  C  0.62153999  1.61236396  1.13183053
  N  1.23747654  2.40550301  1.67610606
  C -0.59388802 -0.55161827  1.44642755
  C -1.06897889 -1.67331607  0.54723071
  C -2.26108905 -1.28716241  0.10824971
  C -2.49857561  0.06451982  0.74589539
  O -1.79610003 -0.03039431  1.96159324
  N  0.43109513  0.17879099 -0.80296920
  C  1.71402901 -0.34099842 -0.95675314
  O  2.28846555 -0.41701067  0.24850544
  C  3.63603016 -0.88336954  0.27727779
  O  2.18823122 -0.66083582 -2.00175993
  N -0.43834384  0.31035184 -1.81604661
  N -1.50969700  0.79265237 -1.48901963
  H  0.12644707 -0.77817687  2.22581032
  H -0.49987479 -2.54809145  0.30527442
  H -2.92172442 -1.75401892 -0.59331868
  H -3.52001717  0.40255729  0.88473585
  H  3.64605369 -1.96917891  0.38632190
  H  4.15031241 -0.60668342 -0.64361155
  H  4.10235010 -0.41122016  1.13891278
