41
opt_min/./Product_4540_opt.xyz
  C -0.36404000  2.83916600 -1.52887100
  C -0.17078964  2.62563468 -0.05930901
  C -0.35042646  3.85183231  0.78562379
  C  0.07003171  1.44795061  0.50743576
  C  0.23851863  0.13745261 -0.18307144
  C  1.47355228 -0.63903874  0.34392419
  C  2.58691291 -0.71146708 -0.67119231
  C  3.70171837  0.26627760 -0.47702108
  C  2.56130454 -1.60590702 -1.64748075
  C  0.87391329 -1.98127673  0.68386402
  C  1.69400327 -3.03934013  1.13494007
  N  2.40285305 -3.86000544  1.50435883
  N -0.38228886 -2.09369634  0.54708928
  C -0.94266868 -0.87477819  0.02528442
  C -2.05842949 -0.36092823  0.92180795
  O -2.41982493 -1.27035753  1.82070481
  C -3.47186621 -0.91825329  2.70947659
  O -2.55933209  0.72787364  0.81546908
  C -1.53776575 -1.32846914 -1.33985786
  C -2.93485499 -1.85397285 -1.27156847
  O -0.86509525 -1.30577963 -2.33139132
  H  0.13406850  2.08296304 -2.12896518
  H  0.01014558  3.81741712 -1.82336666
  H -1.42851064  2.80246876 -1.76047502
  H -1.41461315  4.05856282  0.89396054
  H  0.07155675  3.71625575  1.77780891
  H  0.11338105  4.71889833  0.31999134
  H  0.16151277  1.40341484  1.58701571
  H  0.34592521  0.27527416 -1.26135055
  H  1.84380461 -0.18058443  1.26900015
  H  4.08422481  0.21308148  0.54151263
  H  3.34676210  1.28381716 -0.64680488
  H  4.52028970  0.06003153 -1.16139582
  H  3.25297970 -1.62377765 -2.47225267
  H  1.73961466 -2.29802377 -1.74710542
  H -4.43250924 -1.19403955  2.26951441
  H -3.46180630  0.15582596  2.90119809
  H -3.30644375 -1.47829962  3.62645330
  H -3.23454218 -2.24156975 -2.24205263
  H -3.61031740 -1.05383412 -0.97399010
  H -2.98029464 -2.64118463 -0.52039632
