40
opt_min/./Product_3973_opt.xyz
  C -0.52427955  1.86832649  0.56042864
  C -0.79384664  0.36715948  0.54280791
  C -0.54249290 -0.19171279  1.94328352
  C  0.05499362 -0.37262841 -0.52823097
  C  1.49709299 -0.57086193 -0.18540720
  C  2.40934213  0.39773320 -0.22521244
  C  3.81875053  0.29239980  0.12057058
  C  4.45068640 -1.04331559  0.39798369
  C  4.55206518  1.40355513  0.20362364
  C -0.72505662 -1.69419468 -0.70816047
  C -0.30157627 -2.73924757  0.20449238
  N  0.01071490 -3.57663840  0.92036256
  N -2.11934647 -1.31099235 -0.54180172
  C -3.07443054 -2.31843257 -0.15668468
  C -2.22221819 -0.00269101  0.07571221
  C -2.72543461  0.98764392 -0.98265097
  C -3.76316017  1.98117078 -0.51822188
  O -2.31973809  0.96637916 -2.11636243
  H -0.56474304  2.29453652 -0.43998188
  H -1.25542535  2.37797719  1.18621186
  H  0.46303631  2.05618941  0.97516289
  H -0.91913644 -1.20669289  2.05316717
  H  0.52743023 -0.20978672  2.14393215
  H -1.02202492  0.43813975  2.68914303
  H -0.04344559  0.18303234 -1.46802718
  H  1.76741561 -1.57316127  0.11467993
  H  2.10554629  1.38685444 -0.54717808
  H  3.76258495 -1.86411601  0.22423546
  H  5.32710905 -1.18095562 -0.23482394
  H  4.77178598 -1.08982366  1.43775439
  H  4.13454349  2.38069100  0.01716102
  H  5.59746165  1.37060358  0.45630950
  H -0.58184528 -2.08584492 -1.72834980
  H -3.97487741 -2.22589995 -0.77294931
  H -3.36792847 -2.23469138  0.89918921
  H -2.65189079 -3.31121171 -0.31134671
  H -2.92271110 -0.01861895  0.92073470
  H -4.21875341  1.69008717  0.42203723
  H -3.28319730  2.95286339 -0.39402325
  H -4.52509493  2.08583127 -1.28938611
