55
opt_min/./Product_2489_opt.xyz
  N  3.90523403 -0.23355295  1.16907690
  C  2.93193605 -0.29391258  0.56852923
  C  1.70610826 -0.30350750 -0.20861906
  C  0.57757998 -1.10473611  0.50865066
 Cl  0.90705955 -1.16627345  2.25416531
  C  0.70865035 -2.48498837 -0.18812469
  C  2.10835327 -3.02409641  0.04910752
  C  2.90244078 -2.31335665 -0.74359405
  C  1.97138716 -1.30582494 -1.41375608
  O  0.79344555 -2.06404450 -1.53493062
  C -0.75761139 -0.35604005  0.15805012
  C -1.64837017 -0.32904816  1.39969408
  C -1.96278871 -1.52207063  2.04824867
  C -2.78917557 -1.53981626  3.15589310
  C -3.31950997 -0.36051855  3.64990893
  C -2.99502032  0.83083961  3.02900867
  C -2.16834899  0.84698778  1.91742404
  C -1.53208962 -0.96491596 -1.02910632
  C -1.23421816 -0.56178529 -2.32995016
  C -1.94560603 -1.03171287 -3.41556848
  C -2.98279840 -1.93056586 -3.23577805
  C -3.28175584 -2.35322178 -1.95512968
  C -2.56743475 -1.87469642 -0.86877913
  N -0.30028251  0.97276291 -0.22647470
  C -1.20271738  1.92453726 -0.83056061
  C  1.13127042  1.12842787 -0.31365590
  C  1.52810192  1.95566522  1.00177829
  C  2.86981706  2.62520768  1.08625182
  O  0.68742184  2.10369922  1.83989284
  C  1.65571375  2.02478988 -1.44352971
  C  2.91905929  1.60383421 -2.16117844
  O  1.14510065  3.08692148 -1.69047467
  H -0.11045753 -3.17874938 -0.02856360
  H  2.35860488 -3.78500909  0.75915563
  H  3.95836093 -2.38423233 -0.90969754
  H  2.23509462 -0.89253245 -2.37868549
  H -1.53375552 -2.45814383  1.71909788
  H -3.00730876 -2.48038663  3.64076563
  H -3.96114117 -0.37158447  4.51835848
  H -3.38054599  1.76425555  3.41157634
  H -1.90892916  1.79698124  1.49022346
  H -0.40721592  0.10396882 -2.51861322
  H -1.68221714 -0.69480494 -4.40746236
  H -3.54550411 -2.29836226 -4.08067871
  H -4.08227733 -3.05951956 -1.78970316
  H -2.85937036 -2.21391453  0.11198493
  H -1.18144711  2.86677766 -0.27311936
  H -2.21039926  1.51812460 -0.80953406
  H -0.95625417  2.15647266 -1.86923000
  H  3.39417700  2.23681631  1.95862796
  H  2.69682547  3.68725122  1.25773577
  H  3.49174948  2.49195227  0.21049751
  H  2.63748566  1.09927098 -3.08575791
  H  3.46452800  2.50251488 -2.44461787
  H  3.55575977  0.94626505 -1.57775010
