36
opt_min/./Product_3532_opt.xyz
  C -0.19553100 -1.39076500 -2.04189300
  C -0.35758084 -0.16076292 -1.15969924
  C -1.57813088 -0.17746002 -0.23603338
  C -2.87332316  0.16558837 -0.96039249
  C -1.20765120  0.83465721  0.86278440
  C -1.89938022  0.51896231  2.18590918
  N  0.25556002  0.86334249  0.90616611
  C  0.93289945  0.84013144  2.17724560
  C  0.84235153  0.15923084 -0.22509416
  C  1.81432233  1.04304247 -1.04783104
  C  2.23752886  2.33949752 -0.42497296
  O  2.20577336  0.67106554 -2.12330695
  C  1.67405643 -1.03154516  0.28511893
  C  0.95192938 -2.17407389  0.95019689
  O  2.87927232 -1.00322367  0.23701159
  H -0.32082751 -2.31047823 -1.47895742
  H -0.94359313 -1.38002777 -2.82993080
  H  0.78422882 -1.38080910 -2.50955922
  H -0.46019634  0.70499205 -1.82284719
  H -1.68718686 -1.17067066  0.21018642
  H -3.02346773 -0.51152392 -1.79564904
  H -3.72561318  0.07350497 -0.29379680
  H -2.84098354  1.18311114 -1.34321977
  H -1.54204380  1.83447615  0.53708399
  H -1.57107085 -0.43584661  2.58824100
  H -2.97106404  0.46030942  2.01812914
  H -1.71702457  1.29353752  2.92262419
  H  0.62994390  1.71065801  2.75732215
  H  2.00414517  0.91043877  2.00463152
  H  0.74430894 -0.05495382  2.78277868
  H  2.67073202  2.99103694 -1.17562885
  H  2.99627318  2.11765924  0.32277917
  H  1.39868327  2.80946784  0.07586066
  H  1.55277111 -2.53143743  1.78388153
  H -0.03847989 -1.89989743  1.29514150
  H  0.86964818 -2.99100146  0.23690854
