46
opt_min/./Product_4972_opt.xyz
  C -1.35164487 -2.57744836 -0.27538961
  C -1.04391662 -1.24947770  0.42681885
  C -1.79955659 -1.23705988  1.76073075
  C  0.47102703 -1.11643006  0.75688510
  C  1.14075857 -2.43973584  0.96342200
  O  1.33596248 -2.93040612  2.04258594
  C  1.00956768 -0.25139737 -0.39916173
  C  1.19734920 -1.06754092 -1.59081591
  N  1.45984182 -1.72748070 -2.48827296
  C  2.40227200  0.32778955 -0.21748801
  C  2.89601055  1.15814543 -1.22111644
  C  4.16855976  1.68766947 -1.12556385
  C  4.96656904  1.38317039 -0.03496062
  C  4.48650268  0.54338001  0.95403862
  C  3.21050838  0.01158933  0.86404867
  N -0.04646137  0.75710492 -0.58964087
  C  0.14725106  1.94696240  0.21434586
  C -1.32214640  0.02026786 -0.48450752
  C -2.53408258  0.80171677  0.08032775
  N -3.69780452  0.12462682 -0.05745435
  C -4.95546240  0.67446743  0.38819437
  O -2.51264874  1.88895843  0.61321257
  C -1.69186456 -0.28326955 -1.95425932
  H -1.07930021 -3.40376891  0.37991937
  H -2.41706113 -2.66669765 -0.47844191
  H -0.81109856 -2.69005575 -1.21004258
  H -1.78072771 -0.25102864  2.22110768
  H -2.83654914 -1.54054817  1.64422821
  H -1.32282828 -1.94044596  2.44263526
  H  0.56150271 -0.53466128  1.68060703
  H  1.45243849 -2.95295781  0.03409166
  H  2.26861905  1.38674688 -2.07012181
  H  4.54135849  2.33282765 -1.90692712
  H  5.96206959  1.79425331  0.04014952
  H  5.10604268  0.29412087  1.80226697
  H  2.86169298 -0.65021696  1.64119702
  H  1.14272413  2.34265233  0.02475722
  H -0.57871077  2.68995760 -0.09997004
  H  0.03382887  1.78343706  1.29117868
  H -3.72282320 -0.76539886 -0.52230543
  H -5.58484164 -0.11972484  0.78520367
  H -5.47956170  1.17649125 -0.42970742
  H -4.74979909  1.40783020  1.16671327
  H -0.82092297 -0.63127347 -2.49974662
  H -2.01086913  0.65165533 -2.41207792
  H -2.48438987 -1.01487288 -2.07477319
