33
opt_min/./Product_4162_opt.xyz
  C -2.11231500 -1.39151000  0.92424700
  O -3.05669140 -1.13273042  1.63171355
  C -1.50076218 -2.72882851  0.90251686
  C -0.39162763 -3.03633159  0.22259702
  C  0.25806722 -2.10695202 -0.71532547
  O  1.08517959 -2.46902989 -1.51823725
  C -0.11006930 -0.64719827 -0.55268182
  C -1.48465589 -0.31584089  0.03177484
  N -1.17338021  0.87926994  0.80112580
  C -1.83938332  2.06288247  0.91888933
  C -3.26037541  2.04891822  0.40515439
  O -1.31717064  3.02950531  1.42114957
  N  0.12704901  0.74236963  1.32287871
  N  0.82337481 -0.20574167  0.49802431
  C  2.05616999  0.33330707 -0.00305698
  C  3.22468878 -0.31690486  0.36004729
  C  4.44186876  0.14111398 -0.11319678
  C  4.49248723  1.24920181 -0.94054542
  C  3.32433448  1.90819985 -1.28832441
  C  2.10588879  1.45137554 -0.82371964
  H -1.98880975 -3.45003188  1.54613270
  H  0.03883729 -4.02791823  0.27074144
  H  0.04772699 -0.10796172 -1.49951985
  H -2.20345586 -0.09885378 -0.76515666
  H -3.83628862  2.75925569  0.99280018
  H -3.27524866  2.38626448 -0.63057136
  H -3.71322828  1.06550985  0.48492746
  H  0.08881175  0.35437421  2.27195922
  H  3.17090259 -1.18061329  1.00534773
  H  5.35119719 -0.36977587  0.16579645
  H  5.44193363  1.60521060 -1.31277426
  H  3.36246671  2.78075261 -1.92324491
  H  1.19428171  1.97734019 -1.07124944
