50
opt_min/./Product_5826_opt.xyz
  C -1.98778086  0.27913463 -0.89173907
  O -2.83515786  0.63063739 -1.69053647
  C -2.34604337 -0.24961635  0.42489923
  O -3.63970112 -0.11591805  0.85544587
  C -4.28372730  1.13610032  0.67523258
  C -1.45237711 -0.98570081  1.15620071
  O -1.63534507 -1.59531565  2.32695184
  C -2.90174703 -1.73521270  2.93965774
  C -0.03660941 -1.17714203  0.73081631
  O  0.74700566 -1.70034761  1.48203406
  C  0.34499302 -0.76957158 -0.68981776
  C  0.22684178 -2.06067963 -1.51528610
  C -0.50332579  0.40366241 -1.22666230
  C -0.34470898  0.61883458 -2.73700146
  C  0.17344342  1.59100138 -0.47515006
  C  0.03760246  2.96625618 -1.20015625
  C -1.35276515  3.52945544 -1.24705111
  O  1.00241814  3.50740157 -1.65076078
  C -0.35193384  1.80054541  0.86812200
  N -0.70980856  2.02382398  1.93151588
  O  1.54321197  1.25621748 -0.38023699
  C  1.77297294 -0.11674809 -0.68214012
  C  2.39912545 -0.20185647 -2.00065905
  N  2.94022194 -0.25898606 -3.00590393
  C  2.79167612 -0.71479265  0.27572921
  C  3.15349889 -0.03778309  1.43068937
  C  4.09924953 -0.57996819  2.28186085
  C  4.69205067 -1.79317913  1.97874968
  C  4.34167701 -2.46171959  0.82000678
  C  3.39886297 -1.92581044 -0.03689849
  H -3.68117651  1.94423640  1.09873550
  H -4.49736473  1.33966058 -0.37517506
  H -5.21886063  1.04982244  1.22536445
  H -2.78285838 -2.55268702  3.65037277
  H -3.67614258 -1.98023816  2.21458514
  H -3.17939897 -0.82496068  3.47401251
  H  0.45381403 -2.92188976 -0.89096211
  H -0.78813824 -2.16600162 -1.89230789
  H  0.91816784 -2.05961314 -2.35516726
  H -0.33636809 -0.32458898 -3.27383517
  H -1.18897975  1.19723716 -3.10431335
  H  0.57299335  1.15185373 -2.97259783
  H -1.31376662  4.57267641 -0.93799609
  H -2.05164910  2.98527957 -0.62119379
  H -1.70352061  3.51052653 -2.27665191
  H  2.69182033  0.90920394  1.66486082
  H  4.36875416 -0.05173781  3.18312248
  H  5.42890256 -2.21663531  2.64505660
  H  4.80530725 -3.40574036  0.57573721
  H  3.13491731 -2.45023170 -0.94313352
