60
opt_min/./Product_2198_opt.xyz
  C -3.94001300 -0.99515000 -1.07316700
  O -2.55333710 -0.73068944 -1.17553575
  C -1.80741749 -0.86136615  0.00536802
  O -1.95441291 -2.21761268  0.44610372
  C -1.48147256 -2.53858171  1.73938486
  C -0.35687130 -0.68926676 -0.41991751
  C  0.62598533  0.21558842 -0.29377705
  C  0.60641202  1.70666976  0.02560022
  C  1.99145769  2.32340098  0.27805131
  C  2.07761314  3.81867818  0.05173020
  O  2.94991876  1.71879750  0.68340304
  C  0.01845091  2.42350316 -1.21043287
  C  0.80699242  2.26483908 -2.48445844
  O -0.98689630  3.08204694 -1.20192070
  C -0.06094476  2.07417991  1.38753891
  C -1.54415150  2.45172063  1.42859720
  C -2.47487880  1.50130536  0.68969541
  C -2.26698297  0.06211120  1.14162397
  C  1.95429497 -0.54615774 -0.44887284
  C  2.44543594 -0.72863591  1.01748726
  N  3.69416943 -1.19272241  1.14582538
  C  4.22600815 -1.54770757  2.44169055
  O  1.68487867 -0.57754366  1.95655791
  C  3.02682857 -0.10046902 -1.44835186
  O  1.58992246 -1.87200384 -0.85104317
  C  0.21853800 -1.91275331 -1.12538806
  C -0.33001697 -3.30843290 -0.80287306
  C -1.39178973 -3.81657991 -1.75304646
  O  0.19123799 -4.01530102  0.02183976
  H -4.31430736 -0.96248802 -2.09400967
  H -4.11834139 -1.98278436 -0.64366876
  H -4.44773043 -0.23337272 -0.47563744
  H -0.48366891 -2.13036886  1.91916849
  H -1.41966486 -3.62540526  1.75784049
  H -2.17107627 -2.20201942  2.51715055
  H  2.85278227  4.01231896 -0.68797349
  H  2.40560192  4.29729172  0.97341040
  H  1.14293780  4.25964309 -0.27454622
  H  0.46674640  1.35387249 -2.97628779
  H  0.58344786  3.09957407 -3.14458321
  H  1.87383573  2.20266942 -2.30841873
  H  0.15827953  1.23493447  2.05015228
  H  0.47083103  2.93326136  1.80663207
  H -1.82282981  2.47687396  2.48600953
  H -1.68906403  3.45335486  1.02543363
  H -2.28238918  1.56454021 -0.38031895
  H -3.50609560  1.82017719  0.84962039
  H -1.49914413  0.02169713  1.90926129
  H -3.18182604 -0.35684604  1.56258789
  H  4.24158776 -1.38758716  0.32691488
  H  3.70580284 -2.41967927  2.84583146
  H  5.28626791 -1.76449873  2.35014228
  H  4.07724605 -0.71550724  3.12988393
  H  2.56748613  0.27186588 -2.35763748
  H  3.59953246 -0.98366957 -1.72057845
  H  3.69484964  0.64812006 -1.03696125
  H  0.04706277 -1.74913701 -2.20839247
  H -0.95836732 -4.61935663 -2.34757614
  H -2.21260911 -4.23599504 -1.17752728
  H -1.76837737 -3.03220563 -2.40013646
