34
opt_min/./Product_373_opt.xyz
  F -2.25804900  0.31130623  0.92029123
  C -1.04141984  0.75932168  0.47992414
  C -0.54678214  0.02237810 -0.78567257
  C -0.37015165  1.24065691 -1.75199689
  C -1.78783517  1.63222520 -2.11547145
  C -2.26437085  2.24051161 -1.03930520
  C -1.12419580  2.23305656 -0.04313448
  O  0.01919456  2.27757515 -0.87192696
  C  0.77126798 -0.63041969 -0.35065061
  C  0.56044462 -2.10823576  0.15179228
  N -0.06605586 -2.93030891 -0.70171296
  C -0.33855603 -4.31180254 -0.36952055
  O  0.97971955 -2.43418849  1.23926188
  C  1.75470500 -0.73739257 -1.40361677
  N  2.52177620 -0.90318891 -2.23549594
  N  1.22340226  0.20417923  0.74515325
  C  0.05531132  0.53227314  1.53833065
  C  0.27498038  1.75536328  2.43227308
  C  1.47475541  2.58760273  2.10173520
  O -0.48810215  1.99976576  3.33071880
  H -1.27473252 -0.68748343 -1.17299855
  H  0.35401425  1.10674576 -2.55020228
  H -2.26148422  1.37370701 -3.04094215
  H -3.23941440  2.62936637 -0.82722917
  H -1.11541323  2.99711492  0.72621370
  H -0.30999791 -2.61898269 -1.62870640
  H -1.38712417 -4.44023926 -0.09174237
  H -0.10406284 -4.94944595 -1.21966862
  H  0.28610128 -4.58383041  0.48035410
  H  1.94965851 -0.25499088  1.28628874
  H -0.28298934 -0.29192133  2.18767490
  H  1.64572587  2.59137869  1.02859810
  H  2.34325075  2.13849887  2.58299213
  H  1.35254800  3.59520528  2.49060022
