44
opt_min/./Product_4699_opt.xyz
  C -5.96880800 -1.83968400 -0.19426000
  C -4.95648438 -0.73720450 -0.24585653
  C -5.32812034  0.45756110 -1.07623433
  C -3.78247945 -0.85413763  0.38565573
  C -2.72883020  0.12978884  0.39406000
  C -1.57613631 -0.06274680  1.03569526
  C -0.42461689  0.89808138  1.03299851
  C -0.84036819  2.37479461  1.10333602
  C  0.54808083  0.56495710 -0.13520387
  C  1.89874500  0.35365444  0.58446468
  C  2.87606007  1.52805115  0.47893878
  O  2.24510593  2.65621002  0.13168240
  C  3.04419542  3.83444636  0.08350436
  O  4.04974751  1.46299713  0.71558432
  C  2.56459825 -0.94683468  0.21010273
  C  3.38052551 -1.02541420 -0.90835271
  C  3.94382607 -2.23726517 -1.26880385
  C  3.69114056 -3.37183992 -0.51995096
  C  2.87201512 -3.30010052  0.59341674
  C  2.30695373 -2.08983507  0.95695582
  N  1.54067647  0.36547950  2.01582527
  N  0.38445831  0.64235875  2.22528311
  H -5.95951333 -2.39864913 -1.13516332
  H -6.97319213 -1.43610231 -0.07073837
  H -5.76267534 -2.53283380  0.61911910
  H -5.32017559  1.36794647 -0.47725798
  H -6.31842993  0.33684298 -1.50766144
  H -4.62108554  0.58949096 -1.89616634
  H -3.58642205 -1.75105092  0.96067722
  H -2.89997648  1.04417024 -0.15495490
  H -1.39580199 -0.99121894  1.56124725
  H -0.19942035  2.90128498  1.80968263
  H -0.74273729  2.86207046  0.13655248
  H -1.86507478  2.46226454  1.45457172
  H  0.59038992  1.34952903 -0.88332117
  H  0.24563213 -0.36942743 -0.61334811
  H  2.48821379  4.54799367 -0.52177902
  H  4.01511456  3.61362240 -0.36376083
  H  3.19263294  4.22348558  1.09247676
  H  3.58006048 -0.14507336 -1.50057927
  H  4.58328976 -2.28910258 -2.13729137
  H  4.13514301 -4.31522283 -0.80413406
  H  2.67228047 -4.18397315  1.18048399
  H  1.67816818 -2.02797493  1.83342290
