43
opt_min/./Product_1311_opt.xyz
  C  4.09563205  1.28148188  3.41804527
  N  3.57888477  0.87706682  2.13174422
  C  3.15363270 -0.38948037  1.90622674
  O  3.14469363 -1.25237947  2.75725664
  C  2.67294886 -0.62979450  0.52360408
  C  2.61119441 -1.77766396 -0.15716962
  F  3.02353450 -2.99129238  0.15899338
  C  1.90281397 -1.48577502 -1.46412564
  C  0.40123006 -1.32572824 -1.09311030
  C  0.43639610 -0.04123199 -0.24039340
  C  1.94372890  0.34298683 -0.39807386
  O  2.27759389 -0.13903304 -1.69013642
  C -0.57147781  0.91888040 -0.92395794
  C -0.26762220  2.40816365 -0.70640288
  C -2.01698384  0.64355973 -0.51432523
  C -2.40537778 -0.06443476  0.61240447
  C -3.74904760 -0.26369047  0.88853740
  C -4.71896650  0.24345558  0.04495506
  C -4.34081349  0.96316436 -1.07523614
  C -3.00338829  1.16549357 -1.34982932
  N -0.49443814  0.55854803 -2.34292573
  C -0.43810892 -0.89847121 -2.35086282
  C -1.77233725 -1.48967963 -2.26525150
  N -2.77609689 -2.03458436 -2.23295876
  C  0.13295124 -1.37208645 -3.60167321
  N  0.59507235 -1.69272304 -4.59449199
  H  4.30123689  0.37864183  3.99182313
  H  5.01099459  1.85856380  3.29615086
  H  3.35983543  1.88168458  3.95891181
  H  3.65997059  1.52572503  1.36688145
  H  2.13618743 -2.12595344 -2.30972413
  H -0.01610995 -2.20238009 -0.60143683
  H  0.21078049 -0.19405159  0.81183239
  H  2.19054666  1.39540753 -0.31174127
  H -1.18334958  2.95151669 -0.48877149
  H  0.40823990  2.55076894  0.13251431
  H  0.17879579  2.84365943 -1.59744949
  H -1.68176930 -0.47899317  1.29630461
  H -4.03132698 -0.82403566  1.76698622
  H -5.76396202  0.07794751  0.25931312
  H -5.08975873  1.36518424 -1.74118181
  H -2.70640337  1.71461549 -2.23009128
  H  0.35550872  0.92704657 -2.76420253
