41
opt_min/./Product_671_opt.xyz
  C -5.28107900  1.82177900  0.36871200
  N -4.00546537  1.20318293  0.63741206
  C -3.74763885 -0.08734479  0.31413192
  O -4.58345109 -0.81210820 -0.19295480
  C -2.37551571 -0.52504782  0.64156313
  C -1.62752294 -1.50243801  0.09742162
  C -1.85859735 -2.44692500 -1.02142513
  C -3.01431674 -3.37999364 -0.83334653
  O -1.09364310 -2.48449762 -1.95489471
  C -0.27050969 -1.37816784  0.77859400
  C  0.40782364 -0.13759699  0.13604954
  C -0.45462790  0.98603337  0.74443300
  C -1.43899396  0.15815743  1.63089307
  O -0.63060188 -0.91105627  2.06690671
  C  0.54656610  1.73770830  1.56893605
  N  1.73192116  1.31944002  1.52992668
  C  1.84427096  0.17945662  0.63965112
  C  2.55090640 -0.96335963  1.37267455
  C  2.74570141  0.59438831 -0.54391542
  O  2.52247391  0.27170816 -1.68929699
  N  3.80572011  1.32179475 -0.14995681
  C  4.77084636  1.84467961 -1.08657757
  H -5.73870805  2.17598280  1.29499876
  H -5.91857680  1.06464213 -0.08456582
  H -5.17109394  2.66012854 -0.32164981
  H -3.27477068  1.78438393  1.01428565
  H -2.88102170 -3.93830506  0.09159235
  H -3.08562483 -4.06356609 -1.67468324
  H -3.92488777 -2.78947266 -0.74290456
  H  0.32469124 -2.28297009  0.82134840
  H  0.40088663 -0.20292983 -0.95080656
  H -0.97327973  1.63299415  0.03397944
  H -1.88283709  0.67663641  2.47788880
  H  0.27923546  2.58707418  2.17864445
  H  1.95382899 -1.27866024  2.22462694
  H  3.51551636 -0.61587488  1.73630205
  H  2.70555584 -1.80221680  0.69943609
  H  3.81693201  1.63544713  0.80837395
  H  5.70311701  2.05429780 -0.56756242
  H  4.94215122  1.09897806 -1.86154419
  H  4.40703148  2.75895011 -1.56468658
