54
opt_min/./Product_5863_opt.xyz
  C  1.74850700  0.88056600 -0.74087400
  O  1.75875231  1.45884464 -1.79949583
  C  2.70614681 -0.19122041 -0.40703632
  O  3.86285420 -0.02944019 -1.07044647
  C  4.76104849 -1.09807344 -1.28704753
  C  2.32386885 -1.21004742  0.42027739
  O  3.21161479 -2.20468755  0.70196446
  C  2.75860064 -3.54962209  0.74967083
  C  0.99491969 -1.24510977  1.05523740
  O  0.71811878 -2.11185278  1.86447174
  C  0.01685764 -0.10036942  0.80868838
  C -0.77321838  0.12124672  2.10515834
  C  0.72170668  1.19685354  0.35294512
  C  1.44725180  1.93838971  1.47230398
  N -0.37072102  1.93701367 -0.24157438
  C -0.49154304  3.23701348 -0.59996771
  O  0.55774909  3.98350221 -0.20140036
  C  0.51038830  5.35800314 -0.55428564
  O -1.48349032  3.66384598 -1.14390021
  N -1.34138466  1.04606746 -0.77679079
  C -0.98916938 -0.29882950 -0.37691882
  C -0.30711212 -1.04974663 -1.53886061
  C -0.70944911 -0.62455090 -2.91210713
  O  0.44373649 -1.96882899 -1.31216652
  C -2.19957146 -1.17923800 -0.09290338
  C -2.00447923 -2.45163119  0.43887379
  C -3.07840165 -3.28605631  0.69137089
  C -4.36646571 -2.87448347  0.39736552
  C -4.56622215 -1.62543569 -0.16192855
  C -3.49365775 -0.78629538 -0.41297402
  H  5.61529103 -0.64969106 -1.79499257
  H  5.08427469 -1.57115295 -0.36194055
  H  4.30179837 -1.85017597 -1.93727762
  H  3.65020531 -4.15595491  0.57908332
  H  2.02538156 -3.75121752 -0.03414917
  H  2.32409478 -3.79146850  1.72078480
  H -1.34143248 -0.77443156  2.33938444
  H -0.09186912  0.31011103  2.92901822
  H -1.45474361  0.96060921  1.99400374
  H  2.06934192  1.23853216  2.02571580
  H  0.73876006  2.41132768  2.14701186
  H  2.08240230  2.71270112  1.04959549
  H  0.86131233  5.92809811  0.30572315
  H -0.51175123  5.64238116 -0.81139234
  H  1.16340970  5.53005828 -1.41187280
  H -2.26184853  1.34552253 -0.46524133
  H  0.09130769 -0.84840060 -3.61284491
  H -1.58992088 -1.19721753 -3.20464131
  H -0.95881352  0.43285367 -2.92674900
  H -1.01126547 -2.79993081  0.66683052
  H -2.90394039 -4.26322489  1.11483456
  H -5.20473892 -3.52601955  0.59167039
  H -5.56417936 -1.29763764 -0.41188521
  H -3.69453643  0.16669558 -0.87859962
