38
opt_min/./Product_4022_opt.xyz
  C  0.06587000 -2.23733700  0.55052400
  C -0.03489049 -1.25002478 -0.61840771
  C  0.49240605 -1.88664718 -1.91030021
  C -1.48837170 -0.73599517 -0.84987986
  C -2.57945597 -1.62225553 -0.34265404
  O -3.53263677 -1.26352069  0.29056390
  C -1.50251596  0.70765469 -0.27438117
  C -2.07631347  0.69566683  1.16698986
  C -3.23909912  1.59196386  1.46861166
  O -1.55017840  0.01895083  2.01377358
  C -2.18732006  1.69597795 -1.21150032
  N -0.11692127  1.06567541 -0.11933521
  C  0.65958728  0.06488058 -0.24416325
  C  2.08708232  0.24930171 -0.00196015
  C  2.50450925  1.50077886  0.46792397
  C  3.83308361  1.75578611  0.73136087
  C  4.78238860  0.76317521  0.53696057
  C  4.38458074 -0.47985011  0.07817318
  C  3.05211226 -0.73776673 -0.18911509
  H -0.46001642 -1.84625779  1.41662380
  H -0.35485880 -3.20417145  0.28223933
  H  1.10620958 -2.38476495  0.82848029
  H -0.26932740 -2.53908105 -2.33456684
  H  1.37067579 -2.49890795 -1.72990759
  H  0.74423300 -1.12571911 -2.64675648
  H -1.65811131 -0.66507810 -1.93248077
  H -2.47903173 -2.67510186 -0.67107030
  H -2.90428132  2.62592676  1.43325551
  H -4.03732519  1.45241656  0.74783904
  H -3.60439158  1.37043217  2.46765492
  H -2.15239664  2.69866605 -0.79840561
  H -1.65415160  1.70666870 -2.16070315
  H -3.22036257  1.41294953 -1.39485509
  H  1.75418623  2.25998348  0.62026089
  H  4.13445247  2.72778513  1.09286770
  H  5.82457317  0.95402860  0.74476721
  H  5.12049943 -1.25653956 -0.07163056
  H  2.78006549 -1.71825874 -0.54283374
