54
opt_min/./Product_5738_opt.xyz
  C  0.74560100 -1.20288900 -0.63873700
  C  0.15947823 -0.61302482  0.64347431
  C  1.07597294  0.46484520  1.24457580
  N  2.44803835  0.07662569  1.30953754
  C  3.32475515  0.79022566  2.20327753
  C  2.96747337 -0.75496999  0.37436664
  C  2.23549824 -1.40787043 -0.54776254
  C  2.79155354 -2.35139877 -1.51651202
  N  4.15066375 -2.30927511 -1.69524975
  O  2.10886336 -3.16086902 -2.12579537
  C  0.72860900  1.71798220  0.37917696
  C  0.78038861  3.01357070  1.19219718
  C  1.70095299  1.87551271 -0.80224970
  O  2.89620857  2.03028362 -0.63151777
  N  1.10445305  1.88619415 -2.00278380
  C  1.82910732  1.98383579 -3.24314086
  O -0.59992877  1.49017550 -0.08176922
  C -1.10397501  0.22935211  0.35732604
  C -1.86045464  0.43585981  1.70141896
  N -2.91837504 -0.36701627  1.90604520
  C -3.68874279 -0.28038296  3.12750985
  O -1.48422952  1.24009866  2.52889290
  C -2.02589391 -0.32421039 -0.70364750
  C -2.32164195 -1.68479485 -0.76983813
  C -3.18779883 -2.16511161 -1.73626906
  C -3.77505961 -1.29702113 -2.64208174
  C -3.49690195  0.05779565 -2.57372018
  C -2.63072354  0.53969735 -1.60870524
  H  0.29073379 -2.16555239 -0.87447018
  H  0.52850648 -0.54207075 -1.48430977
  H -0.02771037 -1.40073407  1.37734758
  H  0.73820013  0.68706368  2.26400656
  H  4.15470497  0.14652985  2.49101129
  H  3.71957094  1.69157618  1.72499794
  H  2.77512160  1.07550935  3.09933583
  H  4.03435258 -0.91422976  0.47382387
  H  4.51053443 -2.89289949 -2.43314637
  H  4.66114895 -1.47308778 -1.47701674
  H  1.79904314  3.20125100  1.51545593
  H  0.44383152  3.84306333  0.57394393
  H  0.11861905  2.92850733  2.05054828
  H  0.10209607  1.76204493 -2.02099279
  H  2.85478109  2.25788269 -3.00151354
  H  1.38409542  2.74918797 -3.87897416
  H  1.83043337  1.02933755 -3.77663437
  H -3.23887779 -0.97566866  1.17044554
  H -4.44850496 -1.05625999  3.12991013
  H -4.16698381  0.69875346  3.21178861
  H -3.02936537 -0.40764444  3.98705268
  H -1.86658483 -2.37520413 -0.07490869
  H -3.39777490 -3.22239580 -1.78360759
  H -4.44732984 -1.67622191 -3.39604388
  H -3.95558446  0.74029163 -3.27370751
  H -2.41577340  1.59487810 -1.54600490
