34
opt_min/./Product_285_opt.xyz
  C -5.23776898  0.44476411 -0.77874212
  O -4.32439834  0.97700480  0.16930819
  C -3.10518742  0.46860409  0.25043745
  C -2.42651305 -0.50732439 -0.39643701
  C -2.75563384 -1.36169843 -1.44188544
  N -2.98591469 -2.07834894 -2.31369288
  C -1.02842360 -0.44405084  0.22020796
  C -0.36806871  0.82845314 -0.38510107
  C -1.14240885  1.93546364  0.35592996
  C -2.09938173  1.06902976  1.22459221
  O -1.30168012 -0.04836145  1.54836368
  C -0.04791831  2.64103203  1.19506998
  N  1.19242445  1.96561252  0.94679464
  C  1.04845712  1.01509146  0.11644154
  C  2.14976653  0.15119519 -0.28244367
  C  2.01989947 -0.77920883 -1.31382343
  C  3.08469638 -1.59346242 -1.65306343
  C  4.28678601 -1.49373852 -0.97386034
  C  4.42693580 -0.57082267  0.05309849
  C  3.36855580  0.24502159  0.39667490
  H -5.26022602  1.09308155 -1.65783263
  H -6.22030941  0.44235594 -0.30876754
  H -4.97104396 -0.56747345 -1.08047871
  H -0.43320327 -1.35128407  0.18617222
  H -0.44416943  0.84912642 -1.47067871
  H -1.68857928  2.62683549 -0.28090804
  H -2.51616339  1.55040716  2.10498286
  H -0.25630175  2.59618667  2.26608575
  H  0.06649963  3.69258683  0.92067993
  H  1.09029117 -0.87449961 -1.85710471
  H  2.97448510 -2.30989019 -2.45487571
  H  5.11284289 -2.13170433 -1.24571688
  H  5.36203583 -0.49308695  0.58465757
  H  3.45015525  0.96905285  1.19169209
