30
opt_min/./Product_3437_opt.xyz
  C -0.87158031 -1.90400555  0.27031378
  C -1.32385507 -0.80992407 -0.69207017
  C -2.54883838  0.01597460 -0.21296389
  C -2.79116248 -0.01018980  1.29074406
  C -2.14574818  1.43819776 -0.67800697
  C -2.79640436  2.52756927  0.02009463
  N -3.33645965  3.39614219  0.52784463
  O -0.75323027  1.49966653 -0.47868117
  C -0.24568565  0.28774961 -0.99414597
  C  1.13975231  0.02019739 -0.47185217
  C  1.86769752 -1.04861205 -0.98581172
  C  3.14303589 -1.31112777 -0.52160774
  C  3.70817996 -0.50633691  0.45348783
  C  2.99318499  0.56586990  0.95617193
  C  1.71436747  0.82926870  0.49703023
  H -1.71508715 -2.29481408  0.83147845
  H -0.42938571 -2.73124957 -0.27965620
  H -0.13125945 -1.53277243  0.97598068
  H -1.58303386 -1.28526527 -1.64532024
  H -3.45718477 -0.30650941 -0.73087592
  H -1.86574914  0.17087910  1.83264369
  H -3.20188934 -0.96738882  1.59968962
  H -3.50831217  0.76299182  1.56291908
  H -2.37959886  1.55401290 -1.75871322
  H -0.17654779  0.39822400 -2.09779452
  H  1.43287987 -1.67479104 -1.75254359
  H  3.69699275 -2.14789212 -0.92192678
  H  4.70705993 -0.71126938  0.81382558
  H  3.43174511  1.20390160  1.70979469
  H  1.15275232  1.66292141  0.88538493
