41
opt_min/./Product_3864_opt.xyz
  C -1.97269900 -1.23747800  1.71738500
  C -1.67837157  0.09870736  1.03457155
  C -0.19186206  0.47864996  1.14914564
  C -0.00162873  2.00070655  1.24276403
  C  0.41347236 -0.10405631 -0.14783253
  C  1.71827770  0.59574131 -0.59622000
  N  2.56092738  0.92600226  0.40660229
  C  3.85065053  1.52185157  0.15305825
  O  1.99618765  0.80831833 -1.75495263
  C  0.74844401 -1.61119796  0.00472221
  C  2.01884952 -2.00447913  0.72348618
  O  0.04516001 -2.45623619 -0.49290127
  N -0.63911916  0.09919717 -1.11098499
  C -0.52037676 -0.43742741 -2.44375298
  C -1.96270787  0.18007918 -0.49401390
  C -2.92185886 -0.92328846 -0.95590352
  C -2.57907284  1.55019288 -0.87454475
  H -3.03150422 -1.47044112  1.66582573
  H -1.41032792 -2.05631045  1.28451166
  H -1.70182749 -1.15875539  2.77051032
  H -2.29079481  0.83953585  1.55537347
  H  0.25481196 -0.00042962  2.02645998
  H  0.19522532  2.42527577  0.26313024
  H  0.80748322  2.26860688  1.91789125
  H -0.90390081  2.47057666  1.62636095
  H  2.31274235  0.73266220  1.36091728
  H  3.82966903  2.59806850  0.34200928
  H  4.60704081  1.06337096  0.78864932
  H  4.08975061  1.35987358 -0.89665539
  H  2.82594558 -2.01102904 -0.00887948
  H  1.90694249 -3.01963331  1.10012833
  H  2.29115459 -1.34094372  1.53615754
  H -1.01484097  0.24047157 -3.14403286
  H -0.94717284 -1.43948098 -2.55553289
  H  0.52924039 -0.48337461 -2.71586811
  H -3.12126933 -0.82175042 -2.01917436
  H -3.86636506 -0.82262726 -0.42631605
  H -2.50659579 -1.90824192 -0.77042116
  H -1.82803879  2.16385929 -1.36470365
  H -3.41179650  1.42748966 -1.56177093
  H -2.94475040  2.09265462 -0.00709437
