63
opt_min/./Product_2634_opt.xyz
  F  1.86548600  0.21186200 -1.65633300
  C  1.04499010 -0.48249486 -0.76925403
  C  1.97684931 -1.25091142  0.15176181
  C  1.61803660 -1.65842033  1.43108874
  C  2.48367034 -2.41367396  2.19969660
  C  3.72398749 -2.78043038  1.70640262
  C  4.09149288 -2.38009015  0.43449553
  C  3.22550563 -1.62479323 -0.33588267
  C  0.03039011  0.52572017 -0.13947249
  C -0.07925371  1.78719235 -1.01912702
  C -0.29072058  1.67302939 -2.38842499
  C -0.38878604  2.78521298 -3.20305174
  C -0.27910278  4.05431334 -2.66750711
  C -0.07446760  4.18431007 -1.30653566
  C  0.02929465  3.06953563 -0.49440687
  C  0.46409457  1.00643387  1.23082649
  C -0.44313097  1.40401746  2.20448854
  C -0.00204623  1.88650489  3.42660608
  C  1.34999717  2.01901055  3.68346359
  C  2.25938132  1.71595097  2.68360098
  C  1.81966050  1.23036112  1.46728671
  C -1.32175596 -0.28507152 -0.22836844
  C -2.60551813  0.57149748 -0.24116970
  O -2.63583100  1.77947379 -0.24345569
  N -3.72465927 -0.18366897 -0.21076766
  C -5.04270828  0.40177160 -0.17409954
  C -1.51146533 -1.32092424  0.91687240
  O -1.28925186 -2.49570141  0.77727915
  O -2.05774098 -0.81137189  2.02182246
  C -2.29771324 -1.69365493  3.11274796
  N -1.19538817 -1.11645474 -1.41072184
  C -2.12027455 -1.02540913 -2.51445964
  C  0.18920601 -1.52748594 -1.55762944
  C  0.72055831 -1.78087278 -2.96250820
  H  0.66616153 -1.37413710  1.84713163
  H  2.18861110 -2.71439455  3.19382560
  H  4.39848526 -3.36824428  2.31085713
  H  5.05682300 -2.65730099  0.03708336
  H  3.53416954 -1.30945847 -1.32104236
  H -0.38025327  0.70483546 -2.84650662
  H -0.54712596  2.65100189 -4.26371680
  H -0.35375359  4.92669971 -3.29984314
  H  0.00534460  5.16744240 -0.86485394
  H  0.18055944  3.23629693  0.55975772
  H -1.50232131  1.38142563  2.01326668
  H -0.72538034  2.17413959  4.17585446
  H  1.69339700  2.39119791  4.63722741
  H  3.31593873  1.86814415  2.84625414
  H  2.53956554  1.04618117  0.68512793
  H -3.66128075 -1.18801327 -0.20589505
  H -4.95382990  1.44590356 -0.46900936
  H -5.70483448 -0.12032003 -0.86447681
  H -5.46532540  0.35199669  0.83226489
  H -1.74268539 -2.62250883  2.97362087
  H -3.36595901 -1.90763570  3.17011925
  H -1.97233333 -1.18347950  4.01779188
  H -2.53435770 -0.02099407 -2.63833142
  H -1.62091675 -1.29620037 -3.44020467
  H -2.94489944 -1.73493620 -2.37084271
  H  0.29096735 -2.48528702 -1.01971641
  H  1.73108374 -2.17232605 -2.86636039
  H  0.76587214 -0.88422073 -3.57511007
  H  0.12434524 -2.53977607 -3.46391687
