64
opt_min/./Product_2778_opt.xyz
  C -4.17125142  0.56338909 -1.18232839
  C -2.79513058  0.85087395 -0.64551218
  O -2.12469164  1.75728638 -1.08791013
  C -2.24507268 -0.03975365  0.47508419
  C -2.72903322  0.42691587  1.88070865
  C -4.02817369  1.17833157  1.96585784
  O -2.16643247 -0.00835332  2.85219513
  C -0.73579699  0.05854441  0.37769332
  C  0.13523961 -0.49044913 -0.48380581
  C -0.04768364 -1.58647400 -1.50718146
  C  1.01829992 -1.58924855 -2.60499721
 Cl -1.58772581 -1.32872146 -2.42081172
  C -0.04604908 -2.96753072 -0.82707504
  C -1.29596986 -3.45449602 -0.09303957
  C -1.87066155 -2.55924763  1.00675026
  C -2.82038690 -1.48407421  0.46312503
  C  1.53357727  0.05012812 -0.23595381
  C  2.20221133  0.82197209 -1.39971874
  C  1.28691208  1.65184150 -2.26555901
  O  3.39734038  0.90991034 -1.47408824
  C  2.45162339 -1.09676061  0.27367091
  O  3.20060893 -1.69863418 -0.46580630
  N  2.30384000 -1.39327071  1.57479011
  C  3.06320158 -2.44395623  2.21231579
  N  1.31265127  1.14539313  0.70138273
  C  2.40974538  1.67173298  1.47641093
  C -0.02697713  1.07263460  1.26338990
  C -0.76201777  2.43952751  1.20266774
  N -0.17848356  3.31422199  0.38729773
  C -0.71182976  4.63140835  0.14936085
  O -1.75583752  2.65404965  1.86603080
  C  0.08911085  0.62519815  2.64570649
  N  0.49718132  0.28425075  3.66190192
  H -4.80483108  0.04106834 -0.47587890
  H -4.06214885 -0.05315753 -2.07410852
  H -4.63328869  1.49806187 -1.49140424
  H -4.09796962  1.95921138  1.21660350
  H -4.85882213  0.48303934  1.85049499
  H -4.09135275  1.62354000  2.95501126
  H  2.01923244 -1.65742710 -2.19085628
  H  0.93697360 -0.70147997 -3.22380045
  H  0.86411069 -2.45309140 -3.24915572
  H  0.80019681 -2.96859556 -0.13677835
  H  0.17090062 -3.71240513 -1.59603737
  H -1.02130257 -4.41127122  0.35630085
  H -2.08047166 -3.65958306 -0.82418108
  H -2.43913546 -3.19979656  1.68201577
  H -1.07416215 -2.11203176  1.59856080
  H -3.12135250 -1.75436299 -0.54434990
  H -3.72515228 -1.48507890  1.07496967
  H  0.23407083  1.49531390 -2.05757223
  H  1.54494683  2.70269407 -2.13350292
  H  1.50515656  1.42955472 -3.30956611
  H  1.64955246 -0.89640200  2.16022651
  H  2.39166329 -3.18075014  2.65423989
  H  3.70057468 -2.02971565  2.99420473
  H  3.68326469 -2.91619821  1.45211423
  H  2.14568665  2.67207889  1.82326394
  H  2.67662016  1.06577679  2.35037774
  H  3.28183220  1.74203677  0.82695599
  H  0.55102700  2.97371616 -0.22202305
  H -1.20995934  4.67529670 -0.82139628
  H -1.43890616  4.84551390  0.93070992
  H  0.09091888  5.36740568  0.18126009
