59
opt_min/./Product_5760_opt.xyz
  C  6.02879000 -2.80676300 -0.20046800
  C  4.97831962 -1.74344797 -0.12967033
  C  5.41506459 -0.37536953 -0.57110378
  C  3.73895913 -2.01218248  0.29722563
  C  2.66182357 -1.05621734  0.38921029
  C  1.44671826 -1.37314106  0.83474579
  C  0.27351059 -0.45092956  1.02199858
  C  0.40454191  0.19477500  2.40993486
  C -1.04379029 -1.23860807  0.97092363
  C -2.12269707 -0.20166450  0.59475641
  C -3.13043708  0.05210164  1.72137380
  O -3.18261404 -0.97319327  2.58034561
  C -4.24377294 -0.95017207  3.52543440
  O -3.90764418  0.97102159  1.78030572
  C -3.08455362 -0.74495462 -0.46687642
  C -3.45959247  0.04187842 -1.54640999
  C -4.34834319 -0.44243569 -2.48919551
  C -4.88292182 -1.71237527 -2.35792354
  C -4.52447686 -2.49580828 -1.27366936
  C -3.63411985 -2.01367183 -0.33066826
  N -1.40934483  0.96977826  0.08022241
  C -1.69708454  2.30077067  0.56135712
  C -0.00055103  0.59745924 -0.09700812
  C  0.15867267 -0.03079743 -1.50205119
  C  0.93272067  1.80902385 -0.09712122
  O  1.89567086  1.96019818  0.61016756
  O  0.59085743  2.68152094 -1.04989538
  C  1.39648776  3.84156087 -1.20943004
  H  5.62540973 -3.78222437  0.06010216
  H  6.84657602 -2.57474527  0.48337031
  H  6.44812096 -2.85626029 -1.20567688
  H  6.49652343 -0.33827981 -0.67968374
  H  5.11006528  0.38490594  0.14457420
  H  4.96746455 -0.12669929 -1.53423295
  H  3.49462322 -3.02378428  0.59921399
  H  2.87836537 -0.04460941  0.08996391
  H  1.26007736 -2.38487132  1.17833844
  H  0.56407185 -0.58255579  3.15630196
  H -0.49833596  0.73910545  2.67645293
  H  1.25477250  0.86962592  2.43699445
  H -1.25278871 -1.71386918  1.92600657
  H -0.98793533 -2.01218802  0.20498042
  H -4.36794967  0.05547206  3.93123133
  H -3.97281577 -1.65347259  4.30849961
  H -5.17569292 -1.25510946  3.04445558
  H -3.03767820  1.02967140 -1.64222155
  H -4.62850861  0.17716957 -3.32793598
  H -5.57928523 -2.08942042 -3.09264819
  H -4.94228547 -3.48531583 -1.15900827
  H -3.37093534 -2.62628944  0.51980548
  H -1.03228291  2.62104446  1.37637654
  H -2.72384337  2.36070376  0.90216272
  H -1.58439316  3.00485504 -0.26551341
  H  1.14470923 -0.46924969 -1.61855516
  H -0.59300319 -0.79888706 -1.64812452
  H  0.00757010  0.73350804 -2.25862019
  H  1.83625372  3.82047100 -2.20745094
  H  2.18199820  3.85562160 -0.45216217
  H  0.75494295  4.71719397 -1.10851054
