26
opt_min/./Product_26_opt.xyz
  C -2.57321300 -0.93275200 -0.50947700
  C -1.64657127 -1.73600830 -1.01870913
  C -0.45269955 -0.84196736 -1.28306244
  C  0.15403909 -0.58347899  0.14655193
  C -0.92132280  0.36300097  0.72812971
  C -1.92951876  0.43497546 -0.47839100
  O -1.05788468  0.39424018 -1.58257948
  N -0.18485773  1.59135672  0.91458482
  C -0.73865561  2.78503199  1.47162575
  N  1.06407932  1.52203180  0.54138560
  C  1.36939330  0.33242391  0.12300750
  C  2.72393902 -0.01426400 -0.27287813
  C  2.99086921 -1.49141805 -0.50005709
  O  3.62380757  0.79970726 -0.30024478
  H -3.54755723 -1.17544377 -0.13279226
  H -1.67830886 -2.79826878 -1.16072828
  H  0.25471297 -1.13077343 -2.05191681
  H  0.32659296 -1.50806818  0.70040652
  H -1.42208743  0.05140805  1.65054738
  H -2.56846336  1.31274385 -0.49931520
  H -1.55179431  3.17218255  0.84843165
  H -1.12450378  2.60819920  2.48077445
  H  0.06074003  3.52256306  1.51100897
  H  2.14177889 -2.01086874 -0.92902941
  H  3.21915490 -1.94130336  0.46656338
  H  3.86505580 -1.60307934 -1.13843897
