45
opt_min/./Product_1891_opt.xyz
  C -2.79041772 -2.76224659 -0.00181176
  C -1.70833041 -2.03288205 -0.75208460
  O -1.46245556 -2.23964695 -1.90707603
  C -0.90684470 -1.02823243  0.08836245
  C  0.01564560 -0.01084180 -0.65610553
  C -0.18004244  0.18301445 -2.16673129
  F  0.31638990  1.39042942 -2.52201701
  F -1.45578220  0.19254559 -2.56357357
  F  0.44468771 -0.69281656 -2.94968985
  C -0.30811837  1.32873044  0.07538399
  C -1.67275558  1.86848388 -0.36896021
  C -2.64018408  0.77856503  0.13381429
  C -1.74207316 -0.11241136  1.00840060
  C -0.67635116  0.87248298  1.48969215
  C  1.46778919 -0.51512961 -0.33298960
  C  1.99238527 -1.53231156 -1.25107110
  N  2.50542848 -2.38608474 -1.80867871
  C  2.51853968  0.57536916 -0.24041437
  C  3.10076365  1.05574752 -1.40779959
  C  4.04808926  2.06132424 -1.34061897
  C  4.42739558  2.58145877 -0.11504656
  C  3.86421002  2.08542812  1.04810662
  C  2.91196645  1.08347585  0.98983891
  O  1.34113809 -1.17998524  0.92263970
  C  0.11650443 -1.87971306  0.92547052
  C  0.27034663 -3.24193576  0.39331815
  N  0.42807498 -4.31035494  0.02928808
  C -0.30691105 -2.08394316  2.31085287
  N -0.63491943 -2.31785613  3.37856146
  H -3.71875884 -2.20142632 -0.11294021
  H -2.93517099 -3.73758610 -0.46161105
  H -2.57531776 -2.87968851  1.05604767
  H  0.50004654  2.05323930 -0.00976082
  H -1.84938578  2.81314924  0.14676560
  H -1.76350928  2.06964307 -1.43124809
  H -3.08221488  0.21958450 -0.69002690
  H -3.44795822  1.20359504  0.72802833
  H -2.28416311 -0.65533587  1.77990086
  H -1.09428910  1.68339661  2.08256633
  H  0.13463091  0.42232189  2.05477467
  H  2.82045921  0.64329512 -2.36549886
  H  4.49366208  2.43189769 -2.25074356
  H  5.16722590  3.36620896 -0.06573733
  H  4.16543372  2.47657685  2.00801477
  H  2.48776086  0.68706650  1.89868078
