52
opt_min/./Product_5508_opt.xyz
  C  4.91115700  1.23257300  1.08491100
  C  4.69132793 -0.18724940  0.66577786
  C  5.90693831 -1.06142649  0.77497834
  C  3.54360357 -0.68527438  0.18934801
  C  2.29785613  0.01173588 -0.01252292
  C  1.20925430 -0.58888140 -0.50060847
  C -0.08940589  0.08192616 -0.80819889
  C -0.09625738  0.38295001 -2.31970749
  C -0.38023919  1.39196513 -0.05505786
  C -1.89354274  1.40354755 -0.10006093
  C -2.72936437  2.61847424  0.13746405
  N -2.07879517  3.59429192  0.82510619
  C -2.74705406  4.81554795  1.20520016
  O -3.86200651  2.74625343 -0.26967587
  N -2.41992801  0.28215585 -0.35300157
  C -1.39065161 -0.73105964 -0.47830233
  C -1.73964266 -1.73721428 -1.57118973
  O -2.70968270 -1.72034521 -2.27345331
  O -0.80162262 -2.69757459 -1.62784854
  C -1.03559960 -3.72803721 -2.57728987
  C -1.48010945 -1.51769552  0.82506714
  C -0.44054707 -1.69224073  1.72449577
  C -0.64249079 -2.42154279  2.88585442
  C -1.87723417 -2.97678261  3.16377962
  C -2.92347164 -2.79510939  2.27381357
  C -2.72717012 -2.06923815  1.11476642
  H  5.26675281  1.26546473  2.11483609
  H  5.68031653  1.68644793  0.45902733
  H  4.01132558  1.83365331  1.01312516
  H  6.52485156 -0.76533463  1.61979684
  H  6.51238169 -0.97245038 -0.12782104
  H  5.63078331 -2.10692144  0.88954762
  H  3.52076162 -1.73354945 -0.08475272
  H  2.25817886  1.05780996  0.25489843
  H  1.25749551 -1.62741630 -0.80151026
  H  0.67995759  1.10948142 -2.55354244
  H  0.10464197 -0.51865923 -2.89378174
  H -1.06097601  0.78308285 -2.62664774
  H -0.05514390  1.31622129  0.98836744
  H  0.07876914  2.26130974 -0.52192235
  H -1.17570330  3.41178156  1.22990427
  H -2.03697889  5.64075979  1.20178846
  H -3.53767461  5.00199268  0.48040076
  H -3.19975959  4.73164641  2.19728147
  H -1.98647595 -4.22226081 -2.37055576
  H -0.21041574 -4.42821361 -2.47631183
  H -1.06728763 -3.31493881 -3.58781260
  H  0.53070347 -1.26748948  1.52990480
  H  0.17870190 -2.55234379  3.57570281
  H -2.02487343 -3.54426485  4.07081692
  H -3.89438835 -3.21780738  2.48346469
  H -3.54073257 -1.91030840  0.42361781
