41
opt_min/./Product_1316_opt.xyz
  C -0.04909900  0.03622800  2.76874000
  O -0.22562534  0.76919328  1.57997689
  C -0.21222396  0.17786944  0.31411118
  C -1.56744470 -0.29566490 -0.31695601
 Br -2.99187004 -0.68706904  0.96632672
  C -1.15321718 -1.55023338 -1.11119832
  C -0.95873647 -2.74283090 -0.16776318
  C  0.26317961 -2.31207655  0.66759077
  C  0.72940777 -1.00851125 -0.01188106
  C  0.31593041 -1.27432854 -1.46321560
  C -2.01747635  0.92330567 -1.18066489
  C -2.77102766  0.58831821 -2.46261464
  C -2.78309917  1.89925460 -0.21735168
  C -4.25693475  2.07801475 -0.44128449
  O -2.18340698  2.47568074  0.64377564
  N -0.81299229  1.64938971 -1.46694320
  C  0.09758561  1.34200581 -0.64458586
  C  1.38902901  2.07129886 -0.64159360
  O  2.15763658  1.69785919  0.38497837
  C  3.40687345  2.35451018  0.54617018
  O  1.71137224  2.87047243 -1.48006728
  H -0.12925385  0.78673400  3.55446431
  H  0.94390323 -0.42431543  2.81979429
  H -0.82821872 -0.71382669  2.93089858
  H -1.81135538 -1.77327768 -1.94769350
  H -0.73480523 -3.62595380 -0.76777411
  H -1.83074059 -2.97288313  0.44072214
  H -0.00994814 -2.17092428  1.70716478
  H  1.05720904 -3.05742430  0.63384634
  H  1.77428956 -0.76665119  0.16798723
  H  0.47619429 -0.43850705 -2.14032422
  H  0.79807810 -2.15805129 -1.87606733
  H -2.05461999  0.48907903 -3.27440432
  H -3.46544559  1.37633105 -2.73210315
  H -3.33208880 -0.33814156 -2.36668362
  H -4.40398566  2.78134971 -1.25961764
  H -4.68953994  2.50743895  0.45913287
  H -4.75255912  1.14012553 -0.67826656
  H  4.18340864  1.59102725  0.59774640
  H  3.38224574  2.92135007  1.47664424
  H  3.58750278  3.02265948 -0.29736557
