33
opt_min/./Product_3625_opt.xyz
  C -3.65612500  1.76808100  0.96697900
  C -2.64709172  0.71700489  0.61304129
  C -2.77348186  0.16923040 -0.77619707
  C -1.71662624  0.34339212  1.48185713
  C -0.63327436 -0.67018021  1.22946589
  C  0.50297207 -0.15841237  0.29497726
  C  0.80756644 -1.06921667 -0.86509403
  C  1.32133703 -2.43518897 -0.52140175
  C  0.60623340 -0.67096761 -2.11104857
  N  1.60943266 -0.12883586  1.26306333
  C  2.88421401  0.31338595  1.02136240
  O  2.96716008  0.80488654 -0.23131348
  C  4.24897407  1.28973844 -0.60485399
  O  3.78546037  0.28264761  1.80932574
  N  1.22637213 -0.62987698  2.45624783
  N  0.05283427 -0.94798912  2.48403694
  H -4.65988531  1.43244486  0.71352921
  H -3.45916165  2.67884543  0.40030625
  H -3.62050570  2.00824199  2.02574034
  H -3.78249447 -0.21072019 -0.93145057
  H -2.60273938  0.95971095 -1.50564089
  H -2.06436949 -0.63078273 -0.96554116
  H -1.68897839  0.78515924  2.46802286
  H -1.07091451 -1.60655661  0.87054506
  H  0.29888347  0.85527219 -0.06156902
  H  0.53611485 -3.04117087 -0.06802677
  H  2.13936388 -2.37155884  0.19582209
  H  1.67560516 -2.94459212 -1.41287010
  H  0.80390596 -1.31554079 -2.95009191
  H  0.23511216  0.31279637 -2.34055702
  H  4.95715955  0.46248060 -0.68385938
  H  4.61638710  2.00158400  0.13668885
  H  4.11562016  1.76988399 -1.57066999
