36
opt_min/./Product_4009_opt.xyz
  C -0.78977554  1.51041364  1.59856348
  C -0.76602610  0.09042479  1.04126112
  C -2.08164871 -0.30123891  0.33758895
  C -2.58415679 -1.65676654  0.83379821
  C -1.71896262 -0.31990185 -1.17132096
  C -1.98093852  1.02866357 -1.85676985
  C -2.46605140 -1.31557180 -1.91457858
  N -3.03203153 -2.09376986 -2.53238724
  N -0.28841918 -0.64007958 -1.24102652
  C  0.35026430 -0.17432739 -0.01467642
  C  1.17465339  1.08701933 -0.30124198
  O  2.16643706  1.18279140  0.59067692
  C  3.03805870  2.30467886  0.49642285
  O  0.96145481  1.88521709 -1.16776675
  C  1.31706469 -1.26319115  0.46857429
  O  1.18396925 -1.90607511  1.47454617
  O  2.28810511 -1.44175703 -0.42004328
  C  3.24956707 -2.45031982 -0.13051955
  H -0.90573289  2.25323121  0.81267713
  H  0.12630740  1.71847348  2.14625395
  H -1.62408137  1.61283186  2.28988272
  H -0.58588289 -0.59373987  1.87604830
  H -2.85338201  0.44970475  0.51970115
  H -1.83353180 -2.42916533  0.67618493
  H -3.49478935 -1.94739427  0.31426076
  H -2.79795655 -1.60324759  1.89897725
  H -1.37913811  1.80426728 -1.39649822
  H -3.03518109  1.28814691 -1.79319895
  H -1.69293275  0.96141886 -2.90297605
  H -0.14821406 -1.63675060 -1.36682228
  H  2.97364387  2.86942708  1.42696332
  H  4.05383053  1.93707275  0.35549164
  H  2.74458488  2.93304941 -0.34601099
  H  3.99856681 -2.05845810  0.55979448
  H  3.71166558 -2.71622390 -1.07815042
  H  2.76562353 -3.31733197  0.32275409
