89
opt_min/./Product_3210_opt.xyz
  C  2.30892200 -3.75443400 -0.38094300
  O  1.75422325 -2.46915933 -0.18497504
  C  0.45498847 -2.13853835 -0.64944372
  C  0.47871245 -2.28514020 -2.21531720
  F  1.71842459 -2.33239706 -2.71196630
  F -0.09866650 -3.42643371 -2.64724708
  F -0.14711279 -1.30338123 -2.87219028
  C  0.37882865 -0.58161731 -0.31764823
  C -0.58927404  0.36478414 -0.20582499
  C -2.12760023  0.20010047 -0.13975694
  C -2.61768130  0.68347482  1.21868262
  C -2.51893850 -0.11289486  2.35410460
  C -2.94612360  0.34274328  3.58745963
  C -3.48883962  1.60740799  3.71965153
  C -3.59824260  2.41030133  2.59972698
  C -3.16623236  1.95321783  1.36722989
  C -2.90766101  0.78640634 -1.29221026
  C -2.31530962  1.03564398 -2.52370179
  C -3.06752007  1.49989878 -3.59023188
  C -4.42974362  1.69625133 -3.44991691
  C -5.03917026  1.39920467 -2.24244993
  C -4.28696183  0.94066565 -1.17714659
  C -2.11862144 -1.31751498 -0.27283364
  C -3.04124997 -2.49601210 -0.10131793
  C -1.99173750 -3.59992522 -0.40809486
  C -0.50045160 -3.27709424 -0.05161346
  C  0.01600557  1.72851532  0.08130742
  C -0.41630177  2.72843761 -0.98937421
  O -1.46839062  3.46598937 -0.64204182
  C -1.95102174  4.37277924 -1.62589723
  O  0.15122425  2.85472703 -2.04513323
  C -0.14315318  2.15323505  1.56201640
  C -0.14399701  3.62936548  1.85792233
  O -0.16535588  1.32852125  2.43985073
  N  1.44759041  1.49598407  0.08077838
  C  2.38591805  2.51724605 -0.29619209
  C  1.75721759  0.07038502 -0.09262153
  C  2.35448790 -0.35285342  1.24901982
  C  1.58318513 -0.96897890  2.22467486
  C  2.10410512 -1.25777211  3.47228249
  C  3.40946214 -0.92139268  3.78017960
  C  4.18201686 -0.27999251  2.82893868
  C  3.65768013  0.00636407  1.58127782
  C  2.65386671 -0.12218436 -1.30909451
  C  3.83570884 -0.84977260 -1.29262261
  C  4.60739260 -0.96267652 -2.43558336
  C  4.21166270 -0.34945054 -3.61080516
  C  3.02552703  0.36141641 -3.64368700
  C  2.25213952  0.47167853 -2.50316244
  H  2.04424102 -4.43443917  0.43533749
  H  2.04166547 -4.20599242 -1.33831588
  H  3.38652484 -3.59517655 -0.36644647
  H -2.09484848 -1.10221688  2.30457252
  H -2.84739143 -0.29635789  4.45261674
  H -3.82040579  1.96428518  4.68372801
  H -4.02292382  3.40100879  2.68114241
  H -3.26251827  2.59961173  0.51043610
  H -1.26199041  0.86111882 -2.66484231
  H -2.58314036  1.70062821 -4.53393877
  H -5.01636704  2.06129405 -4.28102577
  H -6.10736590  1.51817038 -2.13024282
  H -4.77487640  0.69384246 -0.24580839
  H -1.71308712 -1.45793988 -1.27232414
  H -1.38970801 -1.54247321  0.48786660
  H -3.86805986 -2.54564917 -0.80535906
  H -3.43035362 -2.57722328  0.91354943
  H -2.22762565 -4.51088123  0.14681285
  H -2.04722050 -3.84509991 -1.46742901
  H -0.39577823 -3.19784047  1.03399060
  H  0.01369912 -4.19678618 -0.34133760
  H -2.64249502  5.03787722 -1.11426134
  H -2.46383131  3.82412095 -2.41850818
  H -1.12290564  4.93565379 -2.06000151
  H  0.44726207  4.20056248  1.14977486
  H  0.21854361  3.78970134  2.87087574
  H -1.17357503  3.97711041  1.79788685
  H  2.23126997  3.39754493  0.32943015
  H  2.32368130  2.82227236 -1.34697653
  H  3.39208235  2.15243105 -0.10966134
  H  0.55514939 -1.21852914  2.02155194
  H  1.48156358 -1.74129143  4.21114880
  H  3.81930702 -1.14827435  4.75369675
  H  5.19924789  0.00539093  3.05809360
  H  4.28080103  0.51572539  0.86215196
  H  4.14007022 -1.35427437 -0.38962257
  H  5.52104491 -1.53868272 -2.40831303
  H  4.81990893 -0.43525652 -4.49960067
  H  2.69561111  0.82896640 -4.55932797
  H  1.31912023  1.01326456 -2.54524746
