49
opt_min/./Product_1857_opt.xyz
  C  2.33523865  3.88822417 -0.85236524
  N  2.04357326  2.53509900 -0.44648467
  C  1.41008737  1.67157975 -1.25697092
  O  1.12655369  1.90747132 -2.41098636
  C  1.16137601  0.28342226 -0.63323617
  C  0.14741909  0.21640459  0.55460703
  C -0.52857632  1.57329937  0.81828754
  C -0.85995346  1.92037151  2.23641156
  O -0.78075855  2.30664645 -0.10409378
  C  1.10206936 -0.26106949  1.70727435
  C  1.45351733 -1.70826934  1.42072139
  C  2.30240374 -1.66304851  0.40483545
  C  2.46717273 -0.19441203  0.09053298
  O  2.30412570  0.41083908  1.36783895
  C -0.91700967 -0.82722689  0.10707831
  C -1.37094704 -1.79837048  1.19918192
  O -1.48075726 -1.18781277  2.37708336
  C -2.02529572 -1.96791032  3.43932015
  O -1.67085325 -2.94243822  1.00559967
  C -2.20645788 -0.03748662 -0.27737399
  O -3.01800053  0.31704777  0.53947784
  O -2.26501775  0.18248756 -1.57164647
  C -3.31861493  1.00748910 -2.06036865
  N -0.31348042 -1.53206152 -0.99213049
  C -1.09556002 -2.44310208 -1.80005804
  C  0.60436990 -0.66714416 -1.69580786
  C  1.63924009 -1.41800564 -2.37334499
  N  2.44742610 -1.97882564 -2.95559140
  H  3.40973899  4.02379184 -0.99323188
  H  1.82567664  4.06837307 -1.79679709
  H  1.97849875  4.59539286 -0.10457501
  H  2.21967478  2.27174552  0.51239210
  H  0.05424465  2.10934623  2.79539114
  H -1.47703490  2.81419805  2.24821792
  H -1.39432661  1.09184042  2.69238423
  H  0.78539014 -0.02780005  2.71685981
  H  1.04350171 -2.54722988  1.94323820
  H  2.78160129 -2.45400333 -0.13352832
  H  3.39160543  0.11252761 -0.39061266
  H -1.26974312 -2.65540078  3.82389058
  H -2.88202444 -2.54190386  3.08541379
  H -2.32870456 -1.26609738  4.21127494
  H -3.64040407  0.58542239 -3.00960467
  H -4.14086810  1.03170543 -1.34443731
  H -2.92518054  2.01405795 -2.20589560
  H -0.62567938 -3.42737549 -1.79593058
  H -2.10291845 -2.54435783 -1.40359813
  H -1.16731453 -2.08758431 -2.83194518
  H  0.11026934 -0.05528251 -2.48010701
