43
opt_min/./Product_4597_opt.xyz
  C -4.40193467  1.76658098 -0.89808088
  C -4.46402467  0.26920803 -0.93654274
  C -5.73295274 -0.34361301 -1.45477280
  C -3.45250671 -0.51900889 -0.54805576
  C -2.17433023 -0.07664821 -0.04955038
  C -1.20354537 -0.92123129  0.29597642
  C  0.13724962 -0.54868485  0.85445192
  C  0.23478660 -1.01927448  2.30769773
  C  0.49355214  0.93978023  0.74767524
  C  2.02202252  0.96398742  0.80382009
  C  2.60875361  2.04366732 -0.09847645
  O  3.92437791  1.86732007 -0.25371005
  C  4.58438554  2.79287049 -1.10869385
  O  1.98707700  2.93869192 -0.60076349
  N  2.46667186 -0.38170723  0.43790556
  C  1.31000464 -1.16662282  0.01354570
  C  1.05544380 -0.94184822 -1.39767546
  N  0.96472882 -0.68242737 -2.50943721
  C  1.55005691 -2.65529527  0.30730646
  C  0.89993739 -3.61070931 -0.65718865
  O  2.23547954 -3.00921097  1.22564345
  H -3.85119531  2.13981918 -1.76261331
  H -3.89822048  2.12256571 -0.00232298
  H -5.40090873  2.19537906 -0.92419270
  H -6.37805595  0.40484966 -1.90699272
  H -6.28152867 -0.82227296 -0.64293077
  H -5.51630495 -1.10900101 -2.19872912
  H -3.58156979 -1.59187866 -0.61491169
  H -2.01705642  0.98751813  0.02597131
  H -1.38466679 -1.98722898  0.22814278
  H  1.25239647 -0.92162870  2.67391164
  H -0.05935752 -2.06313303  2.39736671
  H -0.43117309 -0.42222076  2.92683305
  H  0.17326494  1.33887453 -0.21668463
  H  0.04283514  1.53315222  1.54050261
  H  2.38608894  1.16860364  1.82158171
  H  4.42420005  3.81243121 -0.75348809
  H  5.63938435  2.53376536 -1.07639893
  H  4.19583766  2.70868780 -2.12608100
  H  3.18891707 -0.36381873 -0.27369345
  H -0.04141230 -3.22964397 -1.04324750
  H  0.75843293 -4.57959485 -0.18282325
  H  1.57564398 -3.74155688 -1.50352347
