24
opt_min/./Product_3269_opt.xyz
  C -0.75748000 -1.54836500  0.17365900
  C -0.92901035 -0.29290901 -0.67309127
  C -1.98592376  0.67897098 -0.11158383
  C -3.32852206  0.12694864  0.35072513
  O -1.31116208  1.24634470  1.00446509
  N  0.05571502  1.42886184  0.64321601
  C  0.30283124  0.63173127 -0.55883978
  C  1.63859451 -0.10412342 -0.48279982
  O  2.44352963  0.45119161  0.41247676
  C  3.73957766 -0.11012728  0.57867901
  O  1.93054398 -1.03866215 -1.18158626
  H -0.03322827 -2.20945086 -0.29303036
  H -1.69590884 -2.08668057  0.27320048
  H -0.40744872 -1.27875891  1.16822310
  H -1.12426660 -0.55764609 -1.71314561
  H -2.15327637  1.47290896 -0.86508164
  H -3.37195645 -0.95422053  0.27194558
  H -4.13835480  0.54919724 -0.23645601
  H -3.46790352  0.40253576  1.39255107
  H  0.17953735  2.42308814  0.45009860
  H  0.37819077  1.26213724 -1.46057031
  H  4.47938164  0.60815057  0.22348425
  H  3.88393695 -0.29493354  1.63952024
  H  3.81904549 -1.03833412  0.01099988
