38
opt_min/./Product_1295_opt.xyz
 Br -1.28759200  1.51656800 -2.70014400
  C -0.72156690  0.09539279 -1.63831443
  C -1.39312898 -0.67577620 -0.76981298
  C -2.78956971 -0.74626272 -0.38975176
  C -3.14213826 -1.17302887  0.89374020
  C -4.46881231 -1.23428242  1.26948483
  C -5.46848312 -0.88781117  0.37489803
  C -5.12968255 -0.48044251 -0.90333407
  C -3.80426565 -0.40798690 -1.28544603
  C -0.27657744 -1.48052689 -0.10428436
  C  0.45654702 -0.51614196  0.86059055
  C  1.11201291  0.47035748 -0.12211148
  C  0.74544407 -0.24105787 -1.47492632
  O  0.68066740 -1.60868533 -1.13578176
  C  2.59391564  0.47727035  0.30382022
  C  3.66744666  0.57714143 -0.77506381
  O  3.49114782  0.55433940 -1.96373823
  O  4.84865395  0.74763633 -0.19067864
  C  5.99696836  0.81603922 -1.02872047
  N  2.78960645 -0.69996483  1.12387031
  C  1.67754780 -1.19793944  1.45901847
  C  1.57176396 -2.35081773  2.39035897
  H -2.37155409 -1.43931251  1.60106074
  H -4.72421573 -1.55550953  2.26901162
  H -6.50466674 -0.93991002  0.67456620
  H -5.90476735 -0.21759245 -1.60981574
  H -3.55369132 -0.10701043 -2.29058131
  H -0.57246658 -2.44880668  0.28933575
  H -0.16376042 -0.07822867  1.64200884
  H  0.70553571  1.48283045 -0.14161040
  H  1.41693242 -0.06812780 -2.30698121
  H  2.77037742  1.33156664  0.97341934
  H  5.69687638  1.00167866 -2.06158855
  H  6.53990111 -0.12861052 -0.96099393
  H  6.62629450  1.62317676 -0.65707764
  H  1.56450970 -1.98038738  3.41691426
  H  2.44450252 -2.98687419  2.26978292
  H  0.66404613 -2.92127015  2.21517697
