49
opt_min/./Product_1699_opt.xyz
  C  3.96545500  1.08486300  2.06069100
  C  3.95466667  0.05916955  0.95674424
  O  4.98400162 -0.32396342  0.44708760
  C  2.63795448 -0.45022987  0.53695604
  C  2.29454640 -1.31809297 -0.44345738
  C  2.93008459 -1.88061381 -1.66082933
  C  4.24457567 -1.32618804 -2.10595217
  O  2.35620646 -2.76061880 -2.26259757
  C  0.81385925 -1.59877464 -0.22100432
  C  0.04619141 -0.36317833 -0.73037858
  C  0.53510323  0.72095837  0.25007821
  C  1.32000269 -0.18528418  1.26661717
  O  0.67834633 -1.43921634  1.17907796
  N -0.67098963  1.34854919  0.73974600
  C -0.83885835  2.29944070  1.69955751
  C  0.41896846  2.76084879  2.40504940
  O -1.92702336  2.76894940  1.93851179
  N -1.81117034  0.91971768  0.02317363
  C -2.16846762  1.84749276 -1.04380033
  C -1.47023903 -0.42318251 -0.39287929
  C -1.76485221 -1.35841454  0.80715201
  O -1.76828452 -2.63249618  0.42260406
  C -2.00446362 -3.58648211  1.45255729
  O -2.07558792 -0.96876302  1.89497658
  C -2.33387161 -0.96644633 -1.53339843
  C -3.81463992 -0.84179971 -1.31329549
  O -1.83925982 -1.48461182 -2.49861206
  H  4.97672610  1.17353785  2.44948650
  H  3.28207387  0.83394563  2.86479137
  H  3.67386129  2.05044800  1.64719510
  H  4.41444897 -1.59032333 -3.14629590
  H  4.30034702 -0.25116162 -1.96554277
  H  5.02836596 -1.77014099 -1.49318211
  H  0.45619275 -2.55356987 -0.59148257
  H  0.21000309 -0.14928467 -1.78304734
  H  1.20711845  1.45687691 -0.20736426
  H  1.32364980  0.16045907  2.29161468
  H  1.30670417  2.65088955  1.79125213
  H  0.28536999  3.80520923  2.67665996
  H  0.53305267  2.19362861  3.32641034
  H -1.78508073  1.54001811 -2.02299667
  H -1.76839917  2.82878944 -0.79873241
  H -3.25162936  1.93503109 -1.08797009
  H -1.20230558 -3.53359897  2.19027059
  H -2.95821326 -3.38198351  1.94273330
  H -2.02001376 -4.55823861  0.96660630
  H -4.03626037 -0.49332142 -0.30940074
  H -4.23115688 -0.14899830 -2.04168592
  H -4.27758027 -1.81035976 -1.49338109
