69
opt_min/./Product_3095_opt.xyz
  C -2.89867100  4.50810900 -0.56444200
  N -2.11517972  3.44750158 -1.14614851
  C -1.36277668  2.62542647 -0.40472306
  O -1.26185541  2.69966178  0.80484814
  C -0.54751374  1.59012397 -1.16220431
 Cl -1.07244436  1.39544715 -2.89058551
  C -0.52781521  0.20968141 -0.51598184
  C  0.55324665 -0.53811362 -0.16244034
  C  2.09354309 -0.33376217  0.01664029
  C  2.83531065 -1.02407863 -1.13070301
  O  3.86810781 -1.62263451 -1.05823375
  O  2.22333258 -0.77213707 -2.30096041
  C  2.84215523 -1.29426117 -3.46991771
  C  2.42077256 -0.91488199  1.41624769
  O  1.73770973 -0.65496633  2.37443700
  O  3.58891774 -1.52087331  1.47143505
  C  3.94168005 -2.11224004  2.71483095
  C  2.93120884  1.02867057  0.23458867
  C  3.18116019  2.13033957 -0.83296889
  C  1.93996960  2.96595303 -1.25654137
  C  0.93730978  1.85021438 -1.13401376
  C  0.06504762 -1.98954205  0.03251433
  C  0.55939553 -2.72954930  1.30617247
  N -0.25207645 -2.59387757  2.35097662
  C  0.04315242 -3.15915958  3.64143434
  O  1.57027618 -3.41312706  1.28905065
  C  0.46668655 -2.85172349 -1.17511019
  N -1.37971805 -1.86323009  0.12282880
  C -1.82099400 -0.54419001 -0.25339810
  C -2.87973230 -0.61116096 -1.35281272
  O -3.25556001 -1.66215427 -1.80705946
  O -3.37702400  0.56680832 -1.69720101
  C -4.41704871  0.55031683 -2.66624432
  C -2.48153169  0.05708170  1.03118308
  O -2.14321684 -0.30153342  2.12572545
  O -3.44595119  0.92580990  0.79249032
  C -3.99931520  1.56645101  1.94124030
  H -2.40987629  5.47652707 -0.70010679
  H -2.99301334  4.31083420  0.50174532
  H -3.88481087  4.53783804 -1.02593180
  H -2.11046342  3.34806560 -2.15040091
  H  2.47215786 -0.70355794 -4.30462994
  H  2.56872526 -2.34338075 -3.59700569
  H  3.92759178 -1.21622810 -3.38653251
  H  5.00763099 -2.31781134  2.66155045
  H  3.38431514 -3.04259933  2.82790167
  H  3.70482283 -1.43340442  3.53637992
  H  3.92894545  0.64130305  0.46492786
  H  2.55150169  1.49953226  1.14521716
  H  3.59707504  1.66468787 -1.72873221
  H  3.95501018  2.78038242 -0.42137912
  H  1.73199178  3.77431466 -0.55667041
  H  2.08404288  3.35087469 -2.26383035
  H  1.06794636  1.61527893 -0.08680817
  H  1.33287086  1.06849044 -1.78064321
  H -0.96570876 -1.87378226  2.28839149
  H -0.75199251 -3.84595275  3.93871291
  H  0.98330280 -3.70453793  3.57150569
  H  0.13841159 -2.36807240  4.38456735
  H  0.34521107 -2.30359705 -2.10675158
  H  1.49974509 -3.17900106 -1.07184809
  H -0.16724520 -3.73587345 -1.20247066
  H -1.87431934 -2.59960109 -0.36824506
  H -4.55588189  1.57989356 -2.98480013
  H -5.33361404  0.15994904 -2.22051774
  H -4.13539020 -0.07805069 -3.51333541
  H -4.30315189  0.82237300  2.67916056
  H -3.24270356  2.22049632  2.37752111
  H -4.85612042  2.13395266  1.58835517
