29
opt_min/./Product_647_opt.xyz
  C -1.84271635  2.75058455  0.39850512
  O -1.34305149  1.47949911 -0.00934996
  C -1.02277894  0.60938123  0.92945394
  O -1.13963084  0.76742573  2.11284982
  C -0.46673598 -0.67574736  0.30306162
 Cl -1.60445022 -1.22964193 -0.97499354
  C  0.93616273 -0.50937953 -0.29783937
 Cl  1.84821207  0.61620775  0.76912530
  C  1.02422270  0.02290665 -1.72644466
  O  1.37612445 -0.65061640 -2.65450922
  O  0.70368365  1.30068999 -1.78709633
  C  0.76331211  1.89320321 -3.08163890
  C  1.51883979 -1.94801773 -0.12074183
  C  2.96318508 -1.95111961  0.04996120
  N  4.09758704 -1.95319566  0.16688026
  C  1.21983594 -2.82846559 -1.25279073
  N  0.98214700 -3.59612567 -2.06136846
  N  0.81360230 -2.50224720  1.02248494
  C -0.24405394 -1.85319024  1.25232149
  C -1.21312884 -2.22115244  2.29799726
  H -1.24736540  3.51100551 -0.10390343
  H -2.88547893  2.82636976  0.08952192
  H -1.76357695  2.85638088  1.48133161
  H  1.76433683  1.77966160 -3.50099555
  H  0.04422152  1.41207967 -3.74650037
  H  0.51865515  2.94229165 -2.94278086
  H -1.35392991 -1.37919087  2.97395801
  H -0.85170523 -3.08924105  2.83910514
  H -2.17492211 -2.44658463  1.83849590
