35
opt_min/./Product_3906_opt.xyz
  C -3.26769997  1.46911909  0.88053696
  C -2.43179352  1.49692776 -0.35804820
  C -2.84200527  2.50069146 -1.39728890
  C -1.37237405  0.71858400 -0.56004612
  C -0.83155625 -0.30358981  0.40909905
  C  0.46826139 -0.98834334 -0.07105405
  C  0.52690920 -2.46937375  0.22033296
  C  1.18830360 -3.28986612 -0.84563870
  C  0.05495487 -2.98637705  1.34644137
  C  1.52767663 -0.20017993  0.77040602
  C  2.23142469  0.82371189 -0.13211080
  O  1.66027779  2.01436210 -0.00946837
  C  2.17906141  3.07112225 -0.80718350
  O  3.13256034  0.55208513 -0.87437478
  C  2.51379403 -1.04502122  1.40169349
  N  3.26974530 -1.70885559  1.94067114
  N  0.73425953  0.49186691  1.80261721
  N -0.45608105  0.40624663  1.61920413
  H -3.24452407  2.44981014  1.35417164
  H -2.90913000  0.73596197  1.59408787
  H -4.30316663  1.24626133  0.62329121
  H -3.90839785  2.70426707 -1.33303363
  H -2.31162012  3.43942193 -1.23477916
  H -2.60769517  2.15143823 -2.40003662
  H -0.81835400  0.80805275 -1.48545094
  H -1.60800907 -1.03207018  0.66218895
  H  0.64056776 -0.81841098 -1.13447025
  H  1.29042249 -4.32308231 -0.52808045
  H  2.17963111 -2.89161315 -1.06228513
  H  0.60213494 -3.25283967 -1.76468165
  H -0.38158374 -2.38789667  2.13208187
  H  0.11658152 -4.03747981  1.54803125
  H  1.66152967  3.09072600 -1.76845200
  H  1.99269860  3.99103716 -0.25787365
  H  3.24873402  2.93134267 -0.97617451
