39
opt_min/./Product_948_opt.xyz
  C -0.49249691  3.23161502  0.88609097
  O -0.92280609  1.94807943  0.46697899
  C -0.02190868  0.95384449  0.54220356
  C  1.25324818  0.90638293  0.93040898
  F  2.00497628  1.92613542  1.37382037
  C  1.83398698 -0.47989267  0.81507286
  C  3.06579297 -0.46016247 -0.16226227
  N  2.72244573 -0.77907729 -1.41374852
  C  3.68505327 -0.80513234 -2.48719855
  O  4.17381323 -0.16906820  0.21806625
  C  2.27180068 -0.97401264  2.11255407
  N  2.59115032 -1.38366899  3.12971318
  N  0.71884938 -1.22466450  0.28190067
  C  0.70344857 -2.66625240  0.33411415
  C -0.46845083 -0.43456369  0.12365233
  C -0.87088451 -0.41980457 -1.36553911
  O -0.18711490 -0.95596300 -2.20373659
  O -1.97219440  0.24985847 -1.61173842
  C -2.37472939  0.33511260 -2.97445626
  C -1.61438907 -0.87605917  1.06749123
  O -1.42723859 -1.59413386  2.01023706
  O -2.78031090 -0.35752938  0.73109518
  C -3.87669127 -0.66422168  1.58584883
  H  0.35205490  3.58167794  0.28712462
  H -1.34840703  3.88685095  0.73907384
  H -0.20504207  3.22534760  1.94036865
  H  1.75716011 -0.99996223 -1.63565520
  H  4.68141426 -0.74000861 -2.05228588
  H  3.53528079  0.04143439 -3.16154534
  H  3.58737634 -1.73172617 -3.05169587
  H  0.49022289 -3.04971947  1.33785104
  H -0.05561232 -3.03177503 -0.35576407
  H  1.67744199 -3.03601632  0.01095983
  H -2.48425350 -0.66449838 -3.40042317
  H -1.62996664  0.88500798 -3.55362410
  H -3.32559034  0.86060216 -2.97394175
  H -4.13238573 -1.72294765  1.50422839
  H -4.70282874 -0.04385237  1.24939311
  H -3.61896312 -0.44115194  2.62324767
