36
opt_min/./Product_3637_opt.xyz
  C  3.45761702  1.27118093 -0.73015102
  C  2.32580442  0.66059414  0.03852527
  C  2.55742298  0.53300544  1.51873677
  C  1.20224268  0.28986653 -0.56701678
  C  0.01875657 -0.33321515  0.09790139
  C -1.31771468  0.25528248 -0.39138269
  C -1.82761288  1.41867015  0.42220516
  C -2.24006507  1.11972762  1.83043309
  C -1.91679066  2.62684137 -0.11066016
  N -2.22824432 -0.88142106 -0.26844709
  C -3.35631153 -0.97905611 -0.91585773
  N -4.37510155 -1.02057748 -1.44770893
  O -1.54142893 -2.06059326  0.12133365
  C -0.17087056 -1.85459991 -0.19326972
  C  0.65371467 -2.72817713  0.73999027
  C  0.10796623 -2.20575837 -1.65715140
  H  3.25555806  1.29024593 -1.79740704
  H  3.62300875  2.29221670 -0.38520243
  H  4.37521751  0.71059929 -0.55451449
  H  2.57980416 -0.51210633  1.82255858
  H  1.77051301  1.03066067  2.08281515
  H  3.50738064  0.98620127  1.78935821
  H  1.10592685  0.44260270 -1.63294365
  H  0.08883739 -0.21140194  1.17994431
  H -1.23012806  0.56156277 -1.44344003
  H -2.89713289  0.25153092  1.84780917
  H -1.37589870  0.90808384  2.45905073
  H -2.76632020  1.96708620  2.26104225
  H -2.27662794  3.46607713  0.45840484
  H -1.62553677  2.82801678 -1.12710907
  H  0.44194101 -3.77548634  0.53963408
  H  0.39061864 -2.51846062  1.77279897
  H  1.71128344 -2.54143160  0.58352877
  H -0.09830457 -3.26032582 -1.82257566
  H -0.53530479 -1.62765851 -2.31847144
  H  1.14498528 -1.99964224 -1.90500379
