42
opt_min/./Product_4641_opt.xyz
  C -2.60077223 -0.95459857 -1.08163606
  C -1.31365421 -1.19812304 -0.30382727
  C -1.31535592 -2.62419836  0.25121845
  C -0.06407738 -0.88854203 -1.14655767
  C  0.32844855 -1.88051886 -2.19806118
  O -0.33770330 -2.78704569 -2.61379449
  C  1.05892644 -0.51903528 -0.14940059
  C  1.81047049  0.71889328 -0.71373993
  N  2.92065429  1.06844894 -0.03869064
  C  3.74748740  2.18486539 -0.42963758
  O  1.43825198  1.30645743 -1.70999991
  C  2.06750808 -1.66398065  0.06646143
  N  0.33809027 -0.28060366  1.10163118
  C  0.88088029  0.59957645  2.10695175
  C -1.09465615 -0.20207959  0.87864448
  C -1.79199015 -0.62737385  2.07851674
  N -2.31169709 -0.94472854  3.04519303
  C -1.63649972  1.19910066  0.52751416
  O -2.76699366  1.55698262  0.72094347
  O -0.68785581  1.95910486 -0.01130008
  C -1.06699901  3.26544304 -0.42171629
  H -2.59580149  0.01112132 -1.58359482
  H -3.45898791 -0.98501867 -0.41373398
  H -2.71183627 -1.73085262 -1.83481956
  H -2.24817276 -2.81153160  0.77858337
  H -1.23099072 -3.33982081 -0.56146114
  H -0.49560406 -2.77415409  0.94941441
  H -0.25333167  0.02795422 -1.73124185
  H  1.32526937 -1.66080099 -2.62657770
  H  3.21174803  0.53669317  0.76365373
  H  3.78675733  2.93202636  0.36534732
  H  4.76077302  1.85060166 -0.65739518
  H  3.30463083  2.62747191 -1.32009911
  H  1.56355463 -2.62518526  0.02502757
  H  2.84422219 -1.64759190 -0.69454228
  H  2.53196429 -1.57954060  1.04669825
  H  1.83195674  0.20306091  2.46495528
  H  1.02533305  1.63290994  1.76501791
  H  0.19376303  0.60903692  2.95337703
  H -1.63398976  3.75953130  0.36938142
  H -0.14183562  3.79429251 -0.63504472
  H -1.68156960  3.20959934 -1.32184280
