50
opt_min/./Product_5191_opt.xyz
  C  6.45332400  0.05619300  0.21168500
  C  4.97414506 -0.08186150  0.39666567
  C  4.54838214 -1.21580487  1.28647232
  C  4.12032354  0.74953617 -0.20801595
  C  2.68053291  0.69258154 -0.11887605
  C  1.88824681  1.56698715 -0.73852304
  C  0.38946400  1.57710403 -0.74564223
  C -0.11371181  2.96547484 -1.14995148
  C -0.29188360  1.14254587  0.55742351
  C -1.61656302  0.51014495  0.09557198
  C -2.81837536  1.44004379  0.32927819
  C -3.96592764  1.24861574 -0.62144915
  O -2.83942660  2.22294303  1.24462034
  C -1.97004152 -0.73613443  0.89124059
  C -2.26637666 -1.92902234  0.24927086
  C -2.58956297 -3.05454390  0.98724204
  C -2.63139892 -2.99173516  2.36875119
  C -2.34835031 -1.79813785  3.01239653
  C -2.01993370 -0.67285295  2.27931242
  O -1.48718817  0.22820476 -1.29529636
  C -0.16627773  0.48938978 -1.70998232
  C -0.08798016  0.86190492 -3.18206574
  C -1.38203751  0.77533533 -3.93543746
  O  0.95814151  1.17544310 -3.69256474
  H  6.86817558 -0.86018010 -0.20846591
  H  6.69456554  0.88357259 -0.45141516
  H  6.94045953  0.22635401  1.17245256
  H  4.06771011 -2.00038864  0.70187807
  H  3.84653506 -0.87936781  2.04686618
  H  5.41172707 -1.64816443  1.78548002
  H  4.51522777  1.53950831 -0.83241131
  H  2.26785227 -0.10630870  0.47939327
  H  2.33795323  2.33722551 -1.35031784
  H  0.23874611  3.70622784 -0.43517930
  H  0.25046498  3.23254543 -2.13885086
  H -1.20175592  3.00050714 -1.15477200
  H -0.48353397  1.98553082  1.22022821
  H  0.30614806  0.40175086  1.08801347
  H -4.90404938  1.31430360 -0.07614152
  H -3.88365512  0.30145633 -1.14343912
  H -3.94846472  2.06127922 -1.34691662
  H -2.22926691 -1.96914634 -0.82873261
  H -2.81259843 -3.98097978  0.47915891
  H -2.88688931 -3.87022555  2.94314815
  H -2.38547791 -1.74117068  4.09050096
  H -1.81048255  0.26057278  2.77995852
  H  0.44777221 -0.42216418 -1.58931559
  H -2.16128642  1.30161056 -3.39184800
  H -1.26394557  1.17974142 -4.93743680
  H -1.67349705 -0.27157448 -3.99954761
