47
opt_min/./Product_1258_opt.xyz
  C -3.12672510  0.42084881  2.49855889
  O -2.29345839 -0.12983980  1.48397647
  C -1.67825800  0.70842071  0.66463971
  O -1.81908774  1.90544146  0.70893520
  C -0.74091674  0.03300585 -0.33187645
  C  0.45067569 -0.69972810  0.36158817
  C  0.19108277 -1.01466982  1.74347152
  N  0.01059080 -1.25369116  2.84834504
  C  0.55744415 -2.02124251 -0.45358416
  C -0.53739611 -2.97494150  0.04031869
  C -1.82990775 -2.26177645 -0.41615439
  C -1.31778233 -1.06946024 -1.24171539
  C -0.02810001 -1.66800249 -1.81959437
  C  1.64386431  0.33155039  0.28049554
  C  2.94517744 -0.33508271 -0.19810291
  C  3.61838732  0.32831222 -1.35741154
  O  3.39690190 -1.30795822  0.35484094
  C  1.92610913  0.98686340  1.67349121
  C  2.66295651  0.22518271  2.72505132
  O  1.58391470  2.13413665  1.82573163
  N  1.24132882  1.38507777 -0.63041067
  C -0.07880627  1.15475614 -1.17364329
  C -0.98969126  2.37527347 -1.37891539
  C -0.44537849  3.72008803 -0.98336016
  O -2.01575132  2.22814165 -1.99761472
  H -3.41909850  1.43754671  2.23284651
  H -3.99841315 -0.22539591  2.57948046
  H -2.57161721  0.42258675  3.43740069
  H  1.55744736 -2.44548394 -0.45396647
  H -0.42176995 -3.93405621 -0.46679380
  H -0.51401189 -3.16462707  1.11113852
  H -2.44843750 -2.90944227 -1.03717144
  H -2.42787194 -1.94341186  0.43176275
  H -2.04158976 -0.66882130 -1.94892473
  H -0.23575026 -2.56648915 -2.39980612
  H  0.58819333 -1.01439682 -2.42946792
  H  4.32464275 -0.35922605 -1.81504659
  H  4.16365787  1.19282065 -0.97938174
  H  2.88858356  0.68994386 -2.07394796
  H  3.09905296 -0.69692313  2.35663162
  H  1.97510690 -0.01205339  3.53542488
  H  3.43386813  0.87604781  3.13594099
  H  1.30426193  2.27407226 -0.13776486
  H  0.05064532  0.79045468 -2.20449607
  H  0.46750209  3.91517119 -1.54496582
  H -1.18495911  4.48164862 -1.21286220
  H -0.22348689  3.74426621  0.08048317
