32
opt_min/./Product_1558_opt.xyz
  C -0.31562041  2.72028904 -0.97741486
  C -0.00633484  1.27229680 -0.88332517
  O  0.60705904  0.64622759 -1.71411129
  C -0.51305972  0.46539894  0.32279603
 Br -1.27459022  1.60543929  1.72842885
  C -1.49088170 -0.67382264 -0.06606792
 Br -1.87819874 -0.76766952 -2.01632971
  C -2.85603779 -0.59019427  0.64722080
  C -3.84779141  0.39805017  0.12006166
  O -3.08595302 -1.33649484  1.56140651
  C -0.70834991 -1.95468436  0.35037906
  C -1.04088421 -3.14094871 -0.40907275
  N -1.28084766 -4.09116143 -0.99259048
  N  0.70338353 -1.61984897  0.30473552
  C  0.71672856 -0.30284022  0.90582373
  C  2.00941817  0.49563580  0.72208663
  N  3.09993890 -0.26382537  0.59470706
  C  4.42180275  0.29013034  0.43129807
  O  1.99618221  1.70846843  0.73969183
  H  0.02334509  3.09254000 -1.94026958
  H  0.21510004  3.24002602 -0.18067534
  H -1.38150895  2.90792551 -0.85787233
  H -3.39490214  1.16143466 -0.50624873
  H -4.37362223  0.85234281  0.95708449
  H -4.58204714 -0.15057038 -0.47109328
  H -0.98911594 -2.17209425  1.39700402
  H  1.00206766 -1.55908107 -0.67136991
  H  0.56856263 -0.43246310  1.98812287
  H  2.99133835 -1.26652857  0.57050439
  H  5.06416697 -0.00850038  1.26138061
  H  4.86179703 -0.05146847 -0.50752081
  H  4.32877838  1.37501859  0.41521487
