34
opt_min/./Product_4156_opt.xyz
  C  0.19238333  1.35014313 -1.08885024
  C  1.65976602  1.58076048 -0.88854469
  C  2.39618235  0.70120162 -0.21272501
  N  1.87818198 -0.41591097  0.39374830
  C  2.72378031 -1.42134258  0.97649933
  C  0.47836711 -0.63903925  0.42463897
  C -0.38084606  0.59983985  0.12097376
  C -0.43491224  1.49021334  1.37125593
  N -1.06987534  2.66679557  1.20506133
  O  0.03119517  1.14584064  2.43121008
  C -1.77560211 -0.02798932 -0.18556914
  C -2.66091559 -0.20678091  1.06227511
  C -2.50861227  0.81144524 -1.12123703
  N -3.09996410  1.49083813 -1.82348469
  N -1.47290689 -1.30681848 -0.83757563
  C -0.07947279 -1.68774712 -0.61979790
  C  0.67719131 -1.62706682 -1.86612664
  N  1.29817589 -1.61639704 -2.82354145
  C  0.04092224 -3.03919709 -0.11279076
  N  0.10055286 -4.09753651  0.31349857
  H -0.32658629  2.29610524 -1.25216587
  H  0.02825678  0.75258693 -1.99446501
  H  2.10544746  2.45682113 -1.32088387
  H  3.45614308  0.83255000 -0.07384478
  H  3.71615851 -1.01105818  1.14373979
  H  2.31654490 -1.74813159  1.93628849
  H  2.81522719 -2.29635739  0.32226494
  H  0.21084353 -1.01022877  1.42488415
  H -1.11735335  3.29474986  1.99010065
  H -1.45053203  2.97581150  0.32883567
  H -2.09247625 -0.64492756  1.87876722
  H -3.50119015 -0.85782250  0.82364721
  H -3.06151432  0.74745358  1.39335263
  H -2.12671884 -2.03588886 -0.57890884
