64
opt_min/./Product_5958_opt.xyz
  C  0.69383400  1.78772500  1.07785000
  C -0.31903136  2.84101694  1.39473196
  C -1.49898084  2.90465490  0.78538730
  N -1.84179129  2.08152907 -0.27101404
  C -3.18704779  2.16916884 -0.78854574
  C -1.05381176  0.92577344 -0.54650520
  C  0.46336409  1.12031363 -0.29655602
  C  1.13260330  2.01495404 -1.33455552
  N  0.46212503  3.16418458 -1.58410755
  O  2.21727205  1.79641061 -1.82948314
  C  1.00186173 -0.33948751 -0.26821204
  C  2.24048446 -0.47551692  0.61969537
  C  3.48208460 -0.05213770  0.16039412
  C  4.60352289 -0.18542198  0.96049763
  C  4.50194699 -0.74663894  2.22090105
  C  3.26963750 -1.17571377  2.68168602
  C  2.14582474 -1.04261346  1.88494763
  C  1.29973381 -0.98712177 -1.61621828
  C  1.99587739 -2.19758150 -1.58709332
  C  2.22192709 -2.93117088 -2.73499221
  C  1.74808175 -2.47376975 -3.95428678
  C  1.05007090 -1.28267226 -4.00066668
  C  0.82213905 -0.55203080 -2.84524635
  N -0.10963433 -1.05100178  0.35995497
  C -1.38739235 -0.39300326  0.25289802
  C -1.89366001 -0.05258110  1.65593550
  O -1.16970396 -0.65586442  2.59486326
  C -1.51372550 -0.40304017  3.94789829
  O -2.84111700  0.65357944  1.89829941
  C -2.43032119 -1.21185377 -0.49763212
  C -3.79162692 -1.12722570 -0.22230752
  C -4.70884463 -1.86614231 -0.94762077
  C -4.28736446 -2.70015039 -1.96913923
  C -2.93664165 -2.78688741 -2.25636231
  C -2.01892764 -2.05194070 -1.52855171
  H  0.66268625  1.02165075  1.85761833
  H  1.70008918  2.21481666  1.09670868
  H -0.07670353  3.52848242  2.18740690
  H -2.24170215  3.64407614  1.03619309
  H -3.92713304  1.93450614 -0.01981786
  H -3.31358053  1.46857552 -1.61199553
  H -3.37546524  3.18028382 -1.15879767
  H -1.21929508  0.67737305 -1.60317249
  H  0.83568266  3.77983546 -2.28936943
  H -0.52538081  3.23091830 -1.39712128
  H  3.56401674  0.38589397 -0.82107220
  H  5.56280126  0.14944632  0.59468830
  H  5.38033644 -0.85217604  2.84221325
  H  3.18124590 -1.61771955  3.66366715
  H  1.18459956 -1.37721793  2.24438945
  H  2.36853262 -2.56928127 -0.64384107
  H  2.76893489 -3.85968049 -2.67696141
  H  1.92209992 -3.03992238 -4.85682196
  H  0.67363366 -0.91488885 -4.94336317
  H  0.27976969  0.37764836 -2.93461438
  H -0.10838898 -2.04952160  0.22574268
  H -2.07760740  0.52821919  4.02775134
  H -2.11530172 -1.22885891  4.33136147
  H -0.58342110 -0.33326686  4.50935186
  H -4.14581178 -0.48229207  0.56525459
  H -5.75941296 -1.78621234 -0.71206915
  H -5.00359066 -3.27378212 -2.53730834
  H -2.58870945 -3.42804834 -3.05307768
  H -0.97284443 -2.12807518 -1.78504300
