48
opt_min/./Product_1162_opt.xyz
  C  0.25646101 -0.10935781  2.90563300
  O -0.19655216  0.67745345  1.82816780
  C -0.38319508  0.07266755  0.56250482
  C -1.45753736  0.92432622 -0.21873575
  O -1.59012203  2.15996950  0.44826793
  C -2.80267846  2.86610652  0.33436501
  C -2.71664004  0.01802977 -0.17993921
  C -2.63768129 -1.13680814 -1.17938283
  C -1.39554694 -1.89770419 -0.69271589
  C -1.10418741 -1.28071150  0.68641240
  C -2.48200130 -0.76084771  1.11964137
  C -0.83485609  1.15443994 -1.62818149
  C -0.79775759  2.57166603 -1.94929012
  N -0.80225593  3.65235608 -2.31928991
  N  0.46474593  0.48667771 -1.65304520
  C  1.45062190  1.07960439 -2.53542402
  C  0.92263895  0.21256372 -0.29012638
  C  1.64253699  1.37300372  0.23592338
  N  2.23589232  2.30466374  0.52726824
  C  1.88387321 -0.96997416 -0.26855098
  C  1.92822949 -1.89541875 -1.30444921
  C  2.80275811 -2.96642436 -1.25429890
  C  3.65833845 -3.12220992 -0.17820302
  C  3.65706041 -2.17747668  0.83304958
  C  2.78448726 -1.10474023  0.78296662
  H  0.73448843  0.58756832  3.59488084
  H  0.97973830 -0.87043567  2.60668996
  H -0.57833899 -0.59994734  3.42197766
  H -3.56704191  2.46942111  1.01389281
  H -2.57103273  3.89037784  0.62668500
  H -3.18878001  2.87415168 -0.69073071
  H -3.64602922  0.57809105 -0.24722271
  H -2.58915964 -0.84899433 -2.22700733
  H -3.53630825 -1.74736436 -1.06171281
  H -1.58127512 -2.96907454 -0.60519189
  H -0.55935339 -1.75399286 -1.36616604
  H -0.60865703 -1.97366385  1.36440455
  H -3.20981330 -1.55471045  1.27661465
  H -2.43781188 -0.11518716  1.99383378
  H -1.43751215  0.70345365 -2.43052003
  H  2.34493677  0.45710403 -2.53233919
  H  1.73303751  2.10184903 -2.25850815
  H  1.03795048  1.09393931 -3.54615837
  H  1.29882352 -1.76661544 -2.17044189
  H  2.81813116 -3.67841827 -2.06638440
  H  4.33684618 -3.96181553 -0.13796110
  H  4.34449204 -2.26732008  1.66086513
  H  2.82382509 -0.35216764  1.55707839
