34
opt_min/./Product_1365_opt.xyz
  F -2.82357100  0.14610800  1.50812700
  C -1.75641439 -0.67810254  1.58868467
  F -2.25048600 -1.91965647  1.51896587
  F -1.26657239 -0.55120716  2.81277933
  C -0.79996181 -0.32913307  0.45668885
  C  0.47394300 -1.17980883  0.19483132
 Cl  0.76852778 -2.52521096  1.29250057
  C  0.24284495 -1.62902769 -1.28373897
  C -0.88516940 -2.63409074 -1.22933772
  C -1.97814635 -1.91160603 -1.02960616
  C -1.49844318 -0.47597925 -0.94921353
  O -0.39184244 -0.48856372 -1.82381931
  C  1.59442527 -0.09423525  0.28035232
  C  2.91515770 -0.42235254 -0.40098814
  C  3.46367862  0.71210498 -1.20135696
  O  3.41098963 -1.50636360 -0.27919754
  C  1.62567277  0.22594763  1.80869552
  O  2.41635714 -0.07710921  2.63146371
  O  0.52203535  0.97064150  1.98198986
  C -0.11646215  1.07059015  0.70682578
  C -0.94058095  2.38813998  0.65144080
  C -1.32997864  2.81250488 -0.72814704
  O -1.16939887  2.98811711  1.65676167
  O  0.94691294  1.07391197 -0.19121806
  H  1.14452911 -1.89716015 -1.82320047
  H -0.76304350 -3.69337701 -1.31040682
  H -2.99723722 -2.21728273 -0.90708613
  H -2.20975282  0.29962069 -1.20669136
  H  2.74095928  0.97003252 -1.97510444
  H  3.58279014  1.58690106 -0.56510334
  H  4.41290120  0.42380827 -1.64607000
  H -1.31658642  3.90119807 -0.76725167
  H -0.66887352  2.38041747 -1.47349078
  H -2.35279495  2.48584292 -0.91545724
