35
opt_min/./Product_1041_opt.xyz
  C -2.70406902  0.19876317  2.30179896
  O -1.94017201  0.00495747  1.11692296
  C -0.72391469 -0.47761173  1.22660285
  O -0.16620330 -0.78336954  2.25016631
  C -0.03063894 -0.52728099 -0.13534138
  C -0.77360145 -1.28795623 -1.26788042
 Cl -2.29102702 -2.07687460 -0.80207397
  C  0.30124821 -2.33998539 -1.66693908
  C  0.34983036 -3.32029981 -0.50879993
  C  0.98366245 -2.67794058  0.46083247
  C  1.31323642 -1.31373883 -0.11565950
  O  1.49242071 -1.59829412 -1.49313554
  C -1.01030256 -0.18554667 -2.33231442
  C -2.24538446 -0.33646261 -3.07618720
  N -3.19821029 -0.46557678 -3.68916104
  O -0.98833668  1.03809682 -1.63047396
  C  0.07493624  0.92260387 -0.71424279
  C -0.05110607  2.00783022  0.40014634
  N  1.05241679  2.06993879  1.16706581
  C  1.13728013  2.94889180  2.31106447
  O -1.03644942  2.67905159  0.54922994
  C  1.33929366  1.13585844 -1.40840047
  N  2.31049101  1.36708261 -1.96483662
  H -3.26383948  1.11989318  2.15311061
  H -2.04432645  0.27446696  3.16709817
  H -3.38428067 -0.64490923  2.42797088
  H  0.21371827 -2.74105999 -2.67227202
  H -0.08870935 -4.29641349 -0.52469880
  H  1.20729981 -2.97746772  1.46326289
  H  2.17105007 -0.79474162  0.30106618
  H -0.16732431 -0.22095308 -3.05307340
  H  1.85385372  1.49319384  0.96530408
  H  1.05272223  2.37856548  3.23877693
  H  2.08533467  3.48375723  2.30053521
  H  0.31315298  3.65784992  2.24938750
