45
opt_min/./Product_5720_opt.xyz
  O -2.72988900 -1.98798200 -1.65527800
  C -2.05281807 -1.25124784 -2.20974231
  O -1.38767004 -0.52710320 -2.79105203
  C -0.19090160 -1.50574698  0.57985279
  C  1.06056433 -1.58031036  0.15614790
  C  1.40577870 -4.03431392  2.19457334
  O  2.20654825 -4.35586658  1.44262344
  O  0.60616717 -3.74200606  2.95491665
  C  1.77359374 -0.29960173  0.48583211
  C  2.47917754  0.34219653 -0.72688675
  N  2.33858838  1.67054872 -0.75861962
  C  2.91013999  2.49656536 -1.79104873
  O  3.10196584 -0.31668325 -1.53397550
  C  2.80405224 -0.62788020  1.59268802
  C  4.00378614 -1.41317440  1.14938722
  O  2.60066724 -0.29520260  2.72878871
  O  0.76189303  0.57077915  0.97287978
  C -0.45120341 -0.14814462  1.17773443
  C -0.72082169 -0.17878575  2.69978607
  O -0.69409154  0.79439248  3.39527340
  O -0.99937527 -1.41062193  3.11527073
  C -1.23003514 -1.57615643  4.51105086
  C -1.63591286  0.52537854  0.51059404
  C -1.46330807  1.54008279 -0.41749435
  C -2.56135245  2.11726521 -1.03118253
  C -3.83854885  1.68033737 -0.72587315
  C -4.01464254  0.66396334  0.19849695
  C -2.91983478  0.08682976  0.81535025
  H -0.96131877 -2.24636454  0.48913702
  H  1.55800864 -2.39697278 -0.32937156
  H  1.80717439  2.10210990 -0.01560657
  H  3.36286448  1.83799924 -2.53036546
  H  2.13769029  3.10063713 -2.26812072
  H  3.67453865  3.15703664 -1.37807112
  H  4.90011857 -0.91260669  1.51191610
  H  4.05164867 -1.51719603  0.07038213
  H  3.97601741 -2.39715102  1.61353654
  H -2.27044882 -1.34298405  4.74562094
  H -1.00992472 -2.61653195  4.73395962
  H -0.57573575 -0.91150535  5.07714020
  H -0.46625274  1.87385763 -0.65622548
  H -2.41775084  2.90859267 -1.75130457
  H -4.69439860  2.13163197 -1.20501882
  H -5.00870244  0.31900069  0.44126650
  H -3.06057306 -0.70869518  1.53189001
