38
opt_min/./Product_4402_opt.xyz
  C -2.00612200  0.22674800  0.54567400
  C -2.14655377 -1.14265624  1.12243898
  C -1.07991755 -1.93953953  1.19209331
  N  0.12365692 -1.63408027  0.61434328
  C  1.25147460 -2.50278627  0.82354830
  C  0.28261563 -0.58331904 -0.34684672
  C -0.99022362  0.27767757 -0.61119438
  C -1.64024936 -0.13315395 -1.92626472
  N -2.27876180 -1.31618141 -1.87244318
  O -1.59745421  0.54387285 -2.93287648
  C -0.39690577  1.71619705 -0.69166852
  C -1.39576633  2.83649886 -0.41828938
  C -1.99718084  3.45794913 -1.64966527
  O -1.67417009  3.19633226  0.69401981
  O  0.63953837  1.70278547  0.26447059
  C  1.34906686  0.53933309 -0.04004874
  C  2.44721785  0.27790098  0.97185708
  O  3.47595717 -0.33122888  0.35934113
  C  4.61282919 -0.62413363  1.16257717
  O  2.44574424  0.60042270  2.12437365
  H -1.65096845  0.90615190  1.32689101
  H -2.96914903  0.60610445  0.19711327
  H -3.09056677 -1.43155669  1.55166606
  H -1.12192077 -2.90503629  1.67244267
  H  0.90201169 -3.47846888  1.16008246
  H  1.92087898 -2.10348590  1.59032505
  H  1.81357360 -2.62958494 -0.10526841
  H  0.61330515 -1.06186875 -1.28537824
  H -2.30123589 -1.86045879 -1.02379340
  H -2.69777889 -1.67736538 -2.71296754
  H  0.02678349  1.86413058 -1.70047190
  H -1.84985662  2.84207312 -2.53095441
  H -1.53593745  4.43206955 -1.79774402
  H -3.05837788  3.62154657 -1.47902493
  H  1.87188378  0.70104427 -1.00318406
  H  5.46838774 -0.65599220  0.49258006
  H  4.48573301 -1.59081441  1.65470496
  H  4.74584643  0.14963998  1.92046968
