50
opt_min/./Product_1803_opt.xyz
  C  1.89109600  1.93405800  2.52458900
  O  1.08676290  1.48192737  1.45878321
  C  1.44194335  0.26920173  0.78351739
  C  2.08044862 -0.76162839  1.72421347
  C  0.11874623 -0.28107749  0.29774630
  C -0.30608976 -1.44205682 -0.22801808
  C  0.36953381 -2.65266898 -0.81360772
  F  0.42138899 -3.62745648  0.16122821
  F -0.46050027 -3.18376900 -1.76547307
  C  1.75370349 -2.55085301 -1.45788292
  C  2.10465619 -1.18736548 -2.04286327
  C  3.05623902 -0.40372978 -1.13720803
  C  2.37234676  0.71270931 -0.37098646
  C -1.83972085 -1.39925485 -0.16320074
  C -2.68223341 -2.32684126 -1.03672421
  C -2.86399558 -3.71670191 -0.50953743
  O -3.22042460 -1.90798022 -2.02719124
  C -2.06806669 -1.49516266  1.38674781
  O -2.50387323 -2.40614943  2.01855606
  O -1.66357500 -0.32714147  1.87183900
  C -1.17605028  0.42489991  0.71628848
  C -1.15638777  1.92303514  1.00973346
  O -0.85796449  2.56833381 -0.11634380
  C -0.81235884  3.99093745 -0.04717201
  O -1.46108585  2.42780993  2.05041283
  N -2.03813449  0.04127267 -0.36387868
  C -3.39847020  0.54899533 -0.30390596
  H  2.95769432  1.83341640  2.30463988
  H  1.66308547  1.40575803  3.45560092
  H  1.64240482  2.98789295  2.64692577
  H  1.96264329 -1.76403234  1.32821960
  H  3.14007393 -0.55712591  1.86727188
  H  1.57823464 -0.72507619  2.68788413
  H  2.50252941 -2.88392829 -0.73704824
  H  1.73475462 -3.30176752 -2.25471189
  H  2.57712178 -1.33635058 -3.01725324
  H  1.18991890 -0.62109987 -2.23263453
  H  3.86166035  0.02767529 -1.73671854
  H  3.53508485 -1.08246433 -0.42977231
  H  3.14056059  1.34960336  0.07944597
  H  1.77880970  1.34123349 -1.03878967
  H -3.80217060 -3.73970759  0.04714319
  H -2.94799244 -4.40531548 -1.34776906
  H -2.06884079 -4.02159845  0.15947917
  H -1.70027406  4.40209446 -0.53053278
  H -0.77489850  4.31025922  0.99510031
  H  0.08382728  4.31030288 -0.57661714
  H -4.03292310 -0.07516815 -0.92813818
  H -3.79975777  0.58420618  0.71512608
  H -3.39308312  1.55579664 -0.72263799
