46
opt_min/./Product_4284_opt.xyz
  C  3.30324500  1.26040100  0.22185100
  C  2.22641477  1.16826842  1.26511196
  C  2.63246528  1.75404898  2.58545230
  C  1.02400178  0.63114967  1.10532169
  C  0.45940677  0.02269265 -0.13164440
  C -0.37806378 -1.22948277  0.12520532
  C  0.34569201 -2.44407459  0.62893063
  C -0.51792087 -3.50405468  1.25716257
  C  1.65687624 -2.60813677  0.54564267
  C -1.11453103 -1.39293772 -1.23056018
  C -0.29018634 -2.17510557 -2.26142606
  C -2.49917638 -2.02587456 -1.08325349
  O -1.28451701 -0.04899570 -1.71174158
  C -0.56296623  0.88365201 -0.90558514
  C -1.54242267  1.62309717  0.02852647
  N -2.82881276  1.49818015 -0.35611422
  C -3.92701279  2.13557167  0.31126293
  O -1.19901419  2.25316376  1.00907340
  C  0.09116110  1.94272013 -1.80051679
  H  3.55006512  2.30712737  0.03916603
  H  4.20523763  0.76823346  0.59119934
  H  3.01962582  0.80220663 -0.71869122
  H  1.85342263  1.62335784  3.33240555
  H  3.55401153  1.29378286  2.94455521
  H  2.81753615  2.82476113  2.47709433
  H  0.35306865  0.61325157  1.95478339
  H  1.25408853 -0.21604009 -0.84667921
  H -1.14223148 -0.96267830  0.87281464
  H  0.03431649 -4.04907732  2.02057031
  H -0.84064917 -4.22989727  0.50655825
  H -1.40880849 -3.07440989  1.70990767
  H  2.12582073 -3.49915968  0.93113742
  H  2.31756492 -1.87898052  0.11526437
  H  0.49084207 -1.54055911 -2.67520186
  H  0.16847378 -3.04791775 -1.80401148
  H -0.92952415 -2.49362936 -3.08237488
  H -3.02896110 -1.96005178 -2.02998766
  H -2.41124529 -3.07036828 -0.79760411
  H -3.07788243 -1.50065447 -0.32355108
  H -2.97582524  0.95297122 -1.19561005
  H -3.51584565  2.68563028  1.15743424
  H -4.44063441  2.83068017 -0.35671166
  H -4.64867377  1.39450804  0.66855125
  H  1.03192910  2.27008904 -1.37001577
  H -0.55516971  2.81040206 -1.91634057
  H  0.27777545  1.51353935 -2.78450648
