51
opt_min/./Product_1552_opt.xyz
  C  5.15063000  1.00458600 -0.37243000
  N  3.85775788  0.40408647 -0.59767402
  C  2.72438898  0.98191744 -0.14000424
  O  2.74027941  2.01849663  0.49729288
  C  1.45257795  0.29718250 -0.46889812
  C  0.30387459  0.64133461  0.12071074
  C  0.15358862  1.65542204  1.19287320
  O -0.45000662  2.68895067  1.06273229
  O  0.74754617  1.24500498  2.31457863
  C  0.76191190  2.14545224  3.41327863
  C -0.87671650 -0.07312937 -0.50962576
  C -1.86970338  0.93746418 -1.06214807
  C -1.38620061  1.96851170 -1.86160682
  C -2.25006893  2.89343631 -2.41495658
  C -3.61195055  2.79601790 -2.18355828
  C -4.10052769  1.76660049 -1.39970429
  C -3.23558306  0.84077499 -0.84103427
  C -1.51150749 -1.01026667  0.50571942
  C -1.67758227 -2.35674606  0.21591741
  C -2.24994303 -3.20840402  1.14485419
  C -2.66539944 -2.72272535  2.37208782
  C -2.51893545 -1.37591960  2.66026872
  C -1.94876961 -0.52383555  1.73212759
  N -0.25940255 -0.83247872 -1.60145635
  C  1.20098861 -0.75665252 -1.53812751
  C  1.70365812 -2.13490933 -1.07065594
  C  1.79463706 -0.38056317 -2.90071177
  H  5.92079779  0.23651030 -0.38657273
  H  5.13838543  1.49931588  0.59828019
  H  5.37423354  1.75587682 -1.13531023
  H  3.81421692 -0.44011263 -1.14014489
  H  1.80163129  2.32254421  3.68634842
  H  0.28393821  3.08466114  3.12877234
  H  0.22655932  1.68490723  4.24483646
  H -0.32315742  2.05680419 -2.03422332
  H -1.85905003  3.69581355 -3.02280831
  H -4.28876699  3.52120394 -2.61084082
  H -5.16177138  1.68125171 -1.21693757
  H -3.62967678  0.03887634 -0.23520216
  H -1.35184248 -2.72666093 -0.74351384
  H -2.37299053 -4.25513879  0.90708973
  H -3.10878997 -3.38728203  3.09900245
  H -2.85187002 -0.98674412  3.61132706
  H -1.86569739  0.52967071  1.95339263
  H -0.63128937 -0.55890742 -2.50133340
  H  1.16385423 -2.42106685 -0.17205748
  H  2.76728130 -2.13849655 -0.84735016
  H  1.50367377 -2.87122225 -1.84527275
  H  2.81903818 -0.72883651 -3.00736598
  H  1.77949145  0.69817005 -3.04294515
  H  1.20881484 -0.84280882 -3.69333131
