50
opt_min/./Product_1688_opt.xyz
  C -2.07692472  0.61003201  2.13678533
  C -1.43085057 -0.51071884  1.28971634
  C -0.99021474 -1.44603756  2.30941927
  N -0.67805532 -2.10050302  3.19477411
  C -0.24970761 -0.06726087  0.47815088
  C  0.76477725 -0.81121721 -0.01987309
  C  1.03833948 -2.29239313 -0.12793360
  F  1.18023079 -2.54614819 -1.48164911
  F  2.29421903 -2.53872406  0.37724142
  C  0.15276831 -3.39505306  0.44540649
  C -1.35222546 -3.41926099  0.12280992
  C -1.93979741 -2.19815552 -0.60066248
  C -2.49455162 -1.16370399  0.37859760
  N  1.64502543 -0.02997651 -0.74575381
  C  2.99909191 -0.28070048 -1.07084593
  C  3.29669662 -0.63508613 -2.38119722
  C  4.61181203 -0.87629554 -2.73510004
  C  5.61876426 -0.74347634 -1.79325688
  C  5.31800632 -0.37015283 -0.49574335
  C  4.00500933 -0.13662587 -0.12621706
  O  1.37849684  1.32887256 -0.38656063
  C -0.01158397  1.34099113 -0.11283647
  C -0.37063882  2.59972526  0.61958122
  C -1.62797881  3.16663270  0.43325119
  C -1.96242059  4.34179045  1.07699958
  C -1.03741912  4.97331404  1.89347597
  C  0.22477358  4.43140581  2.05282247
  C  0.56106873  3.24840772  1.41594079
  H -1.32917603  1.33370874  2.44481601
  H -2.85576908  1.12074245  1.57825356
  H -2.52472199  0.18119180  3.03258610
  H  0.61768536 -4.30181542  0.04501167
  H  0.31499518 -3.40130875  1.52141391
  H -1.51920065 -4.28749274 -0.51659576
  H -1.91376421 -3.57238926  1.04519688
  H -2.76550072 -2.54204415 -1.22839540
  H -1.20183766 -1.74399314 -1.26092077
  H -2.97444383 -0.36514897 -0.19456566
  H -3.25605545 -1.63651044  1.00379322
  H  2.49735187 -0.74024997 -3.09734716
  H  4.84725092 -1.16618061 -3.74824526
  H  6.64454882 -0.93163681 -2.07608032
  H  6.10848389 -0.26644552  0.23269720
  H  3.75817641  0.14510399  0.88598417
  H -0.54357313  1.36733929 -1.09369002
  H -2.33334122  2.69414883 -0.23507726
  H -2.94259175  4.77339928  0.93459950
  H -1.29833726  5.89588181  2.39060605
  H  0.95503031  4.92877315  2.67405093
  H  1.54192633  2.81452640  1.53168784
