43
opt_min/./Product_5303_opt.xyz
  C  0.54072657 -0.45111456  1.44186822
  O  0.50461795 -0.94954521  2.55146391
  C  1.70157768  0.25008254  0.91610895
  O  2.72061683  0.68207080  1.69042441
  C  2.70441645  0.52842455  3.09604558
  C  1.84365517  0.51266285 -0.43167524
  O  2.93569766  1.22238185 -0.76312172
  C  3.26534819  1.50714295 -2.11035876
  C  0.87786706  0.02433487 -1.41357910
  O  0.87610115  0.37190860 -2.57542567
  C -0.15912651 -0.99168104 -0.91399322
  C  0.43973249 -2.39269442 -1.03860303
  C -0.66118645 -0.59105354  0.49394564
  C -1.65328430 -1.58023999  1.11894883
  N -1.35940571  0.64611847  0.14675827
  C -1.42901239  1.87179186  0.73480612
  C -0.86076226  1.97790044  2.13122081
  O -1.96872138  2.80167050  0.17806060
  N -1.95295298  0.49831285 -1.14636852
  C -3.38643749  0.72312624 -1.21912066
  C -1.44069477 -0.72497788 -1.74416099
  C -1.24752370 -0.54307790 -3.18589332
  N -1.27155269 -0.47967268 -4.32556308
  C -2.35132306 -1.87353440 -1.70240141
  N -3.05596571 -2.77290624 -1.72288052
  H  3.60052288  1.04561875  3.44140150
  H  1.81955121  0.98564185  3.54535102
  H  2.74778203 -0.52371285  3.38586401
  H  4.22562949  2.01996711 -2.05522282
  H  3.36380212  0.59599882 -2.70513380
  H  2.52054703  2.15589385 -2.57646842
  H  0.95430105 -2.65791115 -0.11451633
  H  1.15694513 -2.42463479 -1.85832830
  H -0.33253026 -3.13651858 -1.23719907
  H -1.31669515 -2.60741810  0.99775883
  H -2.64386132 -1.48197532  0.67959701
  H -1.73276331 -1.37751061  2.18628191
  H -1.10503422  1.10890964  2.73757613
  H -1.28237739  2.87190267  2.58870152
  H  0.22034317  2.09986558  2.08280001
  H -3.94091826 -0.19402162 -1.44314112
  H -3.57785620  1.46268408 -1.99882130
  H -3.74298898  1.12728950 -0.27270686
