23
opt_min/./Product_3266_opt.xyz
  C -1.86680678 -0.93062878 -1.02243157
  C -1.20860754 -0.13963793  0.10755598
  C  0.13682047 -0.71825045  0.59088388
  C  0.30322745 -0.51918642  2.09749041
  C  1.16716767  0.11016352 -0.24677218
  C  2.55441140  0.36440254  0.35734123
  C  1.35733006 -0.56753945 -1.51943575
  N  1.50291150 -1.09764052 -2.52106104
  N  0.49072617  1.36010951 -0.56326233
  C -0.75769716  1.21761821 -0.39635737
  C -1.69497299  2.23798274 -0.66378155
  N -2.50134191  3.02630282 -0.86697856
  H -2.22761444 -1.88603602 -0.64723103
  H -1.16057716 -1.11434240 -1.83011745
  H -2.70919355 -0.37032302 -1.42595945
  H -1.92696619 -0.02847504  0.92579525
  H  0.23395478 -1.77916987  0.34446689
  H  1.02635798 -1.22065123  2.51013986
  H -0.64776444 -0.68788342  2.60089354
  H  0.62460820  0.49552204  2.32979461
  H  2.71833579  1.43870125  0.41262086
  H  3.33176587 -0.06934817 -0.26598905
  H  2.63800486 -0.05732622  1.35169842
