83
opt_min/./Product_3186_opt.xyz
  C -3.06507600 -1.65416300 -2.72959200
  O -2.42483019 -1.01444533 -1.62691658
  C -3.17963107 -0.80932446 -0.54582052
  O -4.30832326 -1.19937769 -0.43877125
  C -2.48554990  0.15269124  0.44416447
  C -3.25295018  1.42896564 -0.01865963
  F -2.87878658  2.56194587  0.56187324
  F -3.23241393  1.60782581 -1.34874671
  F -4.56456748  1.31683469  0.26749456
  C -0.95788660  0.20123426  0.25611610
  C -0.01733159 -0.77044642  0.35044838
  C -0.13818501 -2.21822209  0.86396606
  C -0.54546331 -3.23463458 -0.21991971
  C  1.20232427 -2.75240359  1.39514881
  C -1.09156400 -2.32803783  2.08336146
  C -2.57785987 -2.54059702  1.78578406
  C -3.45411688 -1.41513597  2.31367418
  C -2.94091373 -0.03203871  1.92289124
  C  1.35064229 -0.21605480 -0.15183119
  C  2.56827078 -0.36475368  0.77770761
  C  2.67506099  0.48216841  1.87457497
  C  3.77427138  0.44023895  2.71426128
  C  4.81069362 -0.44026220  2.46473163
  C  4.73072863 -1.27617577  1.36456339
  C  3.62713543 -1.23728220  0.53171617
  C  1.68755365 -0.70929352 -1.56488094
  C  0.73359972 -1.30326868 -2.38567583
  C  1.01598822 -1.63595936 -3.70142967
  C  2.25853227 -1.36040118 -4.24045273
  C  3.20678199 -0.73359409 -3.45121264
  C  2.92304339 -0.40539724 -2.13772703
  N  1.08908139  1.21455119 -0.20439289
  C  1.95921214  2.12474244 -0.88930222
  C -0.31108281  1.55478284 -0.04095397
  C -0.79219861  2.22022909 -1.36048085
  N -0.65102518  1.40427925 -2.42077880
  C -1.00850655  1.84473698 -3.74754542
  O -1.16534432  3.36707001 -1.48421606
  C -0.33762607  2.47177859  1.19169182
  C -0.25316074  1.89900683  2.45856988
  C -0.16818462  2.67505458  3.60009355
  C -0.14117271  4.05420334  3.50041911
  C -0.17794013  4.63631787  2.24709310
  C -0.26480456  3.85740437  1.10521746
  H -3.76304412 -2.41360250 -2.37380469
  H -2.27909233 -2.10263668 -3.33210304
  H -3.60959255 -0.90782283 -3.30904628
  H  0.28407837 -3.41556856 -0.89822696
  H -0.79558947 -4.17629186  0.26453857
  H -1.40238343 -2.92264945 -0.80413626
  H  1.61436166 -2.11191926  2.16844410
  H  1.04269382 -3.73894813  1.82607302
  H  1.92453773 -2.86679123  0.59746908
  H -0.75028124 -3.17183990  2.68354610
  H -0.95346907 -1.44789753  2.70882054
  H -2.92022469 -3.48251118  2.21496331
  H -2.73121486 -2.61340371  0.71478898
  H -3.49320703 -1.44915521  3.40477948
  H -4.46956818 -1.55421156  1.94142940
  H -2.10605815  0.25092889  2.55800092
  H -3.73581444  0.67930308  2.14801266
  H  1.89430093  1.19791166  2.07005973
  H  3.81950589  1.10996631  3.56031508
  H  5.67342991 -0.47305070  3.11314676
  H  5.53396761 -1.96495493  1.14703834
  H  3.60337705 -1.91167272 -0.31218328
  H -0.24164962 -1.52606338 -1.99233152
  H  0.25587880 -2.10892905 -4.30726678
  H  2.48264403 -1.62041114 -5.26395048
  H  4.17673583 -0.49141685 -3.85995415
  H  3.68001311  0.09799722 -1.55713546
  H  2.96026615  2.06828386 -0.45387391
  H  1.58627539  3.13449095 -0.73265967
  H  2.03340256  1.94796160 -1.97182379
  H -0.35637290  0.44921836 -2.29651167
  H -2.07130871  2.09161534 -3.78911733
  H -0.78204503  1.05332808 -4.45658833
  H -0.44418217  2.74292688 -4.00430843
  H -0.21528590  0.82446833  2.55957976
  H -0.11369650  2.19624939  4.56742033
  H -0.08141488  4.66503560  4.38896337
  H -0.13608834  5.71104732  2.14922359
  H -0.31725012  4.34736173  0.14922082
