47
opt_min/./Product_5126_opt.xyz
  C  4.93896307 -0.02203935 -0.80890156
  C  4.06100292  1.17306610 -1.04673840
  C  4.75420941  2.42254280 -1.49150982
  C  2.73847326  1.15774508 -0.83631186
  C  1.97570253  0.02973344 -0.36855611
  C  0.66115966  0.08566318 -0.15250098
  C -0.16522340 -1.06915247  0.36906280
  C -0.15524863 -2.22613110 -0.62900567
  C  0.35177084 -1.45970359  1.76660932
  C -0.17977857 -0.29842827  2.62965613
  C  0.87047968  0.68611184  2.84203076
  N  1.71447989  1.43413968  3.02271719
  O -1.25484633  0.29091845  1.91641675
  C -1.56261856 -0.51796889  0.78973709
  C -2.54914448 -1.58960448  1.29291226
  O -2.66388747 -2.64709793  0.48514485
  C -3.59758389 -3.65169338  0.86532946
  O -3.15379378 -1.46885478  2.32291149
  C -2.29767695  0.31509364 -0.24105057
  C -2.95230757 -0.27515793 -1.31584361
  C -3.59668310  0.50511645 -2.26037991
  C -3.60157281  1.88346413 -2.14198064
  C -2.96725192  2.47648589 -1.06355628
  C -2.32085847  1.70014755 -0.11885848
  H  4.59907229 -0.87764043 -1.39119642
  H  4.92387038 -0.30374291  0.24402430
  H  5.96733058  0.19445293 -1.08667017
  H  4.04423981  3.14746928 -1.88202949
  H  5.27598430  2.87380181 -0.64669961
  H  5.49477607  2.20279535 -2.26001440
  H  2.16922867  2.06041576 -1.01829065
  H  2.51955137 -0.88718584 -0.18274425
  H  0.13450529  1.01117738 -0.33185244
  H -0.94941716 -2.10655518 -1.35861336
  H -0.28262834 -3.18386237 -0.13063549
  H  0.79048127 -2.23934674 -1.16518629
  H -0.08194057 -2.40576440  2.09581866
  H  1.43761739 -1.52622736  1.80433054
  H -0.53212955 -0.63854804  3.61780261
  H -4.55871187 -3.45381453  0.38715086
  H -3.19667578 -4.60314307  0.52066896
  H -3.72786373 -3.65423572  1.94878211
  H -2.97636148 -1.34928283 -1.41806008
  H -4.09704764  0.02701211 -3.08987974
  H -4.10461205  2.49531419 -2.87611981
  H -2.97454927  3.55142103 -0.96046082
  H -1.84538374  2.16569960  0.73014286
