69
opt_min/./Product_2887_opt.xyz
  C  5.31630595  0.72120203  0.20970522
  O  3.90864088  0.64521858  0.02073510
  C  3.42579645  0.93193835 -1.18855299
  O  4.12374275  1.09784742 -2.15501532
  C  1.89993947  1.17013554 -1.16415576
  C  1.54088955  1.55560034 -2.61655139
  C  1.15642357 -0.16277691 -0.85878082
  C -0.13247444 -0.54157431 -0.66486153
  C -1.30406456  0.28948810 -0.11062537
  C -2.51085994  0.25851574 -1.02790511
  C -3.46722071 -0.74685442 -0.89467684
  C -4.57050681 -0.79602633 -1.72740801
  C -4.74566660  0.16150480 -2.71213919
  C -3.80766016  1.16802066 -2.84974206
  C -2.70370391  1.21750917 -2.01496989
  C -1.65025965 -0.12346071  1.30801691
  C -0.74751499 -0.80947629  2.10940760
  C -1.06940903 -1.11283353  3.42137626
  C -2.28178988 -0.71763595  3.95539979
  C -3.16968330  0.00070871  3.17242226
  C -2.85413276  0.29892783  1.86056658
  C -0.53393432  1.60524798 -0.06856330
  C -0.62917554  3.03751286  0.39703265
  C  0.73939204  3.50937191 -0.17184071
  C  1.88301525  2.44799649 -0.21212804
  C -0.31066320 -2.01459460 -0.99664563
  C -0.88112911 -2.17045739 -2.42631756
  C -1.14215770 -2.78380357 -0.08359347
  N -1.76595497 -3.48557832  0.56838972
  N  1.04007634 -2.52657127 -0.89161159
  C  1.99284474 -1.43150810 -1.04372462
  C  2.91886339 -1.69855762  0.18313131
  N  4.03382883 -2.39298144 -0.11198278
  C  4.84870363 -2.97605965  0.93335214
  O  2.55709767 -1.43357522  1.30276655
  C  2.64591217 -1.51419671 -2.32876061
  N  3.08892809 -1.69984123 -3.36922335
  H  5.79128448  1.10407215 -0.69558857
  H  5.49674880  1.38805043  1.05214682
  H  5.70362694 -0.27221370  0.43395061
  H  1.87384819  2.57010070 -2.82032289
  H  2.06441345  0.89802549 -3.30857983
  H  0.47776893  1.48066568 -2.82784368
  H -3.35274953 -1.49636168 -0.12678653
  H -5.29580545 -1.58618529 -1.60189696
  H -5.60777848  0.12632986 -3.36121392
  H -3.93510151  1.92670381 -3.60831852
  H -2.00104679  2.02524112 -2.14419898
  H  0.21639660 -1.11304543  1.72971579
  H -0.35960581 -1.65855630  4.02463344
  H -2.53291381 -0.95786644  4.97809642
  H -4.11232726  0.33112830  3.58433459
  H -3.54809692  0.86728164  1.25832120
  H  0.30364414  1.27422988  0.53585521
  H -0.25152370  1.72711310 -1.10442813
  H -1.43855538  3.62139092 -0.04132052
  H -0.68035692  3.12518598  1.48159480
  H  0.57882342  3.87248138 -1.18884022
  H  1.12567827  4.34662362  0.41275630
  H  2.09459017  2.10509345  0.80269035
  H  2.75904773  3.02199012 -0.53747372
  H -1.91523055 -1.84397132 -2.47577534
  H -0.28377957 -1.57978548 -3.11952693
  H -0.82952995 -3.21767292 -2.72255069
  H  1.23897818 -3.36494118 -1.42028306
  H  4.26676677 -2.59968338 -1.07077363
  H  4.37563418 -3.87600880  1.33401589
  H  4.95053954 -2.25848677  1.74749569
  H  5.82746772 -3.22811934  0.53351708
