47
opt_min/./Product_5067_opt.xyz
  C -3.57935800 -0.84862500 -1.79977400
  C -2.84669914 -0.60752149 -0.51165295
  C -3.70380561 -0.74084005  0.70923495
  C -1.55280628 -0.29879695 -0.52173833
  C -0.66894130 -0.03173273  0.65979823
  C  0.49808539 -1.04246937  0.76732619
  C  0.76248965 -1.42861416  2.20261243
  C  0.84909914 -2.90133284  2.45768054
  C  0.90747880 -0.52173536  3.15531243
  C  1.68640211 -0.23985244  0.13197814
  C  3.06417680 -0.48330663  0.75245191
  C  3.95696462  0.71696523  0.68682585
  O  3.38750689 -1.55090622  1.19797958
  C  1.77034782 -0.64360974 -1.34571974
  O  1.17287484 -0.09928450 -2.23496705
  O  2.55959095 -1.69981183 -1.51351688
  C  2.66823869 -2.20188589 -2.83985420
  N  1.31400546  1.15279410  0.19177166
  C  0.08614867  1.26769640  0.45392459
  C -0.59047341  2.59398819  0.62070070
  N -1.63604811  2.75919569 -0.21345592
  C -2.43372124  3.96001634 -0.20818248
  O -0.22880073  3.41618854  1.43414964
  H -2.91072585 -0.78886189 -2.65503340
  H -4.04580037 -1.83309221 -1.78814736
  H -4.37380808 -0.11117889 -1.92526014
  H -4.07993643 -1.76099951  0.78366144
  H -3.17118616 -0.50791494  1.62560657
  H -4.56647958 -0.07710838  0.63097637
  H -1.03719432 -0.24706079 -1.47404533
  H -1.24476708  0.00474027  1.58634008
  H  0.29648328 -1.94542567  0.18408927
  H  0.92911946 -3.10995261  3.52216790
  H -0.02802127 -3.41020773  2.05825342
  H  1.73241076 -3.29647744  1.95595247
  H  1.09165278 -0.81036617  4.17720472
  H  0.86606608  0.53759669  2.96479654
  H  4.92281579  0.49484423  1.13409989
  H  3.47089806  1.54385113  1.20271069
  H  4.08484975  1.01867407 -0.35020478
  H  2.95629103 -1.40182030 -3.52464339
  H  1.71119027 -2.61674288 -3.16423165
  H  3.42962775 -2.97725439 -2.80813104
  H -1.87790800  2.01513093 -0.85221339
  H -1.84971280  4.75009962  0.26488234
  H -2.68644949  4.24644399 -1.22844277
  H -3.35389408  3.81583934  0.36593138
