54
opt_min/./Product_2126_opt.xyz
  C -2.60398400 -2.16042600  1.11807100
  C -1.15950108 -1.80414645  1.37972983
  O -0.66043123 -1.97520127  2.45871778
  C -0.39673823 -1.23004578  0.17399107
  C  1.15771922 -1.05151640  0.35647956
  F  1.58373970 -1.14482647  1.66025727
  C  1.77146729 -2.14127353 -0.53890301
  C  1.36090837 -3.50908888  0.01365239
  C -0.11181965 -3.63180283 -0.42365872
  C -0.42130345 -2.24054420 -1.00500703
  C  0.87898209 -1.97666936 -1.76851855
  N  1.44525426  0.25372133 -0.14835305
  C  2.58752719  1.00978692 -0.04506354
  C  3.73468214  0.51318812  0.57463758
  C  4.87524558  1.29079845  0.62805019
  C  4.90081211  2.55908986  0.07371695
  C  3.76020849  3.05203169 -0.53798803
  C  2.61354228  2.28785042 -0.60461218
  O  0.29751827  0.80874431 -0.76447173
  C -0.80764467  0.26105503 -0.07394154
  C -0.86492613  0.93842281  1.32510292
  O -1.96614819  0.57310551  1.98047930
  C -2.09860877  1.03523590  3.32234035
  O -0.05607296  1.72527223  1.72032438
  C -2.03921206  0.72293367 -0.82655794
  C -2.18677717  2.10809650 -0.90356237
  C -3.25808176  2.67205836 -1.56866283
  C -4.20651423  1.86188935 -2.17061145
  C -4.06381275  0.48877656 -2.10479632
  C -2.98686330 -0.07911596 -1.44215963
  H -2.73398451 -2.71877200  0.19791411
  H -3.18537176 -1.24385472  1.05412885
  H -2.96816575 -2.74721645  1.95851887
  H  2.83957547 -2.00216766 -0.68643091
  H  1.46415103 -3.53318568  1.09782664
  H  1.97742133 -4.30191701 -0.40775204
  H -0.22611879 -4.38114073 -1.20802751
  H -0.75590248 -3.91569712  0.40577645
  H -1.31424508 -2.21648247 -1.62112918
  H  0.93639648 -0.99050656 -2.22179515
  H  1.06382057 -2.73512846 -2.52706498
  H  3.73658767 -0.46298573  1.03090910
  H  5.75687864  0.89756776  1.11365392
  H  5.79886827  3.15617941  0.12263091
  H  3.76293713  4.04177545 -0.97144997
  H  1.72424354  2.66883639 -1.08019379
  H -1.65251490  0.29710881  3.99116659
  H -1.59162706  1.99318976  3.44183182
  H -3.16454431  1.13092457  3.51635181
  H -1.44461747  2.74499965 -0.44695388
  H -3.35441056  3.74623990 -1.61716033
  H -5.04723551  2.29840714 -2.68823424
  H -4.79174163 -0.15600812 -2.57459584
  H -2.91603080 -1.15145223 -1.41244100
