63
opt_min/./Product_2995_opt.xyz
 Cl  2.88078900  0.55826000 -2.04441800
  C  2.68742542  0.08938520 -0.30889447
 Br  3.59377173  1.56789269  0.74903646
  C  1.17085287  0.18107180  0.00310057
  C  0.09928621 -0.64917188 -0.06911559
  C  0.07028530 -2.11907202 -0.42197261
  C  1.54546763 -2.28869133 -0.68190913
  C  2.60859983 -3.34344541 -0.87316849
  C  3.83002276 -2.38410465 -0.90227831
  C  3.72331020 -1.08182636 -0.04779934
  C -1.20846241  0.07128705  0.21537968
  C -2.08659210  0.07922565 -1.03928980
  C -3.47286794  0.03813265 -0.95580637
  C -4.24894336  0.08247243 -2.10077600
  C -3.65243507  0.17634491 -3.34556655
  C -2.27316147  0.24405852 -3.43594860
  C -1.49611176  0.19811708 -2.29304434
  C -1.95124667 -0.55794053  1.39149804
  C -2.09366397  0.13006071  2.58947866
  C -2.75775737 -0.44060399  3.66183669
  C -3.30118634 -1.70787714  3.55307881
  C -3.18848232 -2.39150366  2.35460557
  C -2.52583204 -1.82068539  1.28282538
  N -0.77012917  1.41616898  0.56045618
  C -1.63046816  2.53589261  0.27560019
  C  0.66745985  1.56801331  0.38696997
  C  0.95451456  2.61666504 -0.72105342
  N  1.53827247  3.76049886 -0.34628463
  C  1.83447512  4.80481531 -1.29795359
  O  0.61824021  2.38174272 -1.86784529
  C  0.96409815  1.97661329  1.83686033
  C  1.16865620  0.87608559  2.84433653
  O  0.85845097  3.13353275  2.18731182
  H -0.27379518 -2.70390686  0.43292920
  H -0.58756405 -2.30292560 -1.27166421
  H  1.72870628 -1.61250928 -1.51727687
  H  1.89209101 -1.87822676  0.25787888
  H  2.53841062 -3.89194622 -1.81173618
  H  2.65912678 -4.05239587 -0.04700871
  H  4.73109974 -2.88993891 -0.55183596
  H  4.00401759 -2.08460611 -1.93683146
  H  3.67720929 -1.33743145  1.01415197
  H  4.69165847 -0.60172691 -0.21340261
  H -3.95826327 -0.01892963  0.00756927
  H -5.32552552  0.04994515 -2.01532655
  H -4.25933913  0.20584792 -4.23857729
  H -1.79643053  0.33727134 -4.40042561
  H -0.42554496  0.28478594 -2.37887123
  H -1.68784632  1.12446425  2.68624383
  H -2.85230292  0.11293651  4.58413843
  H -3.81649590 -2.15525792  4.38982929
  H -3.62930633 -3.37201318  2.24618753
  H -2.48328817 -2.35875575  0.34871316
  H -2.63701609  2.29306342  0.61364348
  H -1.66994519  2.79729783 -0.78852588
  H -1.26978171  3.39811501  0.84039623
  H  1.68660777  3.97137594  0.63154106
  H  1.49551599  5.76650883 -0.91527984
  H  2.90954633  4.85167424 -1.48508589
  H  1.31847657  4.57862380 -2.23036155
  H  2.02313312  1.14307529  3.46335408
  H  1.32837260 -0.09347565  2.38611350
  H  0.29814789  0.82465182  3.49521166
