37
opt_min/./Product_885_opt.xyz
  C -0.77393300  3.72585400  0.94754600
  O -0.71576661  2.51845030  0.19591311
  C -0.78767906  1.38972839  0.90267324
  O -0.83356868  1.35530875  2.09885842
  C -0.69027256  0.18753074 -0.02988858
  C -1.14698621 -1.17160139  0.56026153
  F -1.59467179 -1.10748157  1.85962646
  C -2.37590018 -1.49199981 -0.34913766
  C -1.86133589 -1.87511313 -1.71890668
  C -1.42816749 -0.73904326 -2.25134148
  C -1.70730067  0.32833359 -1.21283159
  O -2.87180050 -0.17817307 -0.57908063
  C  0.18988081 -1.98322021  0.57223291
  C  0.22618310 -3.22719270  1.42914129
  N  1.17457197 -0.93451490  0.89101539
  C  0.83989785 -0.09011056 -0.23764234
  C  1.67528862  1.17068223 -0.45770551
  O  2.27197582  1.53199788  0.66784480
  C  3.10313962  2.69134906  0.62603318
  O  1.74191976  1.74365541 -1.50562548
  O  1.02791237 -0.98261893 -1.32880675
  C  0.63259797 -2.19532761 -0.88174871
  O  0.68846379 -3.20625931 -1.50406695
  H  0.02048994  3.74348890  1.69646402
  H -1.73664584  3.80353954  1.45578349
  H -0.64962541  4.53071203  0.22836901
  H -3.12089349 -2.12170071  0.12701684
  H -1.85316675 -2.87019406 -2.11406962
  H -0.95282709 -0.56174709 -3.19440838
  H -1.84101599  1.34461107 -1.56861858
  H -0.45157439 -3.13690276  2.27407056
  H -0.05705751 -4.08463474  0.82243223
  H  1.23748405 -3.37598517  1.79811568
  H  1.01101372 -0.49390588  1.79243371
  H  3.99214122  2.46418646  1.21087772
  H  2.56682104  3.53140834  1.06909157
  H  3.36585525  2.92359785 -0.40708490
