39
opt_min/./Product_5393_opt.xyz
  O  2.11951820 -3.21345586 -1.46183912
  C  2.94319151 -2.67844071 -0.87372783
  O  3.78597547 -2.14896957 -0.31120766
  C  1.26667269 -0.13140995 -0.85690076
  C  0.04866559 -0.58743710 -0.62351476
  C -1.24900140 -0.21967334 -3.61764402
  O -0.35014368  0.44667998 -3.85006311
  O -2.14276152 -0.89356733 -3.38287245
  C -0.58863290  0.17534635  0.50257446
  C -0.77800113 -0.70258675  1.76191012
  C -0.96792730  0.08433133  3.02072607
  O -0.79282731 -1.90279854  1.69581600
  C -1.92328869  0.73534563  0.03329684
  C -1.95411848  1.94853935 -0.64081954
  C -3.15439621  2.43453533 -1.12818808
  C -4.32180881  1.71075821 -0.95699664
  C -4.28834340  0.49379081 -0.29702454
  C -3.09191144  0.00356793  0.19592867
  O  0.33777784  1.23064440  0.78506629
  C  1.56936831  0.98162306  0.12332451
  C  2.01070694  2.27215903 -0.59775956
  O  3.26819423  2.57231684 -0.31454492
  C  3.80032976  3.74251756 -0.93014198
  O  1.28927649  2.89240624 -1.32545703
  C  2.55901457  0.52888132  1.09973085
  N  3.24634412  0.11305144  1.91013042
  H  1.95438686 -0.40470290 -1.63285080
  H -0.47181663 -1.36598079 -1.14681781
  H -2.01988484  0.36177648  3.08809676
  H -0.37775783  0.99560016  2.99268540
  H -0.70841833 -0.52344341  3.88352104
  H -1.03962828  2.50404054 -0.78032817
  H -3.17357970  3.37948244 -1.65020430
  H -5.25660603  2.09098366 -1.34119335
  H -5.19447413 -0.07832780 -0.16786905
  H -3.06818406 -0.95303985  0.69756342
  H  3.37269322  4.63391609 -0.46833563
  H  3.56742990  3.74694800 -1.99641774
  H  4.87388636  3.70646325 -0.76625083
