43
opt_min/./Product_1639_opt.xyz
  N -1.53821063  3.20610065 -1.37838946
  C -0.70469977  2.54196004 -0.96976530
  C  0.37772001  1.72711744 -0.42507778
  C  0.52098549  2.25938835  0.92555757
  N  0.56656920  2.70013539  1.97904543
  C -0.06005116  0.29081520 -0.33375327
  C  0.55001483 -0.78786882  0.17895269
  C  1.88033378 -1.03302876  0.85234713
  C  1.56924361 -1.47292165  2.21022268
  N  1.30563643 -1.76592788  3.28008860
  C  2.55969650 -2.12084952  0.15603041
  N  3.11189266 -2.93636351 -0.41920615
  C  2.84431710  0.17045775  0.95925085
  C  3.52374612  0.54786554 -0.35603171
  C  2.58536389  0.83638033 -1.52666266
  C  1.62778922  2.00584749 -1.31661438
  N -0.28627484 -1.90076821  0.07415075
  C -0.04128063 -3.13448654  0.46134954
  N  0.15773666 -4.21139157  0.80247833
  N -1.55067733 -1.54424230 -0.47579919
  C -1.41328628 -0.13946034 -0.88644518
  C -2.57781438  0.65583447 -0.26395300
  O -2.23809102  1.01907481  0.96941692
  C -3.20372063  1.73016005  1.74292331
  O -3.64883367  0.82216098 -0.77205157
  C -1.42567471 -0.04374900 -2.43959633
  C -2.55857255 -0.75394418 -3.08424785
  O -0.56063046  0.56502444 -3.01116783
  H  2.30132837  1.01599337  1.37956204
  H  3.62062650 -0.10176213  1.68010383
  H  4.19410385 -0.26162094 -0.65458338
  H  4.13807846  1.43063648 -0.16522930
  H  3.20986368  1.09490041 -2.38387811
  H  2.02876383 -0.05869442 -1.80749654
  H  2.16645097  2.85808768 -0.89451267
  H  1.24796980  2.29630458 -2.29821015
  H -2.27722910 -1.66868098  0.23264044
  H -3.03903123  2.80085008  1.61813445
  H -4.21119262  1.47288790  1.41422051
  H -3.04370346  1.44520885  2.78036949
  H -2.61132180 -1.77874528 -2.72336868
  H -3.48092024 -0.25597201 -2.78234363
  H -2.45507123 -0.72733560 -4.16465836
