54
opt_min/./Product_2597_opt.xyz
  C -4.37859385 -2.25389672 -1.84365646
  O -3.91630692 -1.23663359 -0.95771603
  C -2.69139076 -0.78264289 -1.14803545
  O -1.93241385 -1.13828563 -2.00841364
  C -2.34446816  0.38195166 -0.17401030
  F -2.71757344  1.48247667 -0.94673363
  C -0.81524895  0.39661160 -0.04438683
  C  0.09938266 -0.57079253  0.22977097
  C  0.00853013 -2.02380606  0.74165482
  F -0.56454846 -2.79086316 -0.25093222
  F  1.24307545 -2.55677994  0.87176836
  C -0.83212948 -2.27169283  2.03785764
  C -1.88111454 -1.20963314  1.76740101
  C -3.29166058 -0.73042222  2.05061044
  C -3.28401948  0.49033686  1.08470652
  C  1.48862171 -0.05380694 -0.03787896
  C  2.28716782 -1.00764507 -0.99432329
  N  1.57008380 -1.31432064 -2.07987786
  C  2.08393898 -2.16529703 -3.12508084
  O  3.41317890 -1.36835103 -0.76182170
  C  2.33387624  0.22934578  1.21604195
  O  3.20725639  1.05311469  1.20126370
  O  1.95328649 -0.46457438  2.27376901
  C  2.73964133 -0.27556296  3.44916641
  N  1.25834709  1.19406331 -0.75144939
  C -0.03327018  1.69819780 -0.29726047
  C  0.09839794  2.33167550  1.01113227
  N  0.29152427  2.73941486  2.06096516
  C -0.56727538  2.74456892 -1.30098418
  O -1.31034750  3.63839778 -1.00913353
  O -0.03119565  2.55143861 -2.49322978
  C -0.43186125  3.46569074 -3.50709818
  H -4.93625637 -1.79439478 -2.66070147
  H -5.03053240 -2.90251244 -1.26270696
  H -3.53163762 -2.81271934 -2.24442784
  H -1.17896603 -3.30363470  2.00734306
  H -0.22658848 -2.09595429  2.92317966
  H -2.00042466 -1.39109625  0.70346940
  H -1.31248122 -0.30072461  1.97298975
  H -4.05479146 -1.45278229  1.76542076
  H -3.46315118 -0.40686918  3.07464514
  H -2.95478566  1.38234348  1.62089057
  H -4.27963624  0.68186432  0.68378457
  H  0.62577741 -0.97182621 -2.18403265
  H  1.40856809 -3.00566589 -3.28822086
  H  3.05765471 -2.53392700 -2.80781070
  H  2.19217390 -1.60461661 -4.05514960
  H  2.52007440  0.69999288  3.88827449
  H  3.79994384 -0.32642699  3.19930800
  H  2.46463913 -1.07623694  4.13093413
  H  2.01382044  1.85166279 -0.56442477
  H -0.04620586  3.06648919 -4.44133387
  H -0.01151893  4.45383398 -3.30973017
  H -1.52014230  3.54414789 -3.53468884
