61
opt_min/./Product_2803_opt.xyz
  C -4.46051839 -0.47968880  0.57830270
  O -3.05149332 -0.67561560  0.63062949
  C -2.43531786 -0.83356802 -0.53761539
  O -3.01929579 -0.88875034 -1.59013897
  C -0.94002349 -1.00651359 -0.38128730
  C -0.12737838  0.24352651  0.12007813
  C -0.95255311  1.43092758  0.56073434
  C -0.62776819  2.14576951  1.70874032
  C -1.36378510  3.25589084  2.08792179
  C -2.43349126  3.68285273  1.32603928
  C -2.74282164  3.00428435  0.16166808
  C -2.00473362  1.89974505 -0.22158234
  C  0.65296435 -0.43954437  1.31046905
  C -0.34230220 -0.60218986  2.44118287
  C -1.13183824 -1.59688313  2.06099488
  C -0.57340705 -2.05076617  0.73238534
  O  0.80855254 -1.77977814  0.86657103
  C  0.83840377  0.63707536 -1.06710120
  C  0.32890820  1.94030809 -1.78130095
  N -0.25855884  1.70635127 -2.96269116
  C -0.75338689  2.76300789 -3.80566737
  O  0.47314865  3.05567279 -1.32545859
  C  2.25412554  0.91920621 -0.58291197
  C  3.35318538  0.13750665 -0.91282695
  C  4.61864351  0.45980350 -0.44737603
  C  4.81388841  1.56569185  0.35477066
  C  3.72625038  2.35305680  0.69256102
  C  2.46230436  2.03409879  0.23499109
  N  0.76643767 -0.44475159 -2.03328608
  C -0.26815892 -1.41233321 -1.72327670
  C -1.12308795 -1.49570437 -2.90872348
  N -1.55708908 -1.63113113 -3.95947424
  C  0.39516873 -2.81847844 -1.72298636
  O  1.57312812 -2.97125633 -1.88615252
  O -0.49370687 -3.79522552 -1.63391475
  C  0.01063548 -5.12499073 -1.73773880
  H -4.82595250 -0.63627775  1.58945244
  H -4.67535615  0.53882711  0.24924072
  H -4.91558780 -1.18733478 -0.11749249
  H  0.22340249  1.86503402  2.30710840
  H -1.08446674  3.79493034  2.98131856
  H -3.00942186  4.54524561  1.62549953
  H -3.55424306  3.34218114 -0.46643536
  H -2.24525410  1.42636897 -1.16139116
  H  1.61546078  0.00045299  1.54699402
  H -0.37859969 -0.01883494  3.33844718
  H -1.98222064 -2.03128464  2.54308793
  H -0.78068748 -3.08335342  0.47598454
  H -0.34975933  0.75190582 -3.27698212
  H -1.78548753  2.56044887 -4.09293927
  H -0.70034092  3.69270358 -3.23990370
  H -0.14327438  2.85573398 -4.70594849
  H  3.27297137 -0.73947657 -1.53776370
  H  5.45557094 -0.16565238 -0.72153376
  H  5.80306693  1.81288147  0.71103907
  H  3.85932544  3.22195827  1.32021833
  H  1.63216018  2.66810475  0.48738959
  H  1.64524435 -0.94627927 -2.12127724
  H  0.51106195 -5.40663012 -0.80914449
  H  0.72266941 -5.18977425 -2.56183821
  H -0.85203465 -5.76107558 -1.91788394
