43
opt_min/./Product_4437_opt.xyz
  C -1.56384600 -1.24103600 -2.03992400
  C -1.02588172 -0.86929503 -0.65353205
  C -0.76738328 -2.14191906  0.15148918
  C  0.19308873  0.09075254 -0.78036639
  C  1.45432129 -0.41781993 -0.16968683
  C  2.58724798 -0.54976130 -0.85739661
  C  3.85651376 -1.02973962 -0.33501581
  C  3.90254275 -1.55718960  1.07018102
  C  4.95292252 -0.98216973 -1.08986414
  C -0.32171710  1.43281705 -0.16075702
  C  0.51392000  1.96877949  1.00936568
  C -0.33362471  2.55907273 -1.21266006
  C -1.26680096  3.70009667 -0.91875158
  O  0.38122368  2.52224474 -2.17880868
  N -1.66674346  1.20253191  0.29539070
  C -2.03130946  0.01596023  0.05060920
  C -3.38908197 -0.46395871  0.42685410
  O -4.03083458  0.42298440  1.18447331
  C -5.34476911  0.06635235  1.58809085
  O -3.86072424 -1.52230502  0.08834931
  H -1.79438384 -0.34620916 -2.61578815
  H -2.46852909 -1.83618933 -1.94311129
  H -0.81698230 -1.82016895 -2.57890284
  H -1.67348637 -2.74272818  0.17058071
  H  0.03136913 -2.72083561 -0.30815781
  H -0.48795575 -1.91278991  1.17823603
  H  0.39162126  0.27987803 -1.84021335
  H  1.41909276 -0.67732913  0.87757523
  H  2.60202054 -0.26361969 -1.90181251
  H  4.83879984 -2.07693470  1.25331842
  H  3.81713293 -0.73664463  1.78341450
  H  3.08079722 -2.24777627  1.24933076
  H  4.93176840 -0.59256247 -2.09278533
  H  5.90856840 -1.32661164 -0.73121803
  H  0.11243903  2.92079313  1.34572720
  H  1.54681192  2.09731747  0.69724598
  H  0.47914888  1.26913037  1.84136371
  H -1.99126735  3.42057883 -0.16093089
  H -1.76533903  3.99583772 -1.83995374
  H -0.67881801  4.55147854 -0.57787696
  H -5.75672960  0.93896947  2.08741358
  H -5.31279360 -0.78685231  2.26966192
  H -5.94891889 -0.20264090  0.71908913
