39
opt_min/./Product_3666_opt.xyz
  C  4.16448800  0.71833300  0.29893100
  C  3.56659837 -0.52263563 -0.28673076
  C  4.57619032 -1.46888919 -0.86474899
  C  2.25890317 -0.80822039 -0.32589186
  C  1.17237125 -0.00150260  0.17004812
  C -0.10324949 -0.38435513  0.08284767
  C -1.28075742  0.38286894  0.60790756
  C -1.07791605  1.88825949  0.42434629
  C -1.54193060  0.05527024  2.09302479
  C -2.98223245  0.52453015  2.30837710
  N -3.57006630  0.56672454  0.97820019
  C -2.66831888 -0.02511050  0.00592049
  C -2.88012556 -1.55230472 -0.14233095
  C -2.89719921  0.67261467 -1.33862771
  C -2.02771919  0.23086546 -2.49283222
  O -3.73713986  1.52439645 -1.47180314
  H  3.41717586  1.46343407  0.55167466
  H  4.85934855  1.15882816 -0.41483275
  H  4.72456332  0.47313822  1.20080389
  H  4.94260509 -1.08612488 -1.81736097
  H  4.14942781 -2.45362236 -1.03799310
  H  5.43247927 -1.56777137 -0.20022877
  H  1.95815325 -1.74712879 -0.77723925
  H  1.42712999  0.94381425  0.62535905
  H -0.29878905 -1.35357075 -0.35726049
  H -0.35397794  2.26803968  1.13973295
  H -0.71507335  2.10027317 -0.57837413
  H -2.01680683  2.41514329  0.56856681
  H -1.45848134 -1.01893910  2.25404333
  H -0.83328304  0.55198635  2.75219069
  H -2.99621928  1.53481526  2.73167116
  H -3.52541669 -0.12979932  2.99970201
  H -4.51134455  0.20879927  0.91913266
  H -3.78991597 -1.83433764  0.38312857
  H -2.06347800 -2.12180033  0.29053789
  H -2.99276454 -1.84905881 -1.18124943
  H -1.15966029 -0.33473367 -2.17985676
  H -2.63309292 -0.36611997 -3.17206464
  H -1.71172108  1.11621697 -3.04066294
