47
opt_min/./Product_5120_opt.xyz
  C  0.24230363  1.77971180  1.09419740
  C -0.32093256  1.01680797 -0.12058815
  C -0.33046013  1.86244982 -1.39332823
  C  0.39920531 -0.34759861 -0.30265946
  C  1.88798014 -0.39423836 -0.11256588
  C  2.77568229  0.48697893 -0.56745637
  C  4.22116869  0.37504171 -0.39767337
  C  4.74454110 -0.63566936  0.58274610
  C  5.04407614  1.15726410 -1.09287596
  C -0.30886729 -1.27048048  0.71399508
  C -0.65841190 -2.65008539  0.19953751
  C  0.01597061 -3.26699603 -0.84500842
  C -0.36386815 -4.52885434 -1.26976506
  C -1.41991014 -5.18661663 -0.66580369
  C -2.08643808 -4.58308343  0.38758733
  C -1.70221104 -3.32787127  0.81927172
  O -1.48042622 -0.57811296  1.15526162
  C -1.73079695  0.46636673  0.24727558
  C -2.69719870  1.46961354  0.88954700
  O -2.76454667  2.57950226  0.15282474
  C -3.67528187  3.57240345  0.61094753
  O -3.34131859  1.26555218  1.87543003
  C -2.42831978 -0.06027252 -0.92403410
  N -2.95599336 -0.50420749 -1.83561465
  H -0.51838356  1.93328719  1.85523336
  H  1.05866699  1.22630026  1.55071024
  H  0.62672538  2.75004483  0.79244742
  H -1.14103635  1.55968655 -2.05309861
  H  0.60342349  1.73949321 -1.93259539
  H -0.46246231  2.91498563 -1.16145154
  H  0.15745274 -0.68358341 -1.31863585
  H  2.24063790 -1.28840434  0.38165397
  H  2.45331916  1.38192315 -1.07775312
  H  5.82794171 -0.58442061  0.64222423
  H  4.46671007 -1.64443808  0.28197865
  H  4.33006359 -0.45193162  1.57198659
  H  6.11435122  1.08602504 -0.99645237
  H  4.67527064  1.88311971 -1.79767541
  H  0.30053626 -1.38641327  1.62367799
  H  0.85510870 -2.78262281 -1.32334631
  H  0.16795872 -4.99816314 -2.08531946
  H -1.71836082 -6.16493470 -1.01170729
  H -2.90758139 -5.08903892  0.87396436
  H -2.22436602 -2.84815515  1.63363686
  H -4.67685357  3.15297840  0.71208024
  H -3.35457290  3.95458725  1.58237023
  H -3.66132106  4.36338901 -0.13355937
