63
opt_min/./Product_2994_opt.xyz
 Cl -2.28257900  2.23893400 -0.67110900
  C -0.66238518  1.83051371 -1.29760637
 Br -0.96230805  1.01591703 -3.15530893
  C  0.00773268  0.78548464 -0.48206793
  C  1.32102552  0.65160960 -0.24005403
  C  2.47320543  1.57851604 -0.45090650
  C  2.44669829  2.77524891  0.51912215
  C  1.86716068  4.06481219 -0.05483782
  C  0.37845660  4.01204498 -0.39115803
  C  0.04803649  3.13938443 -1.60978706
  C  1.60733305 -0.71684809  0.32873579
  C  2.41909034 -1.49992783 -0.76706867
  N  2.11409456 -2.80399796 -0.83867549
  C  2.80184581 -3.69715856 -1.74093751
  O  3.22199028 -0.96307478 -1.49472471
  C  2.47622792 -0.73889256  1.59708946
  C  1.97391284  0.04155345  2.78032977
  O  3.48831373 -1.39230779  1.64431923
  N  0.29827712 -1.30694272  0.52888846
  C  0.07037658 -2.22432682  1.61721836
  C -0.77963562 -0.38127527  0.13185176
  C -1.55668708  0.07270707  1.36770932
  C -1.22934131  1.24634340  2.03670674
  C -1.88722583  1.61540710  3.19719659
  C -2.88015345  0.80771833  3.72093125
  C -3.20490335 -0.37223742  3.07456190
  C -2.54812846 -0.73741086  1.91341137
  C -1.67374293 -1.07861526 -0.88811662
  C -3.03230950 -0.80924326 -1.00587961
  C -3.79445264 -1.44630022 -1.96971649
  C -3.21595839 -2.36361011 -2.82763935
  C -1.86400409 -2.63675635 -2.71904972
  C -1.10067397 -1.99745629 -1.76056028
  H  3.38612602  1.00841119 -0.28543828
  H  2.51730045  1.92600637 -1.48122365
  H  1.88230427  2.50937657  1.41457084
  H  3.47065519  2.98313951  0.83439110
  H  2.42358388  4.35342829 -0.94838448
  H  2.01623620  4.85137584  0.68932180
  H  0.05560760  5.03227263 -0.60463528
  H -0.18832202  3.67921447  0.47634828
  H -0.61741333  3.69312511 -2.27620837
  H  0.94840660  2.92887395 -2.18059536
  H  1.45073413 -3.20242952 -0.19685297
  H  3.63374185 -4.19751964 -1.23923667
  H  3.19827002 -3.10578224 -2.56481536
  H  2.10495519 -4.44237091 -2.12053942
  H  2.68747323  0.83575797  2.99361152
  H  1.95435684 -0.61034987  3.65324903
  H  0.98758316  0.46134495  2.61504578
  H -0.70964755 -2.93204028  1.32671707
  H -0.23880865 -1.74429639  2.55549831
  H  0.98423464 -2.78181583  1.82295329
  H -0.46385835  1.89622839  1.63913059
  H -1.62094328  2.53932086  3.68958414
  H -3.39449988  1.09532283  4.62501547
  H -3.97473013 -1.01444772  3.47643005
  H -2.81440120 -1.66189824  1.42348369
  H -3.50965652 -0.09589057 -0.35164192
  H -4.84685833 -1.21723981 -2.04991197
  H -3.81275931 -2.85528085 -3.58119098
  H -1.39623615 -3.34161437 -3.39032216
  H -0.04243033 -2.19161073 -1.69905761
