38
opt_min/./Product_4534_opt.xyz
  C -0.89723126 -1.61552696 -1.09267280
  C -1.21644660 -0.65128610  0.05089764
  C -2.60294711 -0.98844258  0.60023476
  C -0.15628152 -0.64979937  1.17003246
  C  0.41390988 -1.97163938  1.61486724
  O  1.37768131 -2.08068607  2.31431359
  C  0.94568136  0.33743806  0.71367120
  C  2.14295935 -0.41016409  0.07242248
  O  3.24139218  0.31876408  0.14390293
  C  4.44611183 -0.24353782 -0.36770190
  O  2.05989799 -1.50104942 -0.42746193
  C  1.46006000  1.10646724  1.84148262
  N  1.86618296  1.73407416  2.70420439
  N  0.27984666  1.24683303 -0.20569321
  C  1.04137970  1.81142634 -1.29035898
  C -1.10431719  0.83725634 -0.43385559
  C -1.49473643  0.98091355 -1.81653103
  N -1.81759472  1.10893961 -2.90688904
  C -1.97073080  1.75704508  0.48491026
  C -3.17239292  2.38866010 -0.14745890
  O -1.63856800  1.93735968  1.62401485
  H -0.99180931 -2.64399229 -0.75238561
  H -1.59622952 -1.47424521 -1.91431477
  H  0.11253024 -1.48200266 -1.46753580
  H -2.61204754 -2.01377971  0.96405168
  H -2.88665806 -0.33797354  1.42414195
  H -3.35048170 -0.90308214 -0.18709606
  H -0.62045032 -0.20944280  2.06588597
  H -0.16555753 -2.85757735  1.29182216
  H  4.62211058  0.13756826 -1.37521163
  H  4.37092753 -1.33189674 -0.39056786
  H  5.24670614  0.07337793  0.29725942
  H  1.28605441  1.08589220 -2.08095577
  H  0.47262125  2.62797423 -1.73555419
  H  1.96359694  2.22582480 -0.88383719
  H -3.76927762  1.65000146 -0.67728630
  H -2.83560219  3.12608191 -0.87635902
  H -3.77091617  2.88686427  0.61135711
