47
opt_min/./Product_5079_opt.xyz
  C -2.87194599  2.06573079 -1.88904126
  C -2.07162376  1.74196859 -0.66106818
  C -1.90654488  2.90723210  0.26972173
  C -1.58886106  0.51718896 -0.47750575
  C -0.79134854  0.03298515  0.68441740
  C -1.31779102 -1.28727106  1.31615983
  C -2.06911004 -2.18986120  0.36445227
  C -3.55208249 -1.99101643  0.37123956
  C -1.47103204 -3.09060110 -0.39957139
  C -0.01482277 -1.91037202  1.75607954
  C  0.00982377 -3.02711811  2.61658334
  N -0.01830107 -3.92483844  3.32942888
  N  1.04331308 -1.38342046  1.29050260
  C  0.72016574 -0.29722754  0.40808862
  C  1.02733006 -0.74231642 -1.04218959
  N  1.95728694 -1.70849545 -1.09541402
  C  2.47059947 -2.23020642 -2.33725145
  O  0.52988452 -0.22323065 -2.01640261
  C  1.62017204  0.89888295  0.63514485
  C  2.55637748  0.89696101  1.66160714
  C  3.35891362  2.00641968  1.85762324
  C  3.22817556  3.11692386  1.04556296
  C  2.29861231  3.12141489  0.02010148
  C  1.49799630  2.01141131 -0.18537473
  H -2.80313150  1.26764535 -2.62134683
  H -2.51428507  2.98927789 -2.33997912
  H -3.92050681  2.21015846 -1.62715485
  H -1.20219964  3.62178078 -0.15385365
  H -2.86129883  3.41667475  0.39179848
  H -1.53903059  2.62098694  1.25072926
  H -1.77662635 -0.22850744 -1.23424639
  H -0.78289635  0.78986327  1.47680561
  H -1.96644528 -1.07736030  2.17170893
  H -4.02530256 -2.57066619 -0.41761176
  H -3.96280927 -2.31487889  1.32827492
  H -3.79671038 -0.93925585  0.23341137
  H -0.40466493 -3.24094725 -0.38501768
  H -2.02918462 -3.71268057 -1.07604048
  H  2.33557317 -2.04671941 -0.22223425
  H  1.93178224 -1.74521844 -3.14771378
  H  2.31543011 -3.30943616 -2.39281015
  H  3.53562428 -2.01489664 -2.43407236
  H  2.64528082  0.02618372  2.29136556
  H  4.08798981  2.00977600  2.65291856
  H  3.85841160  3.97695339  1.21328734
  H  2.19478212  3.97602804 -0.62644646
  H  0.77946589  1.99825043 -0.98977529
