50
opt_min/./Product_2636_opt.xyz
  C  0.72565835  3.26976500 -0.25655459
  C  0.15058452  2.26052637  0.69510815
  O  0.27823146  2.39580815  1.88453889
  C -0.67424069  1.06256343  0.13006824
  C -1.19780636  1.47264763 -1.27070249
  C -2.31357921  2.47761879 -1.32337739
  O -0.68025735  1.04377380 -2.27049196
  C  0.24695205 -0.10522031 -0.10402558
  C  0.01724918 -1.35596393 -0.51339569
  C -1.25660209 -2.13974029 -0.51943034
 Br -2.78952249 -1.20219208 -1.32222624
  C -1.21257118 -3.41246312 -1.37615393
  F -0.92151160 -3.19254481 -2.65897803
  F -0.32853963 -4.31921253 -0.92455003
  F -2.39583735 -4.04186001 -1.36414762
  C -1.53767137 -2.58985505  0.92829812
  C -2.29146656 -1.63452637  1.84729138
  C -1.68635397 -0.27321001  2.19055449
  C -1.83434712  0.83032017  1.13734618
  C  1.35148275 -1.99572183 -0.87582159
  C  1.63644769 -1.88917321 -2.38407959
  O  2.29695459 -1.23556485 -0.14450049
  C  1.75435897  0.06665001  0.04403578
  C  2.36903685  0.95573115 -0.92568244
  N  2.91032121  1.55876096 -1.73117445
  C  2.11806132  0.39965282  1.51696785
  O  1.56173706 -0.12191440  2.44084602
  O  3.13997634  1.22881435  1.58245552
  C  3.60677667  1.56426720  2.88781656
  H  0.56553311  3.04338913 -1.30363772
  H  0.28831040  4.23804228 -0.00977249
  H  1.79614137  3.35819216 -0.07209549
  H -2.84600901  2.59456238 -0.38850820
  H -1.89257649  3.44018880 -1.61018556
  H -3.00256113  2.18045558 -2.11148668
  H -2.12752149 -3.51175131  0.89140551
  H -0.56825381 -2.83414207  1.37251618
  H -3.30268214 -1.48466901  1.46036022
  H -2.39312123 -2.17849115  2.79004244
  H -0.65570526 -0.35945517  2.52920359
  H -2.27245839  0.07457848  3.04433553
  H -2.77713223  0.68352591  0.61446874
  H -1.91900323  1.76408323  1.69826409
  H  1.47256754 -3.02690713 -0.53498825
  H  1.09719160 -1.05420617 -2.82758125
  H  1.37463845 -2.80331143 -2.90513533
  H  2.70345051 -1.71672208 -2.50787762
  H  3.57904700  0.68550759  3.53349392
  H  4.62363759  1.92704768  2.76439566
  H  2.96711494  2.34133538  3.31011157
