47
opt_min/./Product_5777_opt.xyz
  C  0.27555100 -1.26581500  0.84686500
  O -0.15919421 -2.01244289  1.69667984
  C  1.57793403 -0.61340597  1.02338283
  O  2.17930280 -1.08803917  2.12941463
  C  3.24598423 -0.39980358  2.74968427
  C  2.04910861  0.33678526  0.15480235
  O  3.29121327  0.83642238  0.34045913
  C  3.65197274  2.09773034 -0.20842610
  C  1.31287513  0.65546488 -1.07156319
  O  1.87551604  1.12382737 -2.04044276
  C -0.17837569  0.31933383 -1.14950455
  C -0.58572341  0.32405999 -2.63231216
  C -0.59437062 -0.96138102 -0.38591616
  C -0.75751235 -2.24202521 -1.20212466
  C -1.87781962 -0.43195231  0.33490789
  C -2.51791445 -1.40673561  1.31438335
  O -2.94071148 -2.47210768  0.96230933
  O -2.62543441 -0.87244434  2.51705398
  C -3.16560043 -1.70740219  3.53725725
  C -2.86342057  0.14426044 -0.69589975
  O -3.86538332 -0.30927750 -1.14060055
  O -2.34652537  1.35398297 -1.01180175
  C -1.06269669  1.36770725 -0.35892258
  C -0.47681221  2.77443475 -0.21539262
  N -1.31832295  3.75160849 -0.55214355
  C -0.94724618  5.14565618 -0.49253031
  O  0.65904103  2.92538334  0.18433539
  O -1.34460299  0.78235996  0.87347537
  H  3.44625177 -0.96158404  3.66141926
  H  2.95848464  0.62324733  3.00379268
  H  4.13725819 -0.38184427  2.12174888
  H  4.56154713  2.37978861  0.32047784
  H  2.86586195  2.83202340 -0.03489644
  H  3.85077452  2.02294703 -1.27781512
  H -0.96323040  1.30332912 -2.91940871
  H -1.35702296 -0.40994326 -2.84441235
  H  0.28529927  0.11809606 -3.24988896
  H -0.44273448 -3.09512138 -0.60551189
  H -0.15260644 -2.20916639 -2.10386907
  H -1.80117405 -2.40181006 -1.46413366
  H -2.34718911 -2.22908470  4.03560071
  H -3.68238854 -1.05410373  4.23686312
  H -3.85183483 -2.43506141  3.10084077
  H -2.24112568  3.50440525 -0.87798456
  H -0.61200233  5.49837961 -1.47048790
  H -1.79873903  5.73904901 -0.16691351
  H -0.12844842  5.25038988  0.21766443
