41
opt_min/./Product_4787_opt.xyz
  C  1.33139700 -1.31519100  0.19872700
  C  0.65166701 -2.59998031  0.55655438
  C -0.67239846 -2.72333874  0.61042728
  N -1.55075349 -1.68469349  0.39766140
  C -2.97535692 -1.88990766  0.38877974
  C -1.04447783 -0.43277047 -0.06371102
  C  0.38658791 -0.11567970  0.41352970
  C  0.49173372  0.22015829  1.90521175
  N -0.61549941 -0.03769042  2.64352031
  O  1.50071069  0.64537977  2.41081432
  C  0.73767168  1.01039333 -0.59787624
  C  2.23921852  1.31415532 -0.77285135
  C  2.73280259  1.25394221 -2.18649017
  O  2.92748506  1.64921344  0.15171144
  C  0.05447553  2.37366651 -0.28451033
  C  0.42598498  3.06023192  0.98999154
  O -0.72011308  2.82395539 -1.08625991
  O  0.22476056  0.53056622 -1.82887188
  C -0.93474727 -0.26026712 -1.62106948
  C -0.81865236 -1.56846653 -2.41169692
  C -2.12712481  0.42588999 -2.10379137
  N -3.08520330  0.92819574 -2.47024728
  H  2.21983725 -1.17182863  0.81928707
  H  1.67532901 -1.33515779 -0.84169037
  H  1.27694846 -3.45222876  0.76076224
  H -1.14114659 -3.66035286  0.87029921
  H -3.36576637 -2.09509565 -0.61561127
  H -3.22454973 -2.73086913  1.03514402
  H -3.48178511 -0.99646985  0.76080811
  H -1.70890065  0.37249025  0.28778057
  H -1.36727859 -0.61464881  2.30959224
  H -0.50655415  0.04106291  3.64225016
  H  2.41102772  2.16931184 -2.68354063
  H  3.81910686  1.21225862 -2.18975239
  H  2.30256648  0.41942222 -2.72972192
  H  1.44502662  2.82998764  1.28788351
  H -0.24286608  2.72342043  1.78099220
  H  0.28597822  4.13175217  0.86225877
  H -1.70545255 -2.17822685 -2.25692613
  H -0.74070333 -1.33084469 -3.47079110
  H  0.05720012 -2.13535410 -2.11430262
