54
opt_min/./Product_2270_opt.xyz
  C  1.32326737 -1.77913101  3.16222119
  O  0.72461094 -1.50777111  1.89973758
  C  0.14807211 -0.33333701  1.72352907
  O  0.05605497  0.51021171  2.58704857
  C -0.47975950 -0.16681058  0.34866786
  C  0.38651341 -0.57632845 -0.87776300
  C  1.64461710 -1.41745426 -0.61107189
  O  2.77321655 -1.00422966 -0.68936866
  O  1.35955873 -2.68081738 -0.33041175
  C  2.44975229 -3.56146427 -0.10430026
  C -0.63469431 -1.54916510 -1.58276579
  C -1.87922945 -0.79868525 -2.00629112
  C -2.57392243 -0.60603832 -0.89254098
  C -1.69698227 -1.17777881  0.19949211
  O -1.10114103 -2.27172991 -0.45400180
  C  0.69103183  0.73685341 -1.64531677
  C  0.44416910  0.51548192 -3.06547787
  N  0.19947410  0.36506448 -4.17219384
  C  2.08556129  1.32360475 -1.44067823
  C  2.45926599  1.81089520 -0.19181483
  C  3.68739727  2.41910925 -0.01509174
  C  4.55845116  2.55579096 -1.08176058
  C  4.19354065  2.07590878 -2.32579904
  C  2.96413475  1.46703527 -2.50747682
  N -0.36013224  1.65388944 -1.20020699
  C -0.18165971  3.05898103 -1.47104927
  C -0.81538635  1.32137216  0.12449997
  C -2.28970588  1.72113643  0.32350938
  N -2.68873435  1.52958846  1.59845818
  C -4.01927606  1.85433063  2.05125253
  O -2.98001765  2.23544095 -0.52716961
  H  0.91246035 -1.11557708  3.92500540
  H  2.40080257 -1.62622320  3.08403409
  H  1.10869391 -2.81935374  3.39822446
  H  2.69813513 -4.07699745 -1.03386136
  H  2.12016627 -4.27930456  0.64329948
  H  3.32179594 -3.00462010  0.24406836
  H -0.19442391 -2.20231621 -2.33086438
  H -2.10394049 -0.49995916 -3.00844023
  H -3.55403372 -0.19685044 -0.76700699
  H -2.15260822 -1.47918349  1.13910214
  H  1.80365591  1.69649872  0.65712802
  H  3.96405773  2.78501176  0.96298434
  H  5.51826710  3.03063986 -0.94168064
  H  4.86821320  2.17293825 -3.16363582
  H  2.68990533  1.09697724 -3.48400850
  H -1.16418330  3.50246985 -1.63095106
  H  0.40988605  3.18195750 -2.37569968
  H  0.32042138  3.58506650 -0.64672925
  H -0.29575488  1.93005495  0.89372578
  H -2.03390205  1.16199171  2.27217177
  H -3.97619804  2.49142995  2.93474799
  H -4.58287192  0.94933196  2.29055779
  H -4.51830223  2.38571333  1.24243699
