24
opt_min/./Product_17_opt.xyz
  C -0.73704000  2.60173100  0.30050500
  C -0.23913807  1.20406202  0.29020461
  C  0.51576555  0.56380328  1.17363883
  F  1.00622733  1.04579950  2.32026011
  C  0.82083072 -0.84794449  0.74740999
  C  2.34339298 -1.06333798  0.64698097
  C  2.93568834 -0.59515355 -0.64971460
  O  2.96256411 -1.55061555  1.55134508
  O  0.18460566 -0.95114188 -0.51640008
  C -0.57581843  0.21209167 -0.79823953
  C -2.09814341 -0.01663050 -0.80159258
  C -2.56187571 -1.31566636 -0.21618450
  O -2.83374449  0.86068989 -1.17165547
  H -0.63767648  3.02837672  1.29517568
  H -1.77820296  2.62613238 -0.01330015
  H -0.16480393  3.20832827 -0.40083433
  H  0.41862409 -1.58413162  1.45738896
  H  2.51466034  0.36148944 -0.94412048
  H  2.67778395 -1.32115082 -1.41901743
  H  4.01655373 -0.53217023 -0.56339215
  H -0.29949056  0.58440060 -1.79500866
  H -2.66840486 -1.18473183  0.86040043
  H -1.84264028 -2.10522641 -0.40610866
  H -3.53797555 -1.56929547 -0.62174273
