38
opt_min/./Product_3880_opt.xyz
  C -2.01499200 -2.12690600  0.66192300
  C -1.03123401 -0.96054973  0.72909658
  C  0.43499698 -1.24606174  0.32132367
  C  0.71108683 -2.68690203 -0.08726320
  C  0.72971578 -0.17825303 -0.80252990
  C  1.09346611 -0.74829409 -2.17634538
  C  1.82117536  0.76072795 -0.32257458
  C  1.53918657  2.07956870  0.00764413
  C  2.53508923  2.91834073  0.47770380
  C  3.82653652  2.44909356  0.62606774
  C  4.11677249  1.13637717  0.29547855
  C  3.12261906  0.29866434 -0.17604388
  N -0.50287504  0.55572521 -0.99414736
  C -1.41422133  0.14709079 -0.21692278
  C -2.76791626  0.77888831 -0.23506177
  N -2.92324493  1.64094432 -1.25656936
  C -4.11628144  2.42212797 -1.44433733
  O -3.62732367  0.54141440  0.59331227
  H -2.00186892 -2.60492228 -0.31426613
  H -3.01440861 -1.73978256  0.84523160
  H -1.78038291 -2.86629326  1.42287174
  H -1.06185853 -0.55393139  1.74769030
  H  1.09069889 -1.01688284  1.16909862
  H  0.13507996 -2.98102664 -0.95942603
  H  1.76708841 -2.81693009 -0.30660347
  H  0.45878777 -3.36116334  0.72826967
  H  1.28796979  0.08024225 -2.85479407
  H  0.26016413 -1.32140393 -2.57685570
  H  1.97022287 -1.38316647 -2.13797527
  H  0.53246570  2.45244624 -0.10804151
  H  2.29619859  3.94281903  0.72844136
  H  4.60498641  3.09895753  1.00024527
  H  5.12324258  0.76394212  0.40370853
  H  3.36791450 -0.72457496 -0.41910881
  H -2.11429225  1.79272875 -1.84147102
  H -4.97469556  1.82916345 -1.12721423
  H -4.22431401  2.68529995 -2.49257286
  H -4.09231835  3.33712567 -0.84381243
