58
opt_min/./Product_5906_opt.xyz
  C -0.43365600  1.22927700  0.40566500
  O  0.38993320  1.94514882  0.92730855
  C -1.79180474  1.14573645  0.97275583
  O -2.11003804  1.98985363  2.00459482
  C -1.82586869  3.37383723  1.87271653
  C -2.66693549  0.16327248  0.61637573
  O -3.90886880 -0.06863323  1.06595339
  C -4.57044422  0.80650892  1.95485023
  C -2.31978581 -0.82889779 -0.43511487
  O -3.19767336 -1.48619805 -0.93942654
  C -0.86629988 -0.90378497 -0.89228277
  C -0.86622348 -1.60226881 -2.26873886
  C -0.18298221  0.49518275 -0.92084563
  C -0.74660012  1.42747868 -1.99481909
  C  1.33237470  0.10001573 -0.99512829
  C  1.88889889 -0.25285133 -2.39556260
  C  2.29511086  1.14355684 -0.44283837
  C  3.06777514  0.87089830  0.67581750
  C  4.01308659  1.78317231  1.11058405
  C  4.20571199  2.96994094  0.42702326
  C  3.44969378  3.23780711 -0.70228440
  C  2.50756867  2.32682019 -1.14184684
  O  1.38609083 -1.08697116 -0.19790440
  C  0.10587863 -1.61849147  0.09064027
  C  0.12847433 -3.16182821 -0.11914423
  N  1.33538927 -3.63812405 -0.45171505
  C  1.56038143 -5.05516517 -0.63407455
  O -0.86131857 -3.84510761  0.01312661
  C -0.14396635 -1.45768184  1.60608205
  C -1.40208502 -2.04622400  2.18472197
  O  0.72898437 -1.00363665  2.29972295
  H -2.27230372  3.83505628  2.75174014
  H -0.75555925  3.57639118  1.85575288
  H -2.29315610  3.77984892  0.96957199
  H -5.52051901  0.31991461  2.17319552
  H -4.00668655  0.95428287  2.87645281
  H -4.76044705  1.77876572  1.49303695
  H -0.10403235 -2.36955979 -2.34344939
  H -1.82685090 -2.09605109 -2.40673385
  H -0.73883199 -0.88665668 -3.07244069
  H -1.78927103  1.18478424 -2.19627092
  H -0.70815179  2.46320762 -1.65552093
  H -0.19916600  1.37738316 -2.93097611
  H  2.96966785 -0.11864921 -2.38548223
  H  1.49128847  0.38340822 -3.17764423
  H  1.69468918 -1.29037409 -2.64183916
  H  2.90173377 -0.04199584  1.22506545
  H  4.59855267  1.56687264  1.99240578
  H  4.93877663  3.68558888  0.76935348
  H  3.59621569  4.16189186 -1.24276415
  H  1.93306942  2.55641865 -2.02755350
  H  2.12931788 -3.01951216 -0.53863671
  H  0.64376087 -5.50907013 -1.01077413
  H  1.81576480 -5.53534112  0.31295094
  H  2.36597882 -5.20765047 -1.34848382
  H -2.06752492 -2.46495440  1.43925795
  H -1.90859923 -1.28385534  2.77407268
  H -1.10332587 -2.83352467  2.87660393
