38
opt_min/./Product_3958_opt.xyz
  C -0.33885616 -1.75893311 -1.44765551
  C -0.92318288 -0.54638461 -0.72022648
  C -1.01694925  0.63305978 -1.69175404
  C -0.06623898 -0.18697713  0.52676616
  C  1.41643667 -0.38134453  0.44574394
  C  2.25600381  0.19327834 -0.41147766
  C  3.70588025  0.02232476 -0.40312639
  C  4.48436723  1.20537773 -0.88551520
  C  4.28585697 -1.10985925 -0.01942833
  C -0.70100840 -1.03141650  1.62712958
  O -2.08594034 -1.01891983  1.36731678
  C -2.29725718 -0.91344982 -0.04590734
  C -2.81275507 -2.20477738 -0.48242712
  N -3.25017538 -3.23322731 -0.72126051
  C -3.46611807  0.07059822 -0.32589644
  O -3.93089603  0.21566031 -1.43355092
  N -3.88460375  0.71175042  0.77260705
  C -5.03241267  1.58563019  0.76354647
  H -1.05350984 -2.16396317 -2.15997486
  H  0.55575767 -1.45560819 -1.98800579
  H -0.06332229 -2.54757891 -0.75014821
  H -1.79400114  1.33866813 -1.41386980
  H -1.23884010  0.27488880 -2.69400379
  H -0.07524265  1.17135412 -1.71692503
  H -0.27606861  0.86461503  0.76570196
  H  1.82094290 -1.04635194  1.19850629
  H  1.88505677  0.91230262 -1.13362408
  H  4.22482777  2.08910270 -0.30373983
  H  5.55289416  1.03052543 -0.80142133
  H  4.24659609  1.41102158 -1.92912461
  H  3.70848145 -1.96425541  0.29050763
  H  5.35466391 -1.23307229  0.00041044
  H -0.54278838 -0.60916694  2.62248123
  H -0.32963976 -2.06584687  1.61770950
  H -3.46963684  0.45559690  1.65704356
  H -4.87151719  2.41071311  1.45558330
  H -5.15686496  1.96865162 -0.24865451
  H -5.94020184  1.04688451  1.04591431
