32
opt_min/./Product_678_opt.xyz
  C  5.05756600 -0.16168000 -1.27591999
  O  3.92907543 -0.30028885 -0.42094455
  C  3.35131935  0.82802120  0.00247838
  O  3.73003012  1.94122807 -0.25723802
  C  2.17459460  0.55050352  0.84010804
  C  1.63233973 -0.58286212  1.31083539
 Cl  2.08309953 -2.18775391  1.10371067
  C  0.38788990 -0.15428623  2.07799756
  C -0.69070224  0.23407992  1.01836773
  C -0.04127477  1.48805952  0.40314769
  C  1.22734143  1.63581531  1.32328591
  O  0.76145770  1.11966761  2.55442763
  N  0.22936736  1.09391416 -0.95311057
  C  0.62541504  1.83892098 -1.94968021
  N  0.98193892  2.49913024 -2.81720505
  O  0.12463137 -0.31654608 -1.10160347
  C -0.85739482 -0.70926064 -0.17648255
  C -2.27728006 -0.56195971 -0.75863524
  O -3.14853729 -1.16795828  0.04765443
  C -4.52659579 -1.12054801 -0.32696054
  O -2.54485773  0.02214659 -1.76675908
  H  5.55775637  0.78873286 -1.08462600
  H  4.72570296 -0.19311706 -2.31644649
  H  5.71879454 -1.00092159 -1.06744518
  H  0.05437628 -0.81491195  2.87214773
  H -1.62568422  0.43183010  1.54001335
  H -0.66485045  2.38423526  0.41149648
  H  1.63653566  2.63483731  1.42223609
  H -0.67289531 -1.75815342  0.06661397
  H -4.96376404 -2.07485024 -0.04021410
  H -5.01771280 -0.30730011  0.21104005
  H -4.61549127 -0.95603516 -1.40182829
