42
opt_min/./Product_5517_opt.xyz
  C  0.14974592 -1.45896978 -0.69776745
  O  1.02529861 -2.27942869 -0.63716069
  C  0.17843550 -0.25740578  0.29885975
  O  0.04651243 -0.91453263  1.51141773
  C  0.31972934 -0.25592912  2.74141133
  C -0.83061671  0.89292418 -0.02873794
  O -1.22288222  1.45333450  1.19738647
  C -1.70518077  2.78892449  1.24696027
  C -2.04764602  0.52201718 -0.87515488
  O -3.08409745  1.13423450 -0.76372139
  C -1.89494018 -0.59190330 -1.82246616
  C -2.96644144 -0.69463995 -2.85637441
  C -0.94401158 -1.54246380 -1.68041451
  C -0.90667747 -2.74760454 -2.56072987
  C  0.13830276  1.86090572 -0.81469653
  C -0.39677785  3.09755872 -1.30028388
  N -0.78333664  4.07637073 -1.74599187
  N  1.22039064  1.88021613  0.15919317
  C  1.55447954  0.49602705  0.02458290
  C  2.80478083  0.02359962  0.77149835
  O  3.42919106  1.08400255  1.28980254
  C  4.61784238  0.82107278  2.03605899
  O  3.17633443 -1.10448879  0.85693185
  O  1.73215674  0.30420912 -1.41750227
  C  0.75075190  1.01562624 -1.97620233
  O  0.41799701  0.98967710 -3.11809203
  H -0.43787400  0.49000902  2.97179052
  H  1.30523353  0.21568116  2.72243580
  H  0.30566100 -1.06180878  3.47206253
  H -2.49280115  2.96586132  0.51633768
  H -2.10745048  2.88742240  2.25324882
  H -0.88521277  3.49921628  1.10914448
  H -2.55701559 -1.02180370 -3.80840977
  H -3.45296941  0.26925835 -2.98093003
  H -3.71814793 -1.41861639 -2.54062709
  H -0.07220006 -3.38237061 -2.27672542
  H -0.79801716 -2.45623223 -3.60491953
  H -1.83778276 -3.30654238 -2.47176612
  H  1.98887962  2.50615350 -0.06692157
  H  5.23609542  1.71136850  1.95352339
  H  5.12712590 -0.05290513  1.62810680
  H  4.35655870  0.63849493  3.07955016
