33
opt_min/./Product_703_opt.xyz
  F -0.85512517 -2.97552316  0.56761257
  C -1.13676681 -2.01629092 -0.32625732
  F -0.67169696 -2.43725273 -1.51006217
  F -2.47073891 -2.02166906 -0.42853120
  C -0.53433385 -0.66602605  0.05174489
  C -1.05905427 -0.06991065  1.40606401
 Cl -2.23822438 -1.03300507  2.33326890
  C -1.58534941  1.31949158  1.00762387
  C -2.85789364  1.13903006  0.16939489
  C -2.31709788  0.67400521 -1.19696118
  C -0.81731175  0.49033346 -0.93766684
  C -0.55591579  1.71715404 -0.05178527
  N  0.09177571  0.02877481  2.26172720
  N  1.12311624 -0.36794379  1.76131358
  C  0.98401353 -0.83967768  0.38582939
  C  2.04106137 -0.07533693 -0.49575577
  N  3.12811837  0.23165421  0.21588983
  C  4.28096303  0.86820269 -0.37708301
  O  1.88597284  0.12439013 -1.67329993
  C  1.53358577 -2.18094730  0.30960834
  N  2.05002675 -3.19772124  0.25156506
  H -1.69974288  1.96785409  1.87274792
  H -3.38395384  2.08898879  0.08901991
  H -3.53133095  0.41193140  0.61782791
  H -2.43422859  1.45780840 -1.94596320
  H -2.81539714 -0.20972203 -1.58034757
  H -0.22980035  0.41371815 -1.84910489
  H -0.81359283  2.64401798 -0.55678543
  H  0.46048039  1.79704413  0.33191451
  H  3.14302104  0.02904791  1.20611384
  H  4.35638460  1.90927990 -0.05657859
  H  4.16749794  0.83588555 -1.45917857
  H  5.18509893  0.33628179 -0.08562705
