64
opt_min/./Product_5959_opt.xyz
  C  0.39879600 -2.12088200 -0.41707700
  C -0.60289097 -2.97251444  0.30178466
  C -1.34918596 -2.49428753  1.29753286
  N -1.26079130 -1.21503692  1.76783823
  C -1.94317830 -0.84309394  2.97893726
  C -0.43771578 -0.26132882  1.09841894
  C  0.79667635 -0.89640763  0.41345031
  C  1.74131489 -1.23056660  1.57379254
  N  1.91245357 -2.54544258  1.84654104
  O  2.27863934 -0.37834494  2.24832781
  C  1.27116990  0.27187599 -0.50433070
  C  1.79634644 -0.18326173 -1.87079470
  O  2.67995898 -1.17925453 -1.81949609
  C  3.26461746 -1.57048405 -3.05526893
  O  1.45120605  0.33921338 -2.90167407
  C  2.40232813  1.14893498  0.04515134
  C  3.70256914  0.67208600  0.17021056
  C  4.71101973  1.49444472  0.63523542
  C  4.44150783  2.80627987  0.98024814
  C  3.15114810  3.28825365  0.85736628
  C  2.14172590  2.46815634  0.38902426
  N  0.08464986  1.06808452 -0.70368471
  C -1.09887095  0.61875938 -0.01515355
  C -2.07627694 -0.19479256 -0.84900030
  C -3.26262131 -0.63793980 -0.27332365
  C -4.15902699 -1.39877845 -0.99763662
  C -3.89393341 -1.71773042 -2.31934374
  C -2.73635706 -1.24875664 -2.91330033
  C -1.83540974 -0.48978817 -2.18535118
  C -1.80301364  1.87112206  0.51102608
  C -2.87756152  2.39846712 -0.19876716
  C -3.50215815  3.56331613  0.20491164
  C -3.05832515  4.24153438  1.32465761
  C -1.96996382  3.74898406  2.02207576
  C -1.34463675  2.58228444  1.61486581
  H -0.03134984 -1.78986204 -1.36751442
  H  1.29083781 -2.70587796 -0.66368161
  H -0.75043032 -3.98019099 -0.05471181
  H -2.06889185 -3.11600825  1.80946120
  H -2.92798489 -1.31514171  3.02310582
  H -2.07798155  0.23594902  3.01070450
  H -1.37553738 -1.15010125  3.86666174
  H -0.02511145  0.42330331  1.84689543
  H  1.28650625 -3.24189841  1.47588604
  H  2.45555854 -2.78037237  2.66229646
  H  3.72913778 -2.53852187 -2.88382430
  H  4.01425694 -0.83614522 -3.35889154
  H  2.49777384 -1.63799929 -3.83050778
  H  3.93011432 -0.35281562 -0.07639461
  H  5.71345418  1.10574619  0.72944628
  H  5.23090956  3.44742311  1.34302169
  H  2.92544411  4.31005673  1.12808186
  H  1.13777000  2.84970669  0.29044677
  H -0.01500863  1.50146977 -1.60706695
  H -3.49919387 -0.36257001  0.74247717
  H -5.07267970 -1.74150436 -0.53265516
  H -4.59177632 -2.31561324 -2.88578001
  H -2.53016607 -1.47078961 -3.94962862
  H -0.94656387 -0.12044657 -2.67572259
  H -3.23574863  1.89384628 -1.08446055
  H -4.33773418  3.94573836 -0.36530152
  H -3.54743062  5.15055325  1.64302719
  H -1.59634538  4.27530768  2.88859706
  H -0.48219038  2.24991615  2.17414294
