34
opt_min/./Product_4453_opt.xyz
  O  1.51409700 -3.46666500  1.10612400
  C  1.31929216 -3.30812151  2.22390135
  O  1.09899354 -3.25525744  3.34575139
  C -1.06127520 -0.99628751  1.23131936
  C -2.21392320 -0.44245669  0.90127986
  C -2.76991221 -3.45273769 -0.00217984
  O -1.81748630 -3.55009399 -0.62861656
  O -3.72300554 -3.33706647  0.61917061
  C -2.04475201  0.42550922 -0.33054091
  C -2.77000709 -0.15127568 -1.55060711
  C -2.55927564  1.82377113 -0.00110756
  O -1.83639634  2.76451578  0.21427499
  O -3.88546706  1.87399196  0.06252766
  C -4.44788008  3.13351788  0.41078943
  N -0.59769932  0.47595735 -0.55535407
  C  0.00945681 -0.58459220  0.25206818
  C  1.33742353 -0.22987803  0.91643568
  N  2.05024002  0.70818744  0.27136464
  C  3.34508290  1.15258352  0.72611327
  O  1.71240201 -0.77539884  1.93807084
  H -0.84653748 -1.65347033  2.05268708
  H -3.16521028 -0.53993867  1.38923000
  H -2.63082653  0.50334712 -2.40662190
  H -2.34636739 -1.12335963 -1.78642935
  H -3.83111866 -0.25281466 -1.34199568
  H -5.52334357  2.98405914  0.45694827
  H -4.06314628  3.46525200  1.37631716
  H -4.19548022  3.88096627 -0.34384784
  H -0.29020904  1.39047209 -0.22180543
  H  0.22533133 -1.44931910 -0.40087378
  H  1.71000109  1.06000283 -0.61011554
  H  3.54639493  0.65922751  1.67546022
  H  4.12104316  0.88292927  0.00680914
  H  3.34920492  2.23358192  0.86945895
