35
opt_min/./Product_477_opt.xyz
  C -1.50987400  3.13943800  1.39384900
  O -1.20270937  1.99241348  0.60641471
  C -0.23169112  1.19489769  1.03037558
  O  0.38698879  1.34837747  2.05140934
  C  0.03566915  0.05287154  0.06084245
  C -0.82889415 -1.23328096  0.20653529
  C -1.69110943 -1.37585165  1.46283875
  C -2.85032285 -0.41854196  1.55215213
  O -1.45181097 -2.20149372  2.29907211
  C -1.64450241 -1.19960577 -1.14286977
  C -0.64241158 -1.63609776 -2.18678627
  C  0.15034642 -0.58602529 -2.35748651
  C -0.36460381  0.46750114 -1.40125496
  O -1.75384326  0.18735408 -1.38202037
  N  0.14594412 -2.31697204  0.18618793
  N  1.30142558 -1.95382071  0.22046582
  C  1.44980318 -0.51481614  0.29158602
  C  2.52947770  0.05487293 -0.61600811
  O  3.02656715 -0.87315215 -1.42273680
  C  4.09388727 -0.49409934 -2.28668241
  O  2.86404744  1.20775121 -0.59881198
  H -2.48494493  2.99403908  1.86192904
  H -1.54783444  3.99416771  0.72062821
  H -0.74593526  3.28294094  2.16025524
  H -2.59228469  0.35808986  2.27163717
  H -3.71461529 -0.95023791  1.94717080
  H -3.08163465  0.04350184  0.59759230
  H -2.61946414 -1.67340525 -1.10848347
  H -0.61941338 -2.60663209 -2.63699607
  H  1.02612949 -0.48599501 -2.96437921
  H -0.15123926  1.50163949 -1.65680894
  H  1.73833323 -0.27707806  1.32817869
  H  5.04095932 -0.79520418 -1.83758971
  H  3.94707080 -1.02342130 -3.22732489
  H  4.08694480  0.58661356 -2.44214250
