54
opt_min/./Product_2028_opt.xyz
  C  1.87522103 -3.21219356  0.33588075
  C  1.66197094 -1.82328080  0.81591902
  C  2.40898923 -0.71192265  0.75048229
  C  3.73956576 -0.45700917  0.23776238
  C  4.71911017 -1.45181492  0.23341432
  C  5.98010418 -1.19525580 -0.26779015
  C  6.29104277  0.05661592 -0.77309927
  C  5.33212463  1.05585382 -0.76159896
  C  4.06930362  0.80696168 -0.25764018
  C  1.49401828  0.38545694  1.29114363
  C  0.46059982  0.64444277  0.16185771
  C -0.38862318 -0.63651762  0.23708129
  C  0.33176674 -1.37389565  1.39973619
  O  0.71550975 -0.30638819  2.24841015
  C -1.82285777 -0.14722566  0.55556798
  C -2.10404100 -0.22249891  1.98678390
  N -2.39977612 -0.18508729  3.09087331
  C -2.85681205 -0.94865826 -0.21113908
  C -3.22979306 -0.53861659 -1.48493290
  C -4.14300771 -1.27965699 -2.21215244
  C -4.68414314 -2.43701851 -1.67592937
  C -4.30730595 -2.85137527 -0.41041875
  C -3.39467756 -2.11176845  0.32162062
  N -1.81446561  1.25883130  0.13696877
  C -2.95289681  2.04500811  0.56328517
  C -0.51864154  1.78351876  0.49663046
  C -0.11769622  3.03722221 -0.25636819
  O -0.94391288  3.33755083 -1.25332399
  C -0.63619135  4.48035333 -2.04254435
  O  0.87985113  3.66025659  0.00553612
  H  2.20382432 -3.85196736  1.15645274
  H  2.62423304 -3.24163586 -0.45213208
  H  0.93695687 -3.61660166 -0.04335619
  H  4.49656024 -2.42014366  0.65529803
  H  6.72837772 -1.97524348 -0.26079354
  H  7.27782766  0.25253025 -1.16554031
  H  5.56864808  2.03819499 -1.14350026
  H  3.33121572  1.59515825 -0.25695202
  H  1.95729509  1.27402337  1.70647589
  H  0.94412283  0.79139198 -0.80466206
  H -0.38788036 -1.22757545 -0.67967975
  H -0.25837452 -2.11284324  1.93424541
  H -2.80018048  0.36456361 -1.88786703
  H -4.43458439 -0.95649273 -3.20071317
  H -5.39871578 -3.01534147 -2.24292661
  H -4.72613256 -3.75338294  0.01119992
  H -3.10494015 -2.43199904  1.31249884
  H -3.83672461  1.41027968  0.60950913
  H -3.13027073  2.83815190 -0.16289470
  H -2.79970490  2.49418224  1.55438220
  H -0.42694966  2.01537224  1.57699896
  H -1.20912031  5.33483179 -1.67619320
  H -0.92573751  4.24902109 -3.06578060
  H  0.43058598  4.70202758 -1.97908562
