60
opt_min/./Product_2484_opt.xyz
  C -3.36962700 -1.38635400 -2.83538300
  N -2.65946307 -0.94602690 -1.65501463
  C -2.63772369 -1.70994076 -0.54382179
  O -3.16518942 -2.78916784 -0.47496302
  C -1.88001623 -0.99902477  0.64117177
  C -1.68057120 -1.95745587  1.84406676
  O -2.11418959 -3.07258763  1.93882699
  N -0.94647390 -1.35654555  2.81475472
  C -0.62282237 -2.03432275  4.04525860
  C -0.54552956 -0.71639707  0.05134047
  C  0.14377524  0.34665054 -0.39065016
  C  0.07479947  1.82791013 -0.18898062
  F  1.41422548  2.25901267 -0.11754778
  C -0.59634134  2.44155223 -1.44011586
  C -0.34257935  3.89415320 -1.67697917
  O -1.37584039  1.76961174 -2.07733570
  C -0.44364096  2.40499759  1.13693935
  C -1.92216395  2.47995553  1.48558972
  C -2.67422535  1.24967353  1.98603613
  C -2.92991240  0.05177931  1.07452729
  N  1.14099961 -0.07216589 -1.29889311
  C  1.84095170  0.72056356 -2.16884141
  C  3.14806944  0.13815443 -2.63504143
  O  1.43901982  1.82195704 -2.50019041
  N  1.11022896 -1.48365866 -1.46638634
  C  0.51686376 -1.83221823 -2.75628487
  C  0.27652225 -1.94503382 -0.36165925
  C  1.17899034 -2.36752119  0.80261937
  O  2.25166008 -1.57450495  0.86410441
  C  3.19848493 -1.85218711  1.88849955
  O  0.96496501 -3.27176331  1.55857623
  H -4.38198102 -1.69058159 -2.56643510
  H -2.87263244 -2.24657159 -3.29108328
  H -3.40623783 -0.56830644 -3.54942424
  H -2.19621113 -0.04496013 -1.69301866
  H -0.59734900 -0.42361254  2.67161000
  H -0.74690044 -3.10157967  3.87006304
  H  0.41014547 -1.83433062  4.32873118
  H -1.28503761 -1.72177379  4.85750385
  H -0.66732419  4.16092485 -2.67842395
  H  0.71548335  4.10876372 -1.56126015
  H -0.90706607  4.47710210 -0.94982647
  H  0.11298710  1.92723291  1.94789270
  H -0.09687546  3.44230034  1.09203002
  H -2.47529264  2.94346109  0.66531889
  H -1.96716351  3.17945598  2.32688194
  H -2.27254306  0.92992818  2.94995607
  H -3.68045111  1.62611292  2.19703223
  H -3.65642422 -0.55872759  1.62406279
  H -3.45595856  0.42225451  0.19126147
  H  3.67403875 -0.27056710 -1.77725624
  H  3.72905272  0.93023204 -3.09822271
  H  3.00610947 -0.66002146 -3.35732046
  H -0.41525931 -1.29128499 -2.94979709
  H  0.32276542 -2.90120666 -2.76257883
  H  1.21518089 -1.60622669 -3.55903865
  H -0.34242869 -2.79868087 -0.64284149
  H  4.16793997 -1.53382205  1.51380771
  H  2.94210103 -1.29151898  2.78942651
  H  3.19732560 -2.91929542  2.11761065
