51
opt_min/./Product_5441_opt.xyz
  C -0.20137600 -2.43513800  0.70668100
  C -0.32101554 -1.21693073 -0.20842345
  C  0.22866994 -1.57266641 -1.59134317
  C  0.45552641 -0.03351575  0.43540980
  C  1.94511531 -0.14911774  0.40436732
  C  2.80091147  0.39283535 -0.45916194
  C  4.24789340  0.23367195 -0.42475757
  C  4.85675964 -0.55424874  0.69685493
  C  4.99766264  0.78787411 -1.37687376
  C -0.23966815  1.22726840 -0.12442374
  C -0.30889845  2.28283641  0.98418589
  O -1.30501574  3.14009763  0.80029887
  C -1.45967816  4.15214419  1.78587928
  O  0.45390819  2.33388061  1.91622956
  C  0.33867731  1.86546872 -1.41691290
  C  0.98389839  3.21477899 -1.25375774
  O  0.18964539  1.34398915 -2.48789097
  O -1.55499170  0.81806302 -0.45434269
  C -1.74235231 -0.58495758 -0.31765674
  C -2.66883911 -0.88346220  0.87203644
  C -3.19596910  0.32264221  1.59227104
  O -2.97225679 -2.01233745  1.17198639
  C -2.59581525 -1.02082886 -1.53932700
  C -2.89450784 -2.48237758 -1.70296883
  O -3.00377967 -0.18762613 -2.30007854
  H -0.84531105 -3.25049388  0.39326663
  H  0.82897495 -2.78207199  0.67136768
  H -0.44980492 -2.19949302  1.73756063
  H -0.01331868 -0.80475387 -2.32072500
  H -0.17505588 -2.52346346 -1.92605686
  H  1.31255381 -1.66057518 -1.54690135
  H  0.18284393 -0.04340112  1.50163857
  H  2.32152057 -0.77264863  1.20277600
  H  2.43917742  1.00176853 -1.27190490
  H  4.50051996 -1.58319164  0.67529255
  H  4.58221948 -0.11935332  1.65577485
  H  5.93963936 -0.56174294  0.61390874
  H  4.56645005  1.35373796 -2.18599881
  H  6.06985960  0.69002758 -1.38892864
  H -0.61962682  4.84885120  1.74779443
  H -2.38994008  4.66393958  1.55611876
  H -1.50098199  3.70707309  2.78258597
  H  1.50912637  3.49029143 -2.16568834
  H  0.18804387  3.93917066 -1.08582717
  H  1.66701238  3.23315156 -0.40784463
  H -4.05347356  0.04155337  2.19691754
  H -3.44963784  1.10393084  0.88186013
  H -2.41306752  0.70210013  2.24991781
  H -2.36240334 -3.11124523 -1.00208552
  H -3.96335388 -2.61779411 -1.54934491
  H -2.67365290 -2.77457266 -2.72642295
