45
opt_min/./Product_4807_opt.xyz
  C -0.34025200 -2.30211690 -1.02623291
  C -0.63990342 -0.83668556 -0.65170579
  C -0.83566723 -0.00322031 -1.90842258
  C  0.49830362 -0.26870894  0.25047678
  C  1.88589839 -0.60849415 -0.18058799
  C  2.72299600 -1.43044830  0.45043833
  C  4.07168201 -1.79566621  0.04856933
  C  4.73060262 -1.14671690 -1.13712668
  C  4.72606940 -2.72241933  0.75167944
  C  0.01940773 -0.75629230  1.59784886
  C  0.82408201 -0.80665419  2.75764229
  N  1.45106304 -0.84053476  3.71811859
  N -1.22273808 -1.02393153  1.65703602
  C -1.83377011 -0.78471031  0.37175100
  C -2.96087561 -1.78976959  0.11881455
  C -3.55418093 -2.37261266  1.36484985
  O -3.36133366 -2.03388163 -0.99112268
  C -2.54671070  0.57302178  0.40588277
  C -3.45758567  0.91338233 -0.58908347
  C -4.08110449  2.14741797 -0.57834703
  C -3.81342805  3.05907300  0.42884100
  C -2.92025345  2.72231246  1.42948733
  C -2.29184493  1.48869623  1.42001643
  H -1.01859433 -2.99465601 -0.53476348
  H -0.44436681 -2.44834259 -2.09767678
  H  0.67359898 -2.58096614 -0.74603072
  H -1.67284380 -0.39055507 -2.48286464
  H  0.05901190 -0.06394268 -2.52574051
  H -1.02308489  1.04273938 -1.67350302
  H  0.40710422  0.82938539  0.26852721
  H  2.17090580 -0.12144949 -1.10412980
  H  2.39724867 -1.91418846  1.36449735
  H  4.87995434 -1.87885027 -1.92977762
  H  5.70747002 -0.76123816 -0.85091979
  H  4.14692099 -0.32384948 -1.53525481
  H  4.28757939 -3.20290739  1.60943162
  H  5.72197603 -3.03363153  0.48628860
  H -4.40424443 -3.00198262  1.11520163
  H -3.85879943 -1.56669335  2.02860730
  H -2.79658994 -2.95111919  1.88957677
  H -3.69010621  0.21080527 -1.37355561
  H -4.78182467  2.39501803 -1.36152812
  H -4.30159610  4.02193183  0.43635612
  H -2.70566121  3.41937958  2.22563133
  H -1.60983561  1.24194818  2.21997294
