31
opt_min/./Product_866_opt.xyz
  F -1.01332117  1.02024213 -2.58177592
  C -1.13227170  0.42940948 -1.36147313
  C -0.33049011 -0.88581115 -1.19325764
 Br  0.49979486 -1.49027130 -2.85255807
  C -1.50413267 -1.87860527 -0.88330077
  C -2.05968359 -1.51831078  0.48075682
  C -2.76873522 -0.41493840  0.29073334
  C -2.60430082 -0.09978342 -1.18288305
  O -2.49900477 -1.38542884 -1.75589864
  C  0.64313732 -0.64331251 -0.04132688
  C  2.05454650 -0.22847708 -0.51977308
  C  3.21616585 -0.76679370  0.25936814
  O  2.17500794  0.54082206 -1.43502223
  N  0.00339149  0.43054519  0.71126731
  C  0.76243209  1.02996266  1.78985022
  C -0.60554519  1.36129237 -0.24156519
  C  0.31844239  2.38811076 -0.73747671
  N  1.06675387  3.21323348 -0.98522198
  C -1.66848508  2.14212421  0.37975248
  N -2.45308312  2.83540582  0.83551384
  H -1.28109511 -2.92199624 -1.08365228
  H -1.88044378 -2.07565303  1.37746206
  H -3.32782099  0.17624963  0.98651953
  H -3.35668770  0.50897097 -1.67463349
  H  0.70375595 -1.52253287  0.60977231
  H  2.94468798 -1.59296222  0.90884620
  H  3.63760462  0.03982692  0.85962419
  H  3.98761982 -1.07566197 -0.44306207
  H  1.12245986  0.23058807  2.43421680
  H  1.61114229  1.63401070  1.44797161
  H  0.08323075  1.66227375  2.36199012
