45
opt_min/./Product_4544_opt.xyz
  C -3.95062300 -1.09042500 -1.76412900
  C -2.70885538 -1.35655764 -0.95941772
  C -2.27411064 -2.79095251 -0.87033528
  C -2.03744590 -0.34107175 -0.42704733
  C -0.75362391 -0.41389583  0.31393864
  C  0.30700944  0.59715863 -0.19553709
  C  0.77865906  0.26434529 -1.57781098
  C  1.38726601 -1.09087826 -1.81402567
  C  0.55996310  1.10905720 -2.57382724
  N  1.26854626  0.56624442  0.88355966
  C  2.59318623  0.22092154  0.85984356
  C  3.20044607 -0.52196785  1.88391595
  C  4.54878880 -0.81104043  1.83363778
  C  5.32330772 -0.38987067  0.76681694
  C  4.73277147  0.34350260 -0.25017780
  C  3.39191253  0.65999218 -0.20599831
  N  0.48025254  0.60162128  2.07465660
  C -0.79092371 -0.07879976  1.82755791
  C -1.98985037  0.79820917  2.20312651
  C -1.68345369  2.16663440  2.74625609
  O -3.11115297  0.36750829  2.10042789
  H -4.54357702 -0.30443267 -1.30346070
  H -4.56700108 -1.98091616 -1.85245302
  H -3.68313728 -0.76560389 -2.76867152
  H -1.77108807 -2.99944774  0.07020611
  H -1.58542880 -3.02283858 -1.68266026
  H -3.12599931 -3.45904648 -0.95052878
  H -2.43054283  0.65897791 -0.55113587
  H -0.30245544 -1.40890131  0.22625218
  H -0.15364369  1.59681766 -0.17596633
  H  0.76055830 -1.65923305 -2.49817413
  H  2.37352044 -0.99463322 -2.26214012
  H  1.49880353 -1.65333994 -0.89297993
  H  0.10822423  2.07281552 -2.41665812
  H  0.82932519  0.86356192 -3.58697866
  H  2.61870399 -0.88943316  2.71775167
  H  4.99524794 -1.39030017  2.62958343
  H  6.37493145 -0.62548330  0.73240077
  H  5.33100214  0.69204648 -1.07831413
  H  2.94478251  1.25361511 -0.98598990
  H  1.00641370  0.20662102  2.84645649
  H -0.89943525 -1.00244807  2.40965439
  H -0.67595518  2.47782597  2.49685987
  H -1.78461017  2.12642554  3.82834716
  H -2.42114633  2.87083348  2.37134800
