45
opt_min/./Product_5148_opt.xyz
  C  0.93133706 -2.49222398 -0.83811597
  C  1.18506929 -0.98377187 -0.69702514
  C  2.45042035 -0.69751125 -1.51446903
  C -0.06474974 -0.09948323 -1.08289908
  C -1.07710752 -0.81643446 -1.99781706
  C  0.36772079  1.19028280 -1.79558392
  C -0.68510613  0.26946465  0.30286022
  C -1.13526403  1.75605469  0.38356775
  N -2.27930024  2.02532518 -0.26812510
  C -2.85212251  3.35232291 -0.26887283
  O -0.48864796  2.57990552  0.98430256
  C -1.85283814 -0.64341370  0.73772993
  O -3.02269237 -0.35196877  0.70209879
  O -1.39342801 -1.79811678  1.19524658
  C -2.33698248 -2.69263097  1.77264700
  O  0.31396893  0.11452346  1.28461955
  C  1.42058245 -0.63572242  0.81082391
  C  1.50637990 -1.81965035  1.66368260
  N  1.52473235 -2.72127419  2.36428066
  C  2.66416821  0.23570104  1.12166201
  O  3.57015237 -0.11609060  1.82525685
  O  2.55844865  1.43323144  0.56711606
  C  3.54048159  2.39123575  0.94264027
  H  0.90034489 -2.78110738 -1.88592900
  H  0.01254346 -2.79638520 -0.34704971
  H  1.75310201 -3.04134451 -0.38112622
  H  2.29739854 -0.99621751 -2.54969408
  H  3.26752340 -1.29787670 -1.11347889
  H  2.75090941  0.34261359 -1.48550646
  H -0.62838349 -1.64683630 -2.52986779
  H -1.93364808 -1.20165037 -1.45132667
  H -1.45607018 -0.12482640 -2.74768506
  H -0.50511615  1.73651535 -2.14627813
  H  0.92351696  1.83926891 -1.12325830
  H  0.98107848  0.96204778 -2.66247148
  H -2.83086042  1.28127838 -0.66385723
  H -2.40113290  3.91845613  0.54516607
  H -3.92872225  3.29180050 -0.11814650
  H -2.64523891  3.86289583 -1.21273744
  H -1.79475851 -3.61653081  1.95513470
  H -3.17685437 -2.84637566  1.09185673
  H -2.71111738 -2.28374876  2.71256741
  H  4.54200528  1.98760428  0.77999004
  H  3.35859398  3.26586436  0.32340086
  H  3.42627591  2.64713430  1.99703680
