34
opt_min/./Product_566_opt.xyz
  C -3.32326529  1.29802816  0.54819923
  N -2.13259897  0.65491372  0.03976325
  C -1.03094513  0.48687816  0.80407817
  O -0.93389931  0.92167992  1.92936473
  C  0.08412173 -0.26048676  0.07022891
  C  1.41906120 -0.54153879  0.79929675
 Br  1.46312147 -0.45646592  2.75529293
  C  2.42983672  0.39578103  0.12817350
  C  2.02173154  1.84889336  0.39009537
  C  0.80875370  2.04881410 -0.54192348
  C  0.57794661  0.63829540 -1.10270023
  C  2.02620727  0.20334116 -1.33522399
  C  1.68599388 -1.96940850  0.41970441
  N  0.79462729 -2.55843101 -0.24119476
  C -0.38173771 -1.70815063 -0.34672968
  C -1.42466828 -2.33637338  0.62575737
  C -0.94826446 -1.71664904 -1.67381651
  N -1.47788851 -1.68041429 -2.68750198
  H -3.10232056  1.64842769  1.55551936
  H -3.60707768  2.13318942 -0.09107255
  H -4.14746642  0.58208236  0.60156888
  H -2.17583882  0.27819756 -0.89416624
  H  3.45833992  0.16258536  0.40117706
  H  2.83957573  2.52321271  0.13660088
  H  1.76063292  2.01068203  1.43540249
  H  1.04235548  2.73763507 -1.35432610
  H -0.05485590  2.44857322 -0.01397148
  H -0.07973772  0.60643266 -1.97144672
  H  2.54679240  0.88308211 -2.00820519
  H  2.14406077 -0.81309411 -1.70643254
  H  2.60668833 -2.46515247  0.68153556
  H -2.25218217 -2.76412089  0.06292823
  H -1.81414209 -1.60192910  1.32289936
  H -0.94436670 -3.13382877  1.18785082
