35
opt_min/./Product_459_opt.xyz
  C  3.74268700  0.39047800  1.58028300
  O  2.84914377  0.87300685  0.59401032
  C  2.39972464 -0.00446796 -0.30548465
  C  2.45047598 -1.32996373 -0.47791937
 Cl  3.28391666 -2.57326177  0.35784659
  C  1.60137413 -1.60590393 -1.70491669
  C  0.08760334 -1.42825697 -1.28644356
  C  0.03944646  0.09887478 -1.10693877
  C  1.51554190  0.49181757 -1.44226900
  O  1.80673483 -0.43093037 -2.47292676
  N -0.35222799  0.30070115  0.26703808
  C -1.29524454  1.22201866  0.61095092
  O -1.88612481  1.29904407  1.65874409
  O -1.40353707  2.15230422 -0.37418089
  C -2.21726336  3.27891950 -0.07572855
  N -0.04751348 -0.90672981  0.96078651
  C -0.73892375 -1.11876454  2.21319971
  N -0.40444193 -1.93840153 -0.03231524
  C -0.00394780 -3.27786853  0.35099863
  H  4.06511387  1.26677683  2.14117357
  H  3.24633265 -0.31377485  2.25195647
  H  4.60827012 -0.09042490  1.11855913
  H  1.83130131 -2.49665005 -2.28083368
  H -0.55331965 -1.80733818 -2.08660434
  H -0.62354762  0.61983397 -1.79664797
  H  1.66949311  1.52755615 -1.72365494
  H -2.97007170  3.00905669  0.66761691
  H -1.59326664  4.08344717  0.31977755
  H -2.68319572  3.58545912 -1.00970123
  H -0.60373909 -0.23423934  2.82886406
  H -0.27080601 -1.97065219  2.70470801
  H -1.80938647 -1.30822291  2.08942147
  H -0.87120007 -3.80023044  0.76013566
  H  0.34129847 -3.81209275 -0.53256831
  H  0.80139416 -3.27506285  1.08658241
