49
opt_min/./Product_1859_opt.xyz
  C -1.96800868  3.76147108 -0.22736105
  N -1.29094019  2.63360247  0.36608146
  C -1.55895830  1.37937333  0.00098181
  O -2.47707690  1.06036388 -0.73392514
  C -0.71748055  0.31001206  0.71565022
  C -0.99825502 -1.11499102  0.17459650
  C -1.54863510 -1.15340124 -1.25974750
  C -2.76068625 -2.00515559 -1.52264612
  O -0.95261368 -0.61685036 -2.15651912
  C -1.85252377 -1.70313884  1.34668475
  C -3.14559827 -0.92228628  1.45431187
  C -2.80614295  0.23681076  1.99639105
  C -1.30363566  0.15633131  2.17833565
  O -1.11210629 -1.21310118  2.45668362
  C  0.38727126 -1.82118814  0.20296204
  C  0.71919206 -2.44968455 -1.06776368
  N  1.01264782 -3.01638532 -2.01586474
  N  1.35777040 -0.84177821  0.65049975
  C  2.73317707 -1.07515517  0.27765967
  C  0.82173373  0.49308390  0.66381879
  C  1.19741774  1.31426802 -0.60361537
  O  1.36413771  0.50789031 -1.62812257
  C  1.60644991  1.08147678 -2.90537160
  O  1.33166625  2.51136878 -0.62354105
  C  1.31696001  1.28487660  1.88038494
  O  0.89911238  2.38104978  2.16911973
  O  2.24670078  0.64712851  2.56025706
  C  2.76416801  1.29895342  3.71604587
  H -2.71656847  3.38324658 -0.92129134
  H -2.45463447  4.35421217  0.54851684
  H -1.25285144  4.38717783 -0.76161502
  H -0.48272433  2.83540050  0.94636323
  H -3.11656113 -2.54161733 -0.65277115
  H -3.54546077 -1.35298756 -1.90032718
  H -2.51102696 -2.70897860 -2.31533221
  H -1.91698998 -2.78847064  1.37515480
  H -4.10252499 -1.27562944  1.13030449
  H -3.40267419  1.09734286  2.22174349
  H -0.86304483  0.79438424  2.93648183
  H  0.36325458 -2.64014103  0.94415762
  H  2.88003950 -1.16777831 -0.80511258
  H  3.06280669 -2.00013220  0.75414398
  H  3.34749780 -0.25969143  0.64960878
  H  1.17596311  2.08236324 -2.95531670
  H  1.12789063  0.41856808 -3.62209089
  H  2.68192796  1.13516416 -3.08376763
  H  2.83640437  2.37415698  3.54437575
  H  3.74515917  0.86752335  3.89851301
  H  2.10734721  1.11244491  4.56742296
