55
opt_min/./Product_1868_opt.xyz
  C  0.60886000 -1.43635600 -2.41066400
  O -0.20423245 -1.56838902 -1.26630249
  C -0.53116483 -0.37664110 -0.58458299
  C -1.68194749 -0.59596332  0.46799156
  C -2.18302627 -2.02590803  0.69164109
  C -1.15346178 -3.06718711  1.02565987
  O -3.35278572 -2.30057711  0.62825383
  C -2.80196516  0.35843632  0.00322327
  C -3.45501770 -0.16976729 -1.27832011
  C -2.31740025 -0.04377340 -2.30449556
  C -1.19386527  0.66775059 -1.52014366
  C -2.01501357  1.53674967 -0.56884184
  C -1.03510041 -0.10726914  1.79343622
  C -1.57287813 -0.73078120  3.07528141
  C -0.54379238 -1.06083089  4.11949070
  O -2.75710074 -0.87064515  3.24324094
  O  0.34710874 -0.29329958  1.63603115
  C  0.70463754  0.11697969  0.32223431
  C  0.84230309  1.65104194  0.31249958
  N  1.23017279  2.18782136 -0.86630904
  C  1.40696887  3.60944677 -1.04513793
  O  0.61690154  2.32506541  1.29471113
  C  2.06478714 -0.53613062  0.08642641
  C  2.17608110 -1.92052061  0.19440153
  C  3.39360724 -2.55650925  0.03900996
  C  4.54117252 -1.82169780 -0.19969675
  C  4.45470633 -0.44300433 -0.25196171
  C  3.23437744  0.19477914 -0.10104289
  H  0.07009669 -0.99597730 -3.25518588
  H  0.91216312 -2.44920558 -2.67201184
  H  1.50577687 -0.84199268 -2.21243355
  H -0.36907349 -2.66394345  1.65861623
  H -1.64247599 -3.90756049  1.51405089
  H -0.71829570 -3.40867916  0.08749888
  H -3.50953822  0.56728550  0.80231397
  H -3.82223399 -1.18521308 -1.17724940
  H -4.29933809  0.46862256 -1.54036063
  H -2.61101409  0.56769101 -3.15856071
  H -2.01867970 -1.02174087 -2.67226958
  H -0.50298614  1.19296839 -2.17494295
  H -2.65308778  2.23488397 -1.10825441
  H -1.43366149  2.09278014  0.15804346
  H -1.24896536  0.96717665  1.92372023
  H -0.93268736 -0.79830963  5.10091947
  H  0.39056725 -0.54802100  3.91891719
  H -0.36952863 -2.13590294  4.11273021
  H  1.50194146  1.58702232 -1.62770504
  H  1.04784050  4.09872658 -0.14160143
  H  2.45990309  3.85975700 -1.19311081
  H  0.83179003  3.95694664 -1.90413422
  H  1.29941668 -2.50634308  0.39183769
  H  3.44496828 -3.63238274  0.11670033
  H  5.49364636 -2.31485423 -0.32351246
  H  5.34392032  0.15181486 -0.40074674
  H  3.22747439  1.27273965 -0.10716151
