43
opt_min/./Product_5173_opt.xyz
  C -0.62348155 -1.42466405 -0.70938700
  O -0.73060732 -2.21420059 -1.61704756
  C  0.06934355 -0.08624812 -0.86768451
  O  0.32543311  0.27394894 -2.21064987
  C  1.31913139 -0.47428557 -2.88592677
  C -0.69893371  1.10406938 -0.23909259
  O -1.76137408  1.45487058 -1.08216119
  C -2.39341847  2.70008607 -0.85662637
  C -1.28993416  0.75184082  1.13519561
  O -1.66821195  1.64316510  1.87107907
  C -1.44526102 -0.66231752  1.49139163
  C -1.99935997 -0.93114129  2.85630987
  C -1.15906285 -1.67494083  0.64432877
  C -1.40251936 -3.10011861  0.98983180
  C  0.51550628  2.11800118 -0.07682515
  C  0.44773444  3.26393864  0.93428303
  C  0.81027655  2.70285789 -1.37563718
  N  1.10659046  3.25641717 -2.33032410
  N  1.61671700  1.23549508  0.29230946
  C  1.36038269  0.05257242 -0.07247729
  C  2.19854775 -1.13342291  0.26458656
  N  3.47364389 -0.83017668  0.54768924
  C  4.43786327 -1.81449664  0.96971119
  O  1.71335138 -2.24897019  0.29387597
  H  2.32166726 -0.24174353 -2.50106824
  H  1.24600343 -0.15069521 -3.92263421
  H  1.13616019 -1.54841833 -2.82153541
  H -3.30042624  2.67628014 -1.45628903
  H -1.75297010  3.51971258 -1.20078910
  H -2.65626993  2.83775910  0.19624084
  H -2.08333793  0.00339693  3.40733092
  H -2.98981750 -1.37941675  2.77910371
  H -1.35816382 -1.62116263  3.40197216
  H -0.66489048 -3.43007511  1.72026927
  H -1.29880389 -3.70897496  0.09421289
  H -2.39281800 -3.23793336  1.42169463
  H -0.34168589  3.96200791  0.67938889
  H  1.40208464  3.78535421  0.91831375
  H  0.27994105  2.87122988  1.93236345
  H  3.73165686  0.14290860  0.56642102
  H  4.74754227 -1.63518554  2.00043683
  H  3.95931013 -2.79017823  0.89951743
  H  5.31381887 -1.79362791  0.32085683
