30
opt_min/./Product_427_opt.xyz
  C  0.62345400  3.41126100  0.05101800
  O -0.05474463  2.20880181  0.37003028
  C  0.54335961  1.03379528  0.10824350
  C  1.82155224  0.68945318 -0.17062965
 Br  3.39300443  1.73964953 -0.14979301
  C  1.88734231 -0.78918713 -0.47332244
  C  2.87123552 -1.56476128  0.42119050
  C  4.32168610 -1.44431721  0.06729947
  O  2.45550168 -2.22070385  1.34175744
  N  0.52629285 -1.23901025 -0.21147191
  N -0.26716100 -0.08038351  0.02543202
  C -1.64299428 -0.23874907  0.12053758
  C -2.20882216 -1.43566828 -0.31916019
  C -3.57224243 -1.63411965 -0.22542719
  C -4.39482736 -0.65368274  0.30386960
  C -3.83158022  0.53082703  0.74430867
  C -2.46838825  0.74474724  0.66582044
  H -0.13958167  4.18625705  0.10006722
  H  1.41526294  3.62873479  0.77171200
  H  1.04574001  3.36933961 -0.95553221
  H  2.15515065 -0.98764119 -1.52610386
  H  4.46954589 -1.08233609 -0.94500803
  H  4.79860550 -2.41309770  0.20518959
  H  4.79557164 -0.74920158  0.76135575
  H  0.54336790 -1.79622199  0.65711401
  H -1.56753694 -2.19415846 -0.73872403
  H -3.99119488 -2.56744204 -0.57443489
  H -5.45990738 -0.81357760  0.37513243
  H -4.45709424  1.30431173  1.16667559
  H -2.04755778  1.66623328  1.02547233
