43
opt_min/./Product_802_opt.xyz
  C -0.50010000 -1.18207100 -1.77646000
  C -0.76849783 -0.95970665 -0.27681876
  C -0.00992674 -2.00480122  0.56066916
  C -0.31756452  0.42054276  0.11976623
  C -0.92027454  1.52458014  0.58820050
  C -2.28098222  2.16622729  0.67031281
  F -2.16667018  3.27679770  1.48163736
  C -3.46060341  1.34911521  1.20464975
  C -4.17031505  0.52552885  0.12433316
  C -3.17553476 -0.20468311 -0.77408660
  C -2.26111055 -1.12986452  0.03363616
  N  0.13259274  2.49492810  0.92283105
  C  0.55504778  2.90687720 -0.41208744
  O  0.31067898  3.93877570 -0.93482811
  O  1.24602244  1.88021206 -0.92548217
  C  1.18796477  0.86056776  0.12994777
  C  2.33134475 -0.08812151  0.02365426
  C  2.96092895 -0.52725396  1.18045056
  C  4.04019809 -1.38826131  1.08837881
  C  4.49845395 -1.79910065 -0.15208162
  C  3.88768156 -1.33507806 -1.30565139
  C  2.80785422 -0.47396369 -1.22313355
  O  1.22358275  1.65910396  1.27480215
  H -0.58874528 -0.25376898 -2.33708019
  H  0.49815452 -1.58055235 -1.93567793
  H -1.21737705 -1.89331834 -2.17780079
  H  1.00927453 -2.14101405  0.21273808
  H -0.52049127 -2.96299989  0.49296196
  H  0.02103307 -1.70707590  1.60677539
  H -2.53178336  2.57093393 -0.32538351
  H -4.16700182  2.07493107  1.61569068
  H -3.12891341  0.72718515  2.03355171
  H -4.77997355  1.18990461 -0.48629403
  H -4.83136087 -0.19541926  0.60712589
  H -3.71466329 -0.77166745 -1.53491442
  H -2.57743505  0.53587754 -1.30107271
  H -2.54183239 -2.17162276 -0.13154333
  H -2.38148087 -0.93324129  1.09662095
  H  2.59956613 -0.19009842  2.13782256
  H  4.52695479 -1.73406594  1.98831233
  H  5.34168624 -2.46935133 -0.22117939
  H  4.25703052 -1.63724827 -2.27292349
  H  2.34885078 -0.07745363 -2.11586610
