63
opt_min/./Product_5913_opt.xyz
  C -0.00391100 -2.05177400 -2.07162900
  C -0.11116703 -1.44882963 -0.66808534
  C  0.35266521 -2.53107973  0.31500622
  C  0.77261217 -0.16285177 -0.63268307
  C  2.20116224 -0.42751401 -0.28646977
  C  3.04716482  0.38863956  0.33654512
  C  4.44860544  0.10550805  0.60713180
  C  4.99845973 -1.23844564  0.23086953
  C  5.21691677  1.03179443  1.18119474
  C  0.00700230  0.90931212  0.17218216
  C  0.37929843  1.01617902  1.65948144
  O  0.23125244  2.00941536  2.32612465
  O  0.81110078 -0.13597614  2.16652409
  C  1.13673098 -0.14095409  3.54756685
  C  0.15692090  2.26828862 -0.51620717
  C  1.03178336  3.25702278 -0.08545254
  C  1.13953403  4.45536402 -0.77132878
  C  0.38188275  4.68822907 -1.90424168
  C -0.48370814  3.70557217 -2.35049985
  C -0.59139185  2.51117152 -1.66335024
  N -1.38805264  0.48561553  0.05004988
  C -2.32150176  1.08564373  0.98233562
  C -1.54287179 -0.91496328 -0.30542916
  C -2.55855672 -1.07587288 -1.47981234
  N -3.25309280  0.04086061 -1.76676012
  C -4.29249380  0.05107866 -2.76827276
  O -2.73110233 -2.12335675 -2.05812792
  C -2.17369755 -1.73855098  0.83237086
  O -3.04248562 -2.55775375  0.69750722
  O -1.66841636 -1.40756989  2.02778471
  C -2.18347627 -2.12085793  3.14201861
  H -0.38479201 -1.37642039 -2.83370401
  H -0.55897619 -2.98279290 -2.13287302
  H  1.04353583 -2.25268239 -2.29015835
  H  0.58293735 -2.11402300  1.28816735
  H  1.24086581 -3.02621912 -0.07079652
  H -0.41536759 -3.29527780  0.41811045
  H  0.77729177  0.22162470 -1.66273483
  H  2.56735880 -1.37552284 -0.65150569
  H  2.70609423  1.35091274  0.68858468
  H  4.40544885 -2.03206109  0.68252204
  H  6.02668615 -1.33699741  0.56857909
  H  4.97585421 -1.36843888 -0.85034839
  H  4.82880358  2.00014427  1.44901699
  H  6.25647225  0.85379937  1.39592320
  H  1.15090570 -1.18257211  3.85931309
  H  0.39607117  0.42592807  4.11487260
  H  2.12004131  0.31041142  3.69651876
  H  1.61900062  3.12855036  0.80833203
  H  1.82180962  5.21203353 -0.41325748
  H  0.46751237  5.62422435 -2.43567919
  H -1.07726823  3.86839425 -3.23863370
  H -1.24705664  1.74112737 -2.03870305
  H -3.31778898  0.67486745  0.81943480
  H -2.34164771  2.16286358  0.79706484
  H -2.06795661  0.93357284  2.03658465
  H -3.02440347  0.90697168 -1.30827032
  H -4.12399869 -0.78895668 -3.44126883
  H -5.27748873 -0.06393747 -2.30943394
  H -4.26279506  0.98580587 -3.32637966
  H -1.77294520 -3.13243413  3.15954833
  H -3.27163250 -2.18476173  3.08129782
  H -1.87873702 -1.57030961  4.02884358
