34
opt_min/./Product_450_opt.xyz
  C  1.15312313  1.31163435  1.63047909
  C  0.43035225  1.44986559  0.29040380
  C  0.80126278  2.77331184 -0.37015636
  C -1.10659578  1.26001736  0.43521388
  F -1.46054836  0.98818848  1.72699597
  F -1.81972739  2.34185701  0.08343543
  C -1.39158671 -0.00136681 -0.44146016
  C -2.77234779 -0.62510049 -0.25131446
  N -2.73339651 -1.96204061 -0.09680389
  C -3.93619142 -2.75285596 -0.00373111
  O -3.77400448  0.04470774 -0.23788364
  N -0.19788589 -0.81590639 -0.23849088
  C  0.73987223  0.21729086 -0.63837659
  C  2.20933906 -0.17761506 -0.70358190
  O  3.07300275  0.56026022 -1.08697401
  O  2.39127057 -1.41466633 -0.26736138
  C  3.71740486 -1.94140530 -0.30358356
  O  0.26042925  0.54237645 -1.94370311
  C -1.08772889  0.46755054 -1.88041755
  O -1.83151994  0.70761461 -2.76909558
  H  2.22558888  1.39692825  1.46570611
  H  0.93922162  0.36033857  2.11534117
  H  0.83457940  2.11092157  2.29643187
  H  0.18901195  2.96860085 -1.24882904
  H  0.65332393  3.58921745  0.33419190
  H  1.84394711  2.74069931 -0.67880779
  H -1.84694692 -2.43983012 -0.15052960
  H -3.80465491 -3.54913327  0.72694316
  H -4.74463560 -2.09294068  0.31202019
  H -4.19543186 -3.18590922 -0.97366830
  H -0.07214530 -1.13321891  0.71840031
  H  4.34698972 -1.32016116 -0.94377170
  H  3.64597191 -2.95343831 -0.69733934
  H  4.11657461 -1.95571733  0.71149344
