45
opt_min/./Product_4615_opt.xyz
  C -1.29847100 -1.56268100  1.62498900
  C -1.61197640 -0.18185455  1.06142314
  C -0.39836632  0.76257044  1.14106654
  C -0.83369598  2.22436841  1.20832483
  C  0.34950157  0.46294309 -0.17562175
  C  1.19694587  1.64114465 -0.70787648
  N  2.19305207  2.03110752  0.11270792
  C  3.09215134  3.10405803 -0.24618839
  O  0.98802006  2.14964171 -1.78572007
  C  1.32666981 -0.71254529 -0.11602251
  C  1.53669962 -1.46599905 -1.26827628
  C  2.43595106 -2.51504244 -1.28452375
  C  3.15787965 -2.83198114 -0.14774592
  C  2.97635581 -2.07931035  0.99804626
  C  2.07641140 -1.02768758  1.01296081
  N -0.75370236  0.27364665 -1.07325201
  C -1.96873019 -0.15881326 -0.44519710
  C -2.47857104 -1.48987176 -1.01689038
  C -3.13447007  0.84046207 -0.66703135
  C -3.08045532  1.70554525 -1.89600899
  O -4.06114260  0.88743383  0.10474964
  H -2.18116114 -2.19550185  1.59669184
  H -0.98602585 -1.46886051  2.66492195
  H -0.49822751 -2.05002577  1.07348458
  H -2.45519108  0.23098340  1.62668698
  H  0.19892569  0.53013887  2.02505673
  H  0.02188350  2.88107530  1.35315297
  H -1.33160751  2.51572998  0.28740460
  H -1.52432402  2.37200521  2.03733118
  H  2.33488812  1.55326303  0.98557641
  H  3.35508908  3.01039569 -1.30103296
  H  2.61395971  4.07645376 -0.09718081
  H  3.99225650  3.04441189  0.36166247
  H  0.99094110 -1.22590636 -2.16802328
  H  2.57621788 -3.08556599 -2.19273461
  H  3.85821261 -3.65409024 -0.15647961
  H  3.53734751 -2.31137631  1.89213444
  H  1.95571655 -0.46818683  1.92880085
  H -0.57734460  0.08299420 -2.04047700
  H -2.71360944 -1.36608647 -2.07378520
  H -1.71858082 -2.26251470 -0.91948553
  H -3.37800539 -1.80720235 -0.49548337
  H -2.09470292  1.71881361 -2.34567407
  H -3.35993689  2.72233848 -1.62200930
  H -3.81988399  1.34749806 -2.61207443
