48
opt_min/./Product_1347_opt.xyz
  C  3.19246648 -0.76835629  2.16889105
  O  1.97561600 -0.57346949  1.47230741
  C  1.86788073 -1.19409242  0.20776700
  O  2.35351188 -2.51157126  0.40134018
  C  2.57603172 -3.33928519 -0.71660319
  C  0.38616390 -1.22880590 -0.12760188
  C -0.64307036 -0.25866323 -0.07192125
  C -0.65578401  1.21441403  0.26638094
  C -1.37895170  1.87133387 -0.80667797
  N -1.90062526  2.36638175 -1.69580676
  C -1.42484073  1.31874997  1.59791461
  C -0.66537952  0.83849855  2.79949973
  O -2.55947167  1.71922077  1.65413785
  C  0.71854966  1.89174271  0.36582071
  C  1.52073412  1.82603104 -0.94231372
  C  2.82621316  1.04760580 -0.79388587
  C  2.69287304 -0.47217456 -0.89286124
  C -1.80105771 -0.94501080 -0.43285369
  C -3.22010203 -0.52688650 -0.55384209
  C -0.90094856 -0.64671593 -3.50373228
  O -1.91924763 -1.15570151 -3.61487800
  O  0.17588933 -0.27483809 -3.40458221
  N -0.12368671 -2.38981986 -0.51293210
  N -1.42525948 -2.21301113 -0.69176704
  C -2.25174829 -3.30528073 -1.11445986
  H  3.30854694 -1.81060965  2.46906207
  H  3.12171422 -0.13468151  3.05202196
  H  4.05541035 -0.46776043  1.56944203
  H  1.70810796 -3.36289154 -1.37579268
  H  3.46512606 -3.03886132 -1.28179797
  H  2.74104567 -4.33168195 -0.29993670
  H -1.36885166  0.51083158  3.56159761
  H  0.02717779  0.04137205  2.54315530
  H -0.09640174  1.67503101  3.20449757
  H  1.28330117  1.40970055  1.15887292
  H  0.54856152  2.93450940  0.64702008
  H  0.92658298  1.37598434 -1.73842656
  H  1.76227207  2.84125961 -1.26260105
  H  3.30225647  1.32302339  0.14905714
  H  3.50131025  1.34875947 -1.59932620
  H  3.70291077 -0.88842872 -0.85633032
  H  2.25479064 -0.73200138 -1.85801838
  H -3.50529097 -0.44343705 -1.60299785
  H -3.86823793 -1.26508342 -0.08253068
  H -3.38822399  0.43432610 -0.07855744
  H -1.60397548 -4.16605235 -1.26517270
  H -2.99472769 -3.54297977 -0.35074966
  H -2.76397042 -3.05820930 -2.04589812
