43
opt_min/./Product_4602_opt.xyz
  C -1.28414439  2.15697520 -1.52995626
  C -0.46155533  1.39521802 -0.49195663
  C -0.11728330  2.32771861  0.66536050
  C  0.78116105  0.74250539 -1.15906416
  C  1.89982411  0.52934575 -0.18475341
  C  2.06694281 -0.53077764  0.60301633
  C  3.15439877 -0.71548825  1.55263165
  C  4.21482262  0.33857207  1.64507192
  C  3.18912725 -1.80890446  2.31422150
  C  0.19226933 -0.56471045 -1.77155752
  C -0.13006573 -0.33749274 -3.16772824
  N -0.42176459 -0.19300979 -4.26541391
  C  1.21038751 -1.73008455 -1.85230069
  C  0.64849398 -3.07605365 -1.50695916
  O  2.32338509 -1.54784892 -2.26698724
  N -1.01243659 -0.89881353 -1.00528784
  C -1.18824242  0.11782257  0.01785450
  C -2.65500689  0.32144779  0.32245488
  O -2.84173942  0.57329232  1.61900827
  C -4.17639837  0.80172630  2.06042680
  O -3.53244792  0.27108615 -0.50015044
  H -1.45052421  1.56940003 -2.42980063
  H -2.25719674  2.43239338 -1.12960824
  H -0.76229719  3.06913908 -1.81158142
  H  0.44626712  1.80903785  1.43699282
  H -1.03325794  2.71157415  1.10905414
  H  0.47140295  3.17098575  0.31171967
  H  1.15267300  1.37927836 -1.96775463
  H  2.59621862  1.35313005 -0.13651228
  H  1.35802696 -1.34740598  0.56926781
  H  4.68834392  0.48161485  0.67521789
  H  4.97618554  0.05113401  2.36482618
  H  3.78368350  1.28950163  1.95616751
  H  2.43249111 -2.57282857  2.25304391
  H  3.98054076 -1.98180677  3.02254798
  H -0.01496053 -3.01323073 -0.64992852
  H  0.05855841 -3.41577132 -2.35860339
  H  1.45826249 -3.78077887 -1.33882323
  H -1.83417770 -0.93736273 -1.60259189
  H -0.68493156 -0.20784300  0.93655322
  H -4.80274398  1.10734692  1.22060915
  H -4.57317915 -0.11755629  2.49390395
  H -4.13677708  1.58335118  2.81643958
