52
opt_min/./Product_2064_opt.xyz
  C -4.79328650  2.51182933 -0.40513164
  O -3.39218578  2.53376736 -0.64086251
  C -2.71583139  1.38275583 -0.66315401
  C -2.97412525  0.07836969 -0.51589631
 Cl -4.39770031 -0.78463842 -0.08277701
  C -1.61519410 -0.60467169 -0.55588538
  C -0.99092934 -0.21488045  0.83685898
  C -0.55050326  1.22065365  0.50917360
  C -1.20228473  1.44157508 -0.87403035
  O -0.93424163  0.20241267 -1.49432759
  C  0.99823897  1.12488564  0.42247006
  C  1.58930116  1.94293029  1.47680053
  N  2.06908435  2.58076718  2.29831735
  C  1.55335874  1.66897271 -0.89400316
  C  1.69665617  3.04035265 -1.06684554
  C  2.19235248  3.54112051 -2.25813662
  C  2.54782280  2.68044345 -3.28124663
  C  2.39652373  1.31422898 -3.11238296
  C  1.90202517  0.80755363 -1.92401770
  N  1.30442813 -0.29235542  0.58006725
  C  2.70857985 -0.57998540  0.77825627
  C  0.25960134 -0.93447446  1.38020894
  C  0.41402168 -0.62413227  2.89739379
  C  0.18369622 -2.44930102  1.24089307
  C -1.05141946 -3.08310039  1.12834608
  C -1.14870066 -4.46140243  1.04452979
  C -0.01408146 -5.24839961  1.09830999
  C  1.21076856 -4.63892679  1.29936764
  C  1.30433877 -3.26075364  1.39237751
  H -5.23462366  3.26076420 -1.06326223
  H -4.98811421  2.77596504  0.63784768
  H -5.22799592  1.53943529 -0.62559921
  H -1.56636569 -1.64219997 -0.86167996
  H -1.79398980 -0.25549541  1.57786454
  H -0.85370852  1.96110321  1.25001063
  H -0.84631217  2.28424585 -1.45629622
  H  1.42256939  3.71985863 -0.27206226
  H  2.29857427  4.60974389 -2.37817735
  H  2.93631620  3.07191179 -4.21021589
  H  2.66353977  0.63874922 -3.91116985
  H  1.75822939 -0.25239142 -1.79663305
  H  3.29426507  0.25455035  0.39016554
  H  2.97697096 -0.70305621  1.83605514
  H  2.99333530 -1.47046452  0.21610715
  H  1.11317864  0.19574434  3.04973355
  H  0.77951262 -1.49400928  3.43729346
  H -0.53394819 -0.32560935  3.33975578
  H -1.96154519 -2.50775214  1.13496390
  H -2.12220040 -4.92011098  0.94742351
  H -0.08501846 -6.32240067  1.01548277
  H  2.10528285 -5.23515236  1.39969266
  H  2.26672715 -2.83331385  1.61019828
