49
opt_min/./Product_5356_opt.xyz
  C -1.69716400 -2.44837800  0.05370300
  C -0.94543162 -1.55095736  1.04066144
  C -1.14722035 -2.13581034  2.43949509
  C  0.58575613 -1.50105923  0.77801501
  C  1.29062932 -2.76656772  0.38116565
  O  0.86336104 -3.71524420 -0.21279022
  C  0.78958685 -0.32672684 -0.21995274
  C  0.60950854 -0.79466423 -1.68371011
  C  1.71034843 -1.63744927 -2.26481113
  O -0.35235125 -0.46093483 -2.32466637
  C  2.10606532  0.42609276 -0.11283109
  C  2.87808582  0.47195695  1.04332429
  C  4.03058361  1.23761314  1.09488577
  C  4.42834844  1.98488127  0.00016897
  C  3.64907146  1.97730721 -1.14272934
  C  2.49795396  1.21194951 -1.19396562
  N -0.29693127  0.59118274  0.09659278
  C -1.37117053 -0.04663169  0.85406103
  C -2.73192864  0.09764007  0.08701595
  N -2.65154025  0.88747355 -0.98427820
  C -3.79551012  1.14671625 -1.82579125
  O -3.75780652 -0.40436689  0.49007451
  C -1.76840964  0.76325497  2.10109121
  C -1.87115674  2.26375221  1.91002536
  O -2.12517915  0.26824290  3.13716706
  H -1.37088477 -3.47807843  0.15808136
  H -2.76051166 -2.40740109  0.26879152
  H -1.54043093 -2.13081349 -0.97334122
  H -2.20508622 -2.18979425  2.67642236
  H -0.65316015 -1.55020566  3.21049623
  H -0.73551735 -3.14436950  2.45317038
  H  1.05279075 -1.20353351  1.72178918
  H  2.35390557 -2.75378416  0.71078048
  H  1.29888323 -2.61189382 -2.52809941
  H  2.05785747 -1.17645996 -3.18874291
  H  2.55099454 -1.76823753 -1.59091579
  H  2.60055077 -0.08371087  1.92575692
  H  4.61697932  1.24835070  2.00150966
  H  5.33016127  2.57574969  0.04956613
  H  3.92955347  2.57274135 -1.99849205
  H  1.88795330  1.24036886 -2.08520447
  H  0.06682576  1.41671121  0.55653588
  H -1.74469983  1.20785236 -1.29332131
  H -4.53376926  0.36486684 -1.65321732
  H -3.48631388  1.15508507 -2.86880799
  H -4.25031576  2.11128365 -1.57982608
  H -2.89741392  2.47029404  1.60513395
  H -1.20945839  2.69006121  1.16252087
  H -1.71283669  2.74704287  2.87211817
