48
opt_min/./Product_1737_opt.xyz
  C -2.43930600 -2.50579500  2.29019500
  C -1.54025972 -1.41478865  1.78516240
  O -1.29561551 -0.43271614  2.43812400
  C -0.97798612 -1.57480561  0.36043471
 Br  0.04897504 -3.29109459  0.37532521
  C -0.10957307 -0.38162555  0.06049375
  C -0.40061783  0.78237159 -0.53606705
  C -1.48906204  1.36995702 -1.38696121
  C -2.15893498  0.48383859 -2.44155409
  C -3.43843075 -0.17667417 -1.93778546
  C -3.24234802 -0.82488124 -0.57423321
  C -2.11855601 -1.86458592 -0.61861051
  C  0.71763421  1.78169483 -0.27360990
  C  0.24246968  3.07905510  0.38125727
  C  1.35996453  4.05669558  0.65889515
  O -0.89814919  3.29872362  0.69015128
  N  1.66619810  1.11742943  0.61126225
  C  1.32735088 -0.30431880  0.59835510
  C  2.25193752 -0.95379300 -0.47104071
  N  3.51049668 -0.48989771 -0.40321711
  C  4.57782455 -0.98607192 -1.23275202
  O  1.87339147 -1.76947068 -1.28284090
  C  1.63429413 -0.88618790  1.97716419
  H -2.17688265 -3.48531003  1.90353966
  H -2.40414577 -2.51376368  3.37797371
  H -3.45999779 -2.26913050  1.99164967
  H -2.24508491  1.82136206 -0.73905456
  H -1.01940395  2.20328952 -1.91984566
  H -1.44211311 -0.25457533 -2.80569294
  H -2.42426863  1.11529577 -3.29268535
  H -4.22922365  0.57502851 -1.86826378
  H -3.76329854 -0.93245165 -2.65854200
  H -4.17931904 -1.29710812 -0.27028326
  H -3.01309828 -0.05463292  0.16330307
  H -2.52388784 -2.85267901 -0.38987311
  H -1.69399481 -1.92721059 -1.61931899
  H  1.22809371  2.04295790 -1.21638145
  H  1.03197927  5.05801902  0.38469998
  H  2.26969828  3.79765686  0.12700814
  H  1.56157993  4.06980410  1.72971142
  H  1.61393711  1.48315766  1.55752108
  H  3.68016335  0.28917637  0.21466502
  H  5.33686177 -1.48499407 -0.62616305
  H  4.14495650 -1.70514690 -1.92595567
  H  5.04505766 -0.17495351 -1.79509359
  H  2.67116016 -0.66001428  2.22518009
  H  0.98571679 -0.42751407  2.72151368
  H  1.51169206 -1.96223084  2.02178039
