49
opt_min/./Product_2500_opt.xyz
  C -4.80248200 -2.01734100  0.42165600
  N -3.85680162 -0.96210574  0.69414847
  C -2.80162660 -0.74844870 -0.10237679
  O -2.57036803 -1.43425842 -1.07894129
  C -1.88189847  0.45804241  0.20632086
 Br -2.56555289  1.68356996 -1.21939435
  C -0.47903662  0.03105359 -0.06378389
  C  0.60758670  0.67552638 -0.54818875
  C  0.92823292  2.11761898 -0.78595875
  F  2.28340790  2.26942471 -0.52643421
  F  0.84862693  2.39678806 -2.12169583
  C  0.21849707  3.24215031 -0.02723247
  C -0.16023028  3.02691898  1.44161708
  C -1.58689315  2.56002921  1.75037757
  C -2.01152888  1.09683347  1.58314527
  C  1.66586687 -0.36169184 -0.81553516
  C  2.99457192 -0.07896451 -0.09542382
  O  2.72516848  0.13506726  1.18340000
  C  3.81585210  0.42885932  2.05351267
  O  4.08331727 -0.05489881 -0.59039311
  C  1.79563171 -0.68329353 -2.35947602
  C  2.89932530 -1.62862252 -2.67640452
  O  1.01686361 -0.23036012 -3.13834667
  N  1.12490977 -1.59532760 -0.32496963
  C -0.08070470 -1.37597261  0.06340680
  C -0.87150436 -2.44340967  0.72356310
  C -0.73875414 -3.80327181  0.12033924
  O -1.58772981 -2.17475328  1.66493155
  H -4.40003313 -2.63358631 -0.38038305
  H -5.75480265 -1.59368815  0.09368799
  H -4.95872191 -2.61779576  1.31615223
  H -3.94749565 -0.48880228  1.57595046
  H -0.64468664  3.57837598 -0.60009496
  H  0.96833731  4.03962762 -0.04743441
  H  0.59627910  2.43500704  1.95969859
  H -0.14325221  4.03715134  1.86518613
  H -1.74246137  2.76990975  2.81213374
  H -2.26879526  3.18718997  1.17237086
  H -1.44296374  0.46147672  2.26915849
  H -3.06288525  1.09422250  1.88009159
  H  3.55942537  1.33657791  2.59792206
  H  3.94388195 -0.40720107  2.74042857
  H  4.72371439  0.58251832  1.46893540
  H  2.90314418 -1.82500919 -3.74511367
  H  2.74027772 -2.54807008 -2.11484964
  H  3.85191125 -1.20771562 -2.36391673
  H  0.18568159 -3.87431560 -0.44211157
  H -1.58161057 -3.93919389 -0.55683208
  H -0.79333867 -4.56703855  0.89348211
