38
opt_min/./Product_769_opt.xyz
  C -3.10653400  3.22487700  0.28925500
  N -2.54720984  1.93736521 -0.06285445
  C -1.76519348  1.27191854  0.80363045
  O -1.50941455  1.66055139  1.92040756
  C -1.13231163 -0.01932975  0.24784981
  C  0.21977493  0.30734656 -0.48933678
 Cl  0.48270377  2.03251066 -0.75092232
  C -0.06939897 -0.31035809 -1.88655765
  C -0.12012040 -1.81696548 -1.73809226
  C -1.27418959 -2.06489712 -1.13541982
  C -1.90987092 -0.70814714 -0.92019376
  O -1.43965123  0.02465015 -2.04469004
  C  1.26701606 -0.36246683  0.43208905
  C  2.43605487 -0.92152426 -0.37203635
  O  2.91222789  0.01370952 -1.18975983
  C  4.04065012 -0.32170140 -1.99396590
  O  2.89046571 -2.02678862 -0.26120373
  C  1.81314751  0.58577111  1.50802038
  N  0.46987803 -1.47067624  0.97497583
  C  0.97453112 -2.15890202  2.13692349
  O -0.79624062 -0.84980861  1.31681310
  H -3.42329333  3.20251944  1.33223292
  H -3.94690262  3.44597800 -0.36186344
  H -2.35255364  4.00734730  0.17997554
  H -2.81789684  1.52663250 -0.94115862
  H  0.53384333  0.09284036 -2.69502891
  H  0.64664730 -2.48904701 -2.06330211
  H -1.68272906 -2.99181837 -0.79146291
  H -2.99598150 -0.70362381 -0.84858224
  H  3.83525630  0.05484150 -2.99566539
  H  4.17603696 -1.40454428 -1.99977188
  H  4.93079127  0.16102852 -1.59245467
  H  1.97376527  1.58125660  1.10596666
  H  1.09835135  0.66021821  2.32631434
  H  2.76041875  0.21246589  1.89312103
  H  1.95675072 -2.54520247  1.88005891
  H  0.30042509 -2.98915512  2.33554510
  H  1.03231110 -1.52203158  3.02549298
