37
opt_min/./Product_408_opt.xyz
  C -3.66556800 -2.48913300 -0.05511600
  O -2.39688688 -2.18621827 -0.60196813
  C -2.01521966 -0.88989657 -0.61351288
  C -2.53212099  0.29071547 -0.25681911
  C -3.81355075  0.73982322  0.36154566
  C -1.39952671  1.27158527 -0.52379738
  C -0.36403448  1.04969656  0.61827066
  C  0.20840381 -0.32975298  0.22253364
  C -0.60230517 -0.58962609 -1.09710837
  O -0.73082707  0.70048869 -1.63370883
  N  1.61853054 -0.04133277 -0.01125152
  C  2.63638361 -0.95011499 -0.33605598
  N  2.20741615 -2.23386212 -0.45740242
  C  3.15521516 -3.28179619 -0.77139850
  O  3.78099662 -0.60781676 -0.47609667
  N  1.89950888  1.25408831  0.10922440
  C  0.86188972  1.91816351  0.47024015
  C  0.85621242  3.36842529  0.67351689
  C  2.14890964  4.05977558  0.35082584
  O -0.14689203  3.94348158  1.04691759
  H -3.68376330 -2.29727183  1.02095979
  H -4.45529463 -1.91350172 -0.54100374
  H -3.81954390 -3.55124450 -0.23879074
  H -4.14000264  0.07011178  1.15462952
  H -3.67611760  1.73322490  0.78199980
  H -4.60761487  0.79992019 -0.38336552
  H -1.67964028  2.30414520 -0.70809249
  H -0.81402201  1.12690538  1.60517651
  H  0.07842046 -1.12435628  0.95967149
  H -0.15880535 -1.27925671 -1.80853004
  H  1.23949290 -2.47564880 -0.35135761
  H  2.61296242 -4.18030580 -1.05159276
  H  3.79754861 -3.49468292  0.08647329
  H  3.79222771 -2.95916333 -1.59613963
  H  2.21780709  4.16321230 -0.73129216
  H  2.99210168  3.46123006  0.67909272
  H  2.16478356  5.04852084  0.80217873
