30
opt_min/./Product_49_opt.xyz
  F -0.29795000 -2.19216700  1.30655200
  C -0.41229569 -1.07148745  0.50360533
  C -1.32255524 -1.27908583 -0.72231901
  C -2.28964307 -0.08799792 -0.61297285
  C -3.27964632 -0.39130890  0.51443105
  C -2.39536094 -0.33866987  1.77726890
  C -1.03270598  0.12124450  1.23890323
  C -1.42544992  0.99192510  0.04530352
  C -0.34675292 -1.23190545 -1.91333521
  N  0.94328987 -0.84778917 -1.40349913
  C  0.92783925 -0.76991047 -0.13895496
  C  2.12728780 -0.36867304  0.65779475
  O  2.07004422 -0.05855710  1.83022454
  N  3.24796813 -0.34744546 -0.08847628
  C  4.54024204 -0.00296567  0.44447564
  H -1.87252415 -2.22118762 -0.70171010
  H -2.75126307  0.18085395 -1.56211196
  H -4.05397275  0.37777057  0.54677793
  H -3.78059767 -1.35189039  0.39537634
  H -2.78068460  0.36695947  2.51248839
  H -2.30441777 -1.31181315  2.25697050
  H -0.36876261  0.54920888  1.98492066
  H -0.57491836  1.30417297 -0.55895054
  H -1.99740657  1.87361418  0.33194138
  H -0.64856030 -0.53170594 -2.69475699
  H -0.22527309 -2.21419294 -2.38383666
  H  3.16154535 -0.61231473 -1.05868675
  H  4.99869914  0.78583436 -0.15314470
  H  5.20047699 -0.87364169  0.45916135
  H  4.39086828  0.34875177  1.46495341
