51
opt_min/./Product_2341_opt.xyz
  C -1.61516251 -2.25274461  3.13222340
  O -1.21776325 -1.88435517  1.81676640
  C -1.95243512 -0.94728729  1.22404814
  O -2.95994714 -0.50551926  1.69908735
  C -1.37967779 -0.60229716 -0.17144718
  C -1.98512980  0.69142390 -0.72577944
  C -2.50938253  1.69417970  0.08038016
  C -3.03103446  2.85110347 -0.47634948
  C -3.02260122  3.03709501 -1.84451588
  C -2.48492776  2.05523472 -2.65856196
  C -1.97324619  0.89780829 -2.10628785
  C  0.09975210 -0.37744207  0.02457003
  C  1.21778545 -1.14373988  0.13671466
  C  1.48412352 -2.61037704  0.03808107
 Cl  2.16621030 -3.08985525  1.65492553
 Cl  2.76185419 -2.89326967 -1.19340654
  C  0.36890919 -3.61097530 -0.21867755
  C -0.18461115 -3.62767521 -1.64276848
  C -0.76747525 -2.28708626 -2.07528754
  C -1.82213945 -1.78364724 -1.08196660
  C  2.32946749 -0.22698132  0.47923528
  C  3.75492274 -0.54795061  0.73093690
  N  1.95494089  0.99316889  0.56927915
  C  0.53289583  1.04677849  0.33537334
  C  0.31014976  2.03056272 -0.69792583
  N  0.31112647  2.84915165 -1.49647150
  C  0.01799455  1.52914200  1.72800817
  C  0.07785937  3.00844437  1.91425390
  O -0.27213611  0.73927380  2.58020119
  H -2.59159099 -2.74075854  3.10860487
  H -0.84976276 -2.93260295  3.49638664
  H -1.67004887 -1.36274068  3.75975418
  H -2.53090916  1.58001697  1.15141825
  H -3.44139555  3.61051990  0.17264292
  H -3.42700604  3.94107521 -2.27389510
  H -2.45466166  2.19271915 -3.72844477
  H -1.54402452  0.15777760 -2.76220282
  H -0.42791945 -3.39887465  0.48960174
  H  0.77129761 -4.60202443  0.00170709
  H  0.59142630 -3.92951156 -2.34663386
  H -0.97393802 -4.38238107 -1.67425270
  H  0.03218627 -1.55465087 -2.18246246
  H -1.22933618 -2.42335937 -3.05501629
  H -2.69526914 -1.43049422 -1.63294747
  H -2.17067764 -2.61659109 -0.47132093
  H  4.17202168 -1.16859223 -0.05653079
  H  4.30516086  0.38753705  0.78969062
  H  3.86319411 -1.07857324  1.67509363
  H -0.31653046  3.27536625  2.89151388
  H -0.46938770  3.52442696  1.12865291
  H  1.12373882  3.30827991  1.84280575
