58
opt_min/./Product_2473_opt.xyz
  C  4.63885500  0.50438000 -3.21256100
  N  3.79015094  0.08140958 -2.12832681
  C  2.65622483  0.72543603 -1.82264077
  O  2.20183810  1.67259421 -2.44719863
  C  1.91199779  0.19171227 -0.65182990
  C  1.86806443 -0.98036350  0.02184388
  C  2.72387694 -2.16772816 -0.02878081
  O  3.82899341 -2.18610253 -0.56401768
  N  2.20892863 -3.26519995  0.56979858
  C  2.93030405 -4.51178077  0.64645346
  C  0.61787460 -0.85187415  0.88691601
  C -0.52416937 -1.05164693 -0.16701820
  C -0.54756616  0.34327048 -0.81383751
  C  0.72834583  0.97862021 -0.14253843
  O  0.57976201  0.51797599  1.18335552
  N -1.74897386  0.96291469 -0.32911553
  C -1.84447425  2.34007763 -0.23928389
  C -1.40958466  3.11704237 -1.31987465
  C -1.53481510  4.49093669 -1.28397476
  C -2.08852783  5.12353353 -0.18259499
  C -2.49641077  4.36125777  0.89913631
  C -2.36929206  2.98621492  0.88222475
  N -2.39488103  0.13008007  0.65331044
  C -3.84026980  0.32374423  0.70510770
  C -1.94956365 -1.22397897  0.37291913
  C -2.07166247 -2.05384466  1.64033710
  O -1.19784632 -3.08273865  1.64494964
  C -1.25846870 -3.96668456  2.76359253
  O -2.86133693 -1.85556442  2.51691061
  C -2.71494257 -1.89660103 -0.81289288
  C -2.61793111 -3.39352485 -0.91147884
  O -3.31757304 -1.22721948 -1.60375401
  H  5.01924290 -0.36731345 -3.74256552
  H  5.48099181  1.09404218 -2.84163705
  H  4.05109649  1.12337863 -3.89031768
  H  4.07207566 -0.71647496 -1.55733193
  H  1.28443038 -3.23315689  0.96649210
  H  3.94028275 -4.33009318  0.28381986
  H  2.96788642 -4.86694418  1.67644471
  H  2.46016944 -5.27326431  0.01952792
  H  0.54200102 -1.42899445  1.80246112
  H -0.25930283 -1.85353875 -0.85840749
  H -0.49242128  0.35594727 -1.90355331
  H  0.78402037  2.05857771 -0.21459248
  H -0.97206621  2.64367410 -2.18448055
  H -1.19464205  5.07187704 -2.12847446
  H -2.18814624  6.19808236 -0.16232514
  H -2.90421444  4.84307529  1.77634242
  H -2.64578441  2.40798786  1.74707278
  H -4.10424335  0.76768881  1.66398686
  H -4.17341745  0.97354019 -0.10452150
  H -4.36509747 -0.62542023  0.61920085
  H -1.66532563 -3.44275825  3.62948542
  H -1.90054253 -4.81579092  2.52233258
  H -0.24580180 -4.31161775  2.96074465
  H -1.69293590 -3.77702206 -0.49470461
  H -2.72650965 -3.69419738 -1.95104401
  H -3.45405827 -3.81521540 -0.35230142
