37
opt_min/./Product_1064_opt.xyz
  C  5.55975146  0.97325501 -0.26457488
  O  4.32581812  0.27174715 -0.35535033
  C  3.24898648  0.94406653 -0.73589733
  O  3.20465244  2.11960788 -0.99815508
  C  2.04701713  0.08341472 -0.76205762
  C  1.80231609 -1.13784550 -0.26936914
  C  2.72585284 -2.10145699  0.39357706
  F  3.80199522 -2.38762591 -0.34713147
  F  2.12421294 -3.26619824  0.66154679
  F  3.18137688 -1.63106012  1.57115262
  C  0.30235466 -1.33794714 -0.42303032
  C -0.32607829 -0.45391439  0.69480205
  C -0.02460014  0.95509731  0.14710637
  C  0.68413308  0.59430729 -1.19710109
  O  0.02226183 -0.58790849 -1.58646425
  C -1.39861326  1.54488329 -0.06429746
  C -1.58298622  2.91524428 -0.59151125
  N -2.36096229  0.78436278  0.23359665
  C -1.89106507 -0.48905291  0.73074915
  C -2.34887107 -0.66459142  2.09845448
  N -2.67428362 -0.81584723  3.18201570
  C -2.57432219 -1.66351694 -0.01696644
  C -3.83352642 -1.28075339 -0.71557922
  O -2.11635700 -2.77186372  0.02215052
  H  5.91366651  0.90429167  0.76504951
  H  5.42498143  2.01887833 -0.54750936
  H  6.27363142  0.48996411 -0.93253960
  H -0.05343172 -2.36211864 -0.48661527
  H  0.10121620 -0.65647926  1.67640669
  H  0.60780488  1.58741252  0.76895552
  H  0.66947914  1.35236170 -1.97331235
  H -2.63971762  3.16203726 -0.62800388
  H -1.06113988  3.62758314  0.04762045
  H -1.15683480  2.99430778 -1.58998316
  H -3.57113020 -0.68870008 -1.59161153
  H -4.45258730 -0.65653713 -0.07577429
  H -4.36808957 -2.17656714 -1.02436683
