39
opt_min/./Product_4188_opt.xyz
  C -4.77626568 -0.10938993 -0.16266636
  C -3.32549165  0.01686012  0.19491505
  C -2.71975617  1.34588943 -0.14716455
  C -2.69709355 -0.97449041  0.82018700
  C -1.27785031 -1.00145062  1.30840989
  C -0.19989127 -1.06419418  0.19031496
  C  0.54096287 -2.37611655  0.22569211
  C  1.48581290 -2.57890682  1.37606651
  C  0.32280474 -3.30622565 -0.69173288
  N  0.67024563  0.08111618  0.51836122
  C  1.66388975  0.58604513 -0.29752789
  C  2.03053425 -0.07148420 -1.47288014
  C  3.03778685  0.44498900 -2.26455476
  C  3.69661602  1.60808997 -1.90373887
  C  3.33607404  2.25924746 -0.73410560
  C  2.33019045  1.75882683  0.06560474
  N  0.23884675  0.77349121  1.56277953
  C -0.82920296  0.24841170  2.05297239
  C -1.51406432  0.75339568  3.15774113
  N -2.12701792  1.14601474  4.04736251
  H -4.95423948  0.22669934 -1.18249638
  H -5.12292010 -1.13436295 -0.06218081
  H -5.36559503  0.52131399  0.50284783
  H -3.05911549  1.66771995 -1.13040908
  H -3.04697793  2.09292260  0.57666249
  H -1.63594553  1.33000386 -0.15035495
  H -3.24863381 -1.88789158  1.01155937
  H -1.16496835 -1.85975446  1.97894071
  H -0.65004720 -0.90517743 -0.79643572
  H  2.46674569 -2.87299423  1.00744364
  H  1.60551218 -1.67100588  1.96188532
  H  1.12747871 -3.36953208  2.03393917
  H -0.36455522 -3.14920435 -1.50358310
  H  0.82205286 -4.25661483 -0.64416977
  H  1.53549134 -0.98717364 -1.75609024
  H  3.31255144 -0.07176660 -3.17259396
  H  4.48491812  2.00270964 -2.52618586
  H  3.84195945  3.16773704 -0.44332590
  H  2.03950392  2.25960408  0.97515582
