46
opt_min/./Product_4281_opt.xyz
  C -0.54769600 -0.97353800 -2.27473300
  C -0.88634485 -0.18398232 -1.00950954
  C -0.86108893  1.30654131 -1.34653207
  C  0.08210108 -0.50051457  0.16300181
  C  1.52765123 -0.47444690 -0.18599651
  C  2.31380617  0.56688432  0.08702144
  C  3.72392544  0.68374928 -0.25262955
  C  4.41664669 -0.49938985 -0.86263062
  C  4.37390772  1.82616824 -0.03376104
  C -0.48746999 -1.80670753  0.76970964
  C -0.35772273 -1.79943980  2.29534235
  C  0.08425381 -3.12709756  0.21729605
  O -1.88792286 -1.77159546  0.43499669
  C -2.22276822 -0.65051855 -0.36884076
  C -2.74492797  0.47627094  0.55891779
  N -3.71407558  1.26433083  0.04669979
  C -4.26761114  2.36895443  0.79203163
  O -2.30230199  0.65274264  1.67500042
  C -3.29081479 -1.10844932 -1.36540712
  H -1.18763302 -0.66309375 -3.09851398
  H -0.66739561 -2.04218495 -2.12458968
  H  0.48359199 -0.77522357 -2.55997461
  H -1.04797880  1.91630281 -0.46537671
  H -1.60830703  1.54880555 -2.10088343
  H  0.12153780  1.56930663 -1.73721278
  H -0.09600826  0.27899880  0.91202540
  H  1.93481668 -1.33131469 -0.69842704
  H  1.89331319  1.42410238  0.59862335
  H  5.48612337 -0.31971317 -0.93381735
  H  4.03169644 -0.68673507 -1.86659362
  H  4.25078812 -1.39283184 -0.26215753
  H  5.41681488  1.94514750 -0.27669011
  H  3.88380834  2.68332150  0.39664620
  H -0.72211901 -0.85924780  2.70105248
  H -0.97460399 -2.60046501  2.69814174
  H  0.67713028 -1.94974834  2.59545816
  H  0.59428739 -3.67939943  1.00214095
  H  0.77867566 -2.98114843 -0.60360343
  H -0.74429999 -3.73790414 -0.13728941
  H -4.04761578  1.12162553 -0.89058045
  H -4.05239051  2.20099910  1.84708429
  H -3.81353530  3.31661845  0.48856336
  H -5.34517981  2.42027712  0.63935638
  H -4.24474640 -1.23237914 -0.85603997
  H -3.00259620 -2.07605821 -1.76673409
  H -3.39795342 -0.40963833 -2.19340871
