39
opt_min/./Product_1192_opt.xyz
  N -4.74093165  1.03962863 -1.06601509
  C -3.64962918  1.39298210 -1.05614995
  C -2.34131085  1.87228543 -0.96637622
  C -1.44177028  2.22643179 -1.90413273
 Cl -1.49831186  2.06662098 -3.58163804
  C -0.26492791  2.81665995 -1.14075344
  C  0.52387537  1.67017231 -0.45507952
  C -0.50691678  1.19955249  0.59362158
  C -1.65414342  2.22326762  0.35086308
  O -0.92105770  3.37957158 -0.01456973
  C -0.68480169 -0.30531498  0.31389432
  C -0.86453994 -1.05293609  1.66418512
  N -2.12398076 -1.45480609  1.90768362
  C -2.49374021 -2.12216350  3.13560396
  O  0.06170301 -1.19814050  2.42352434
  C -1.72687020 -0.69122504 -0.61609948
  N -2.41367424 -1.17067720 -1.39959545
  N  0.60425955 -0.64882719 -0.29448027
  C  0.75263346 -2.00123706 -0.77760349
  C  0.90152872  0.40701790 -1.24177447
  C  2.36461852  0.48128174 -1.65011169
  O  2.72619109  1.00056660 -2.67164938
  O  3.17712819 -0.02457607 -0.73456471
  C  4.57070533  0.05973304 -1.01081929
  H  0.33553493  3.54625934 -1.67504176
  H  1.40218007  2.10156645  0.02493834
  H -0.12754421  1.32107110  1.60980397
  H -2.30692859  2.41308773  1.19869592
  H -2.85029566 -1.31298538  1.22136022
  H -1.58065102 -2.33275815  3.68924539
  H -3.01209601 -3.05431439  2.91411234
  H -3.14286863 -1.48570905  3.73987437
  H  0.12702739 -2.22508259 -1.65311733
  H  1.79695447 -2.15413921 -1.03993491
  H  0.49836012 -2.68667920  0.02897878
  H  0.31239577  0.32884988 -2.17560898
  H  4.86653375  1.10072330 -1.15118307
  H  4.81226528 -0.49901207 -1.91670070
  H  5.07420930 -0.37107837 -0.14984390
