46
opt_min/./Product_1586_opt.xyz
  C -0.74382100  2.03493000  2.30760500
  C -1.45612228  2.08212375  0.98951954
  O -2.41722460  2.78305878  0.79762444
  C -0.90241903  1.22451081 -0.15713272
  C  0.64345609  1.17011325 -0.32905700
  F  1.35262395  2.01671135  0.50440906
  C  0.79874497  1.67149542 -1.81993640
  C  0.52465218  3.15843660 -1.73255478
  C -0.78477894  3.25062610 -1.55755372
  C -1.29549857  1.82267395 -1.55383577
  O -0.37579842  1.16221224 -2.40696253
  N  1.03115838 -0.16908853 -0.07885073
  C  2.28082949 -0.76530318 -0.06636446
  N  3.33847915  0.08557117 -0.10312007
  C  4.68552314 -0.42329235  0.01607452
  O  2.37946323 -1.97231444 -0.02986898
  N -0.09039630 -1.03645626 -0.27658925
  C -1.30718624 -0.27687873 -0.02424709
  C -1.85607588 -0.58365318  1.39812701
  O -1.18141510 -1.22798457  2.17847847
  N -3.05706510 -0.06315448  1.65351755
  C -3.72987575 -0.25852466  2.91533706
  C -2.38850759 -0.67742942 -1.04795249
  O -3.51164938 -0.19701748 -0.99852614
  N -1.99039726 -1.57688407 -1.94081550
  C -2.82474267 -2.04592178 -3.01720077
  H -0.27264034  1.07458680  2.49580990
  H -1.44369180  2.28163290  3.10138414
  H  0.03638911  2.79427911  2.29771758
  H  1.69259178  1.31833530 -2.32458871
  H  1.28158788  3.91463552 -1.75965130
  H -1.41157373  4.10531533 -1.40809729
  H -2.32618188  1.67165722 -1.85268711
  H  3.20502352  1.07384576  0.01096070
  H  5.21968044  0.08872258  0.81523689
  H  5.23132624 -0.29363234 -0.92192274
  H  4.62161426 -1.48600044  0.24011516
  H  0.00139409 -1.81113720  0.39221876
  H -3.59736290  0.29778612  0.87184142
  H -4.16447674  0.68483292  3.24166780
  H -2.99700231 -0.60299415  3.64299715
  H -4.52072800 -1.00580765  2.82572803
  H -1.02440864 -1.87378794 -1.88161121
  H -2.41342712 -1.73572947 -3.97867894
  H -3.81399676 -1.61017110 -2.88957837
  H -2.89964545 -3.13341404 -2.99136151
