52
opt_min/./Product_5886_opt.xyz
  C  0.00388209 -0.96289289  0.83234014
  O  0.68192768 -1.18294863  1.80928568
  C  0.62025978 -0.30748711 -0.41305704
  O  1.00655333 -1.28252100 -1.34866074
  C  1.53806128 -2.50130516 -0.85915573
  C -0.40423261  0.67060675 -1.08293164
  O  0.12560104  1.31715014 -2.21425697
  C  0.29367606  0.61634656 -3.43895119
  C -1.71548496 -0.05404860 -1.34947510
  O -2.31299034  0.09513038 -2.38778770
  C -2.18068199 -0.99750360 -0.30938328
  C -3.57961492 -1.47599232 -0.50251036
  C -1.39494636 -1.39710853  0.71351696
  C -1.86749895 -2.30259024  1.80782882
  C -0.40000930  1.80537613 -0.02938024
  C -0.84506839  3.12101163 -0.76787429
  C  0.21750648  4.15009433 -0.94575715
  O -1.98052560  3.22547787 -1.13190043
  C -1.33457553  1.69579026  1.17495664
  O -0.98569116  1.89091972  2.30227550
  O -2.58738102  1.43740336  0.79505947
  C -3.60014318  1.53896012  1.79480582
  O  0.93559114  1.88171509  0.41144555
  C  1.69222717  0.74379057  0.02897361
  C  2.62404625  0.39378618  1.24081043
  N  3.62261254 -0.45067831  0.90578952
  C  4.60223185 -0.88369132  1.87590111
  O  2.48683636  0.91016153  2.31281968
  C  2.54901415  1.06885071 -1.10029534
  N  3.27384728  1.31034075 -1.95159533
  H  1.76319615 -3.08257251 -1.75154883
  H  2.44870185 -2.35606807 -0.27568041
  H  0.81151196 -3.04311453 -0.24769558
  H  0.75776136  1.34602232 -4.09912448
  H  0.95346285 -0.24367191 -3.32283223
  H -0.66419474  0.29893078 -3.85266255
  H -3.71823735 -2.48447067 -0.12382283
  H -4.27503030 -0.80549671  0.00061227
  H -3.81414476 -1.44283075 -1.56524035
  H -1.21058950 -2.18774212  2.66721816
  H -2.88941123 -2.07245763  2.09631358
  H -1.82782505 -3.34301347  1.48320987
  H -0.20041693  5.13506040 -0.74619413
  H  0.53261214  4.12218718 -1.98850860
  H  1.07408144  3.95870674 -0.30917673
  H -4.02911497  0.55112209  1.96489535
  H -3.16939551  1.91958111  2.72204737
  H -4.36248186  2.22018931  1.41970906
  H  3.76061589 -0.72958869 -0.05311309
  H  4.48612164 -1.94746887  2.09262760
  H  4.43606825 -0.31031807  2.78573936
  H  5.60994288 -0.69777484  1.50415839
