49
opt_min/./Product_5110_opt.xyz
  C -3.88072100  0.44300100  2.26274000
  C -2.61586924  0.25541130  1.47657007
  C -1.53605102 -0.44654620  2.24361527
  C -2.53222159  0.70435106  0.22676334
  C -1.37264295  0.62441099 -0.72458998
  C -0.05484647  1.17544382 -0.12207341
  C  0.51261017  2.31708670 -0.92206788
  C  1.19517101  1.97643269 -2.21438557
  C  0.41293544  3.56617486 -0.49159495
  C  0.83620406 -0.05488315 -0.10997962
  C  2.16960696 -0.07006181  0.47252540
  C  2.73253761  1.07065065  1.04678851
  C  4.00236079  1.02096297  1.59030816
  C  4.72355016 -0.16106957  1.57446798
  C  4.17081538 -1.30061762  1.00924687
  C  2.90417517 -1.25814585  0.46212273
  N  0.33091945 -1.09353383 -0.64199137
  C -0.98319786 -0.82808163 -1.16401755
  C -2.01163859 -1.86596527 -0.69006370
  C -3.34450736 -1.77880839 -1.38060528
  O -1.73875984 -2.72209721  0.10792715
  C -0.91143988 -0.99405778 -2.68598350
  C -0.09627015 -2.17408064 -3.12703101
  O -1.47552123 -0.24609256 -3.44479321
  H -4.58537067  1.08921961  1.74638736
  H -4.35362195 -0.52543417  2.42588577
  H -3.65896370  0.86941186  3.23973845
  H -0.76876533 -0.87263426  1.60841652
  H -1.06749473  0.24668974  2.94381244
  H -1.97472819 -1.25430054  2.82495559
  H -3.39864051  1.21227450 -0.17743257
  H -1.63455426  1.17994588 -1.62786968
  H -0.23552487  1.51589281  0.90095470
  H  1.02092006  2.74912525 -2.95818624
  H  0.84762329  1.02724331 -2.61148437
  H  2.27079214  1.90033193 -2.05243847
  H  0.79288698  4.39512844 -1.06414522
  H -0.06408380  3.81438135  0.44147380
  H  2.17880278  1.99650041  1.05816796
  H  4.43157374  1.90910630  2.03051940
  H  5.71462505 -0.19943667  2.00238046
  H  4.73001225 -2.22390955  0.99752862
  H  2.45422543 -2.13400616  0.02187512
  H -3.30357159 -2.42234429 -2.25938894
  H -3.56965881 -0.76938990 -1.70610568
  H -4.12415119 -2.15318294 -0.72418708
  H -0.16002229 -2.98029740 -2.40254892
  H -0.41162650 -2.49952545 -4.11513784
  H  0.94616595 -1.86314921 -3.18974570
