34
opt_min/./Product_844_opt.xyz
  C  2.32728790  1.71002719 -1.25058891
  O  1.91529670  0.41630987 -0.82197525
  C  1.19490288  0.28044778  0.33366736
 Cl  2.12080471  0.95346941  1.74333974
  C -0.27955278  0.84581413  0.39127134
 Cl -0.81095935  1.18545670 -1.31326604
  O -0.52482170  1.88466068  1.23291061
  C -0.14619620  3.19951853  0.85470273
  C -1.09935476 -0.37966747  0.87294266
  C -2.57605573 -0.31876310  0.49309867
  O -3.00323599 -1.51813943  0.12237992
  C -4.36934811 -1.63883026 -0.26124945
  O -3.24020335  0.67888800  0.51386634
  N -0.41672409 -1.55087478  0.39949751
  C  0.99287066 -1.27729055  0.54505482
  C  1.38249346 -1.70320222  1.87538418
  N  1.64591019 -2.08594637  2.91925575
  C  1.81356496 -2.05720781 -0.52307250
  C  3.27743999 -2.14280666 -0.24653983
  O  1.24791661 -2.54946023 -1.45526254
  H  1.48252783  2.34308773 -1.52089002
  H  2.93660431  1.52497022 -2.13173548
  H  2.93009162  2.19013588 -0.47624970
  H -0.45016649  3.82364067  1.69110256
  H -0.68318636  3.50607489 -0.04561375
  H  0.93013203  3.29523148  0.69994591
  H -1.06843951 -0.36685837  1.97581049
  H -4.76055857 -0.66830723 -0.57068307
  H -4.40390212 -2.34940620 -1.08431795
  H -4.95012293 -2.01615142  0.58069584
  H -0.62693683 -1.76679712 -0.57417274
  H  3.67989088 -1.15444248 -0.04047996
  H  3.78686594 -2.58726852 -1.09684721
  H  3.43701487 -2.75844155  0.63857281
