24
opt_min/./Product_3329_opt.xyz
  C  0.62777500  2.53026900  0.54661000
  C  0.43019058  1.68263961 -0.71447500
  C  0.28659440  0.27338726 -0.11959908
  C -0.95308913 -0.50144995 -0.60422050
  N -1.75453232 -0.90739577  0.38990474
  C -2.92210854 -1.72236043  0.16971582
  O -1.14833723 -0.70109526 -1.78191680
  C  1.49127514 -0.62691909 -0.43179021
  O  2.51499153 -0.23914720 -0.92194747
  O  1.26517291 -1.86784869 -0.02160338
  C  2.33150298 -2.79389313 -0.20745825
  N  0.27573310  0.46340011  1.31891930
  N  0.43608048  1.62123905  1.65752724
  H -0.08171113  3.35269955  0.65862355
  H  1.63543519  2.94516243  0.65823834
  H  1.28228730  1.71886727 -1.39204275
  H -0.47573173  1.95975970 -1.25619817
  H -1.49317157 -0.65848953  1.33606515
  H -2.83211273 -2.19563114 -0.80855029
  H -3.83392491 -1.11751652  0.18621247
  H -2.98554836 -2.49088963  0.93977503
  H  1.95403336 -3.75486309  0.13293248
  H  2.60722975 -2.83347554 -1.26363773
  H  3.19699079 -2.48836982  0.38242312
