36
opt_min/./Product_3772_opt.xyz
  C  0.02258000 -0.44543500 -1.56187100
  C -0.21963427 -1.92650826 -1.30121118
  C -0.86758366 -1.98885576  0.10684084
  C -2.20168791 -2.72556998  0.06576250
  N -0.91913909 -0.61539970  0.62197049
  C -2.21267101  0.00323056  0.79617570
  C  0.05510972  0.16024441 -0.14456279
  C -0.24244795  1.65713936 -0.19827141
  O -0.48393565  2.26791399 -1.20773119
  O -0.13505540  2.22443670  1.00515645
  C -0.31066276  3.63318985  1.07504263
  C  1.43752550  0.07497171  0.48832190
  C  1.61244147 -0.48379053  1.74502310
  C  2.87034045 -0.53084631  2.32071509
  C  3.96344981 -0.00552170  1.65438604
  C  3.79039794  0.57942176  0.41140604
  C  2.53530897  0.62300159 -0.16745348
  H -0.80302940  0.00231254 -2.11758878
  H  0.93900944 -0.25935259 -2.11399913
  H  0.71892861 -2.47877382 -1.31169125
  H -0.87989071 -2.35868408 -2.05157338
  H -0.19783084 -2.54815930  0.77624004
  H -2.61535308 -2.85620247  1.06276307
  H -2.04098138 -3.71295156 -0.36043721
  H -2.92274993 -2.19452799 -0.55041645
  H -2.08900109  0.90786636  1.38911160
  H -2.85813188 -0.66704776  1.35626503
  H -2.71117789  0.27193423 -0.14818552
  H -1.01100953  3.96398904  0.30560325
  H  0.65149391  4.12689898  0.92502422
  H -0.69293725  3.85493797  2.06854774
  H  0.75581230 -0.87761208  2.26782770
  H  2.99471227 -0.97702024  3.29693538
  H  4.94413103 -0.04057247  2.10471190
  H  4.63441556  1.00673624 -0.10983459
  H  2.40220723  1.09979551 -1.12834471
