41
opt_min/./Product_4013_opt.xyz
  C  2.91490100 -1.77435400  1.43589800
  C  1.96759168 -1.20385206  0.41544039
  C  2.41644905 -1.27820827 -1.01366686
  C  0.83464268 -0.63405374  0.80908389
  C -0.17563936  0.04098426 -0.07028629
  C -1.58183941 -0.58616249  0.05334698
  C -2.14672097 -1.06696481 -1.25513816
  C -2.85240108 -2.38866570 -1.18825399
  C -2.05163977 -0.38833530 -2.38884407
  C -2.43687004  0.53808674  0.75495030
  C -2.82389481  0.10936454  2.17563435
  C -3.69486042  0.97045532  0.00475362
  N -1.57731319  1.69114528  0.86491117
  C -0.41709375  1.44557921  0.43299285
  C  0.65275764  2.47449488  0.44695135
  O  1.70093862  2.07434358 -0.29363161
  C  2.80932831  2.95648869 -0.37480986
  O  0.59484713  3.53605272  1.00780008
  H  3.62549160 -1.00955156  1.75022481
  H  3.48263420 -2.60640481  1.02698044
  H  2.38074023 -2.11479730  2.31998201
  H  1.57861904 -1.44260139 -1.68732829
  H  2.90172608 -0.34475854 -1.29994626
  H  3.12952366 -2.08762796 -1.14853729
  H  0.58636786 -0.62597322  1.86276743
  H  0.17656333  0.06766632 -1.10041813
  H -1.52958953 -1.44031914  0.73219227
  H -3.67449826 -2.33744997 -0.47317341
  H -2.16909399 -3.16560419 -0.84836453
  H -3.25539536 -2.67156590 -2.15714332
  H -1.56676461  0.57109051 -2.45815042
  H -2.47949407 -0.76201933 -3.30402392
  H -1.93726255 -0.17103478  2.74019587
  H -3.50520293 -0.73706645  2.14083254
  H -3.30616588  0.93676229  2.68919901
  H -3.45365894  1.30477232 -1.00017191
  H -4.15058301  1.79742529  0.54220319
  H -4.40583110  0.15056973 -0.06055495
  H  3.56665010  2.65271611  0.35089624
  H  2.49260629  3.97888999 -0.16399577
  H  3.21118653  2.88284025 -1.38419249
