38
opt_min/./Product_3987_opt.xyz
  C  5.46758700 -1.03177100 -0.46025300
  C  4.29434643 -0.21434492 -0.02157804
  C  4.56107985  1.20461795  0.39340364
  C  3.05773393 -0.73244955 -0.04651613
  C  1.85246092 -0.02712188  0.31736644
  C  0.64779127 -0.59837112  0.28148580
  C -0.66103290  0.05256220  0.63822789
  C -0.54486152  1.46453449  1.19525960
  C -1.64276593 -0.00233386 -0.55338884
  C -2.98587618 -0.25802258  0.14191975
  C -3.94348364  0.94090461  0.41090288
  C -3.87098890  2.14716639 -0.48547374
  O -4.76834767  0.82641153  1.27354012
  C -3.81062362 -1.25123560 -0.72086609
  C -3.66238684 -2.68907306 -0.35131716
  O -4.50670439 -0.83029274 -1.60800101
  O -2.67411768 -0.81684147  1.40574388
  O -1.25642887 -0.81608771  1.59548382
  H  6.39417720 -0.68098933 -0.01015312
  H  5.34125273 -2.08169865 -0.19580750
  H  5.58344020 -0.97347362 -1.54547855
  H  4.17785516  1.39313468  1.39382383
  H  4.07744501  1.89771345 -0.29653567
  H  5.62647071  1.41977475  0.38601963
  H  2.92123287 -1.76795109 -0.34189131
  H  1.97044366  1.00388011  0.61453429
  H  0.54221209 -1.63337440 -0.01371661
  H  0.09845607  1.46283408  2.07359589
  H -1.52332523  1.82782493  1.50692992
  H -0.12447445  2.15010681  0.46272889
  H -1.63501248  0.91141381 -1.13789998
  H -1.38530802 -0.83122283 -1.21990993
  H -2.87103036  2.40261306 -0.81268171
  H -4.47217990  1.90603042 -1.36501068
  H -4.34021361  2.98611027  0.02641141
  H -4.39182175 -3.28893417 -0.88957711
  H -3.79111316 -2.80255825  0.72322046
  H -2.65531423 -3.02574703 -0.60158999
