40
opt_min/./Product_4420_opt.xyz
  C -2.85588913  0.32100662 -1.04514241
  C -2.13169018 -0.24326476  0.18504098
  C -3.14972089 -0.49973261  1.28887101
  C -0.95344007  0.71151065  0.51706651
  C -0.62572941  0.95889282  2.00133388
  O -1.18982240  0.49530626  2.94913232
  C  0.25271409  0.14794667 -0.29413830
  C  0.86183273  1.18388714 -1.25636635
  N  1.23709907  2.32227711 -0.63894198
  C  1.86327805  3.41655644 -1.34210063
  O  1.03441935  0.97727690 -2.43794546
  C  1.37652940 -0.24392282  0.68567920
  O  1.23131687 -0.12125931  1.89062064
  N  2.50774049 -0.68850379  0.12684592
  C  3.62417311 -1.14437689  0.92416683
  N -0.30160128 -0.97286541 -1.04259802
  C  0.54312912 -1.92717918 -1.71420901
  C -1.39093086 -1.51972719 -0.25232413
  C -0.88986035 -2.32723204  0.84689855
  N -0.40808905 -3.00937870  1.62840954
  H -3.62601373 -0.37010945 -1.38063733
  H -3.33430630  1.26541841 -0.79507649
  H -2.15604016  0.48259312 -1.86111787
  H -3.96411470 -1.10443594  0.89289255
  H -2.70459696 -1.02045796  2.13083171
  H -3.56102388  0.43935686  1.64864133
  H -1.20515622  1.70983400  0.14120766
  H  0.03055703  1.85046678  2.11624028
  H  1.11623751  2.41414639  0.35811094
  H  2.90138793  3.53903671 -1.02634801
  H  1.83648241  3.18205278 -2.40471865
  H  1.32210199  4.34480206 -1.15940296
  H  2.59238366 -0.71922233 -0.87690468
  H  4.07654458 -2.01826367  0.46021714
  H  4.37628762 -0.35850814  1.02642171
  H  3.25053571 -1.40327995  1.91393074
  H  1.18065665 -1.39705239 -2.42042785
  H  1.14729895 -2.55324312 -1.04305007
  H -0.10790431 -2.58601721 -2.29050185
  H -2.01890515 -2.16156465 -0.88130646
