37
opt_min/./Product_1160_opt.xyz
  C -2.25024467 -0.66330737  2.45586482
  O -0.91696255 -0.45744948  2.03151662
  C -0.62249270 -0.59824322  0.67025904
  C  0.75718175  0.06376885  0.38193368
 Br  1.38228922  1.15999493  1.89454422
  C  0.50610703  0.94311430 -0.85775981
  C -0.28050058  2.19804789 -0.47605255
  C -1.60574176  1.61491881  0.04923231
  C -1.53191254  0.12669560 -0.34898888
  C -0.60606548  0.16777603 -1.57109677
  C  1.73421494 -1.12022723  0.21481662
  C  2.72559037 -0.86534687 -0.96100334
  N  3.74164202 -0.06249244 -0.60253970
  C  4.79238274  0.30557979 -1.52357289
  O  2.52956797 -1.29974959 -2.06598999
  C  2.48942676 -1.45495211  1.41728356
  N  3.08207875 -1.86491693  2.30463899
  O  0.96362980 -2.27639463 -0.06942311
  C -0.40608213 -2.08157681  0.22171502
  C -0.88942438 -3.09280587  1.14560768
  N -1.31582480 -3.93047231  1.79408112
  H -2.95604053 -0.03819078  1.90259430
  H -2.54388802 -1.71124108  2.36244370
  H -2.25111982 -0.37498693  3.50530108
  H  1.40887272  1.12099391 -1.43841201
  H -0.44630627  2.79728336 -1.37364558
  H  0.21095532  2.84303034  0.24927398
  H -1.67422154  1.73003485  1.12952007
  H -2.47093053  2.10028709 -0.40210104
  H -2.49817356 -0.35698457 -0.48110931
  H -1.03569879  0.74646114 -2.38935924
  H -0.28904064 -0.79157843 -1.97272720
  H  3.85810349  0.21238894  0.36206818
  H  5.73330719 -0.16922722 -1.24466448
  H  4.49630708 -0.03247260 -2.51588252
  H  4.91770736  1.38882043 -1.53159704
  H -0.97066305 -2.26469863 -0.71157441
