51
opt_min/./Product_5362_opt.xyz
  C -4.27298700 -1.76311700 -0.84842700
  C -2.83873013 -1.35632456 -0.65684002
  C -1.99423877 -1.56168666 -1.88282468
  C -2.45225348 -0.89028210  0.52576431
  C -1.12757185 -0.42677740  1.06964133
  C  0.19699561 -0.89989337  0.43019858
  C  1.04840632 -1.53181063  1.50624005
  C  0.51799532 -2.86308029  1.97404774
  C  2.15025053 -1.02646545  2.03122316
  C  0.69693680  0.37758449 -0.28449525
  C  2.16761204  0.48492646 -0.58541050
  C  2.93285077  1.54096891 -0.10990988
  C  4.27670699  1.62856830 -0.42866198
  C  4.86615657  0.66354324 -1.22625379
  C  4.10541974 -0.38556963 -1.71274917
  C  2.76096038 -0.47084621 -1.40158740
  O  0.25127068  1.45938927  0.51075883
  C -1.01214814  1.14220660  1.03805427
  C -2.15569016  1.71152895  0.18541718
  O -1.77580723  1.83681730 -1.08900932
  C -2.71570144  2.38441711 -2.00505591
  O -3.22863055  2.04108321  0.60557018
  C -1.14523449  1.68466989  2.47210613
  C  0.04205954  2.45759230  2.96154237
  O -2.11698747  1.45213342  3.13901580
  H -4.32580900 -2.81933431 -1.11347299
  H -4.72594804 -1.19747586 -1.66349034
  H -4.85718322 -1.60054018  0.05201950
  H -1.46140969 -2.51365975 -1.83048250
  H -1.27241268 -0.76186800 -2.01822894
  H -2.63290948 -1.60130093 -2.76461679
  H -3.22141045 -0.79324803  1.28406956
  H -1.12712367 -0.71562866  2.12572815
  H  0.02030573 -1.67063818 -0.32220252
  H  1.33844231 -3.52832332  2.23474877
  H -0.10219547 -2.73990985  2.86228085
  H -0.09096405 -3.33888355  1.20777210
  H  2.68365620 -1.56466552  2.79967688
  H  2.55452607 -0.06915298  1.76357245
  H  0.17541523  0.41938040 -1.25576748
  H  2.46534216  2.29038050  0.50827253
  H  4.86330097  2.45461101 -0.05171801
  H  5.91582706  0.73060298 -1.47289381
  H  4.55966343 -1.13772334 -2.34112355
  H  2.16846993 -1.28824652 -1.78609504
  H -2.29559274  3.30229986 -2.41741086
  H -3.65078458  2.59718999 -1.48514466
  H -2.88054382  1.65348533 -2.79536638
  H -0.16650722  2.88008366  3.94089863
  H  0.29238492  3.23623500  2.24627561
  H  0.89210064  1.77819262  3.01940264
