59
opt_min/./Product_5880_opt.xyz
  C  6.19486600 -0.06777000 -0.19052500
  C  4.78960675  0.40801710  0.01457743
  C  4.65857574  1.61301703  0.89953341
  C  3.75814072 -0.20045610 -0.58438856
  C  2.36937164  0.17911244 -0.49833888
  C  1.40198547 -0.51856757 -1.09934646
  C -0.06424475 -0.21921239 -1.12926875
  C -0.50332995 -0.32910385 -2.60208536
  C -0.43344591  1.16442413 -0.57937587
  C -1.94862051  1.05663523 -0.30227997
  C -2.79603844  1.55080140 -1.47246788
  O -2.46731233  2.77012944 -1.87452875
  C -3.23108470  3.30353591 -2.94774643
  O -3.66808543  0.88682803 -1.97365498
  C -2.25905455  1.88089916  0.96041279
  O -2.37147170  1.41113424  2.05655349
  O -2.34650230  3.18351193  0.70031254
  C -2.58116012  4.02219607  1.82365657
  N -2.19301017 -0.34046267 -0.03831152
  C -0.98909553 -1.13413215 -0.24773965
  C -1.26556350 -2.46859717 -0.93322534
  O -0.40876236 -3.21906447 -1.32335071
  O -2.56798777 -2.73837355 -1.01834714
  C -2.90814612 -3.99467345 -1.58512263
  C -0.42256405 -1.57471290  1.10439392
  C -1.22434159 -1.46440800  2.23461057
  C -0.76554391 -1.89158580  3.46786979
  C  0.49150077 -2.45794084  3.58877215
  C  1.27522893 -2.61290043  2.45888305
  C  0.81836325 -2.18755575  1.22285554
  H  6.80045981  0.73054096 -0.62201617
  H  6.64651699 -0.34123885  0.76324797
  H  6.23008236 -0.92789128 -0.85383226
  H  3.71914970  1.61217863  1.44541654
  H  5.47403985  1.64225279  1.61927392
  H  4.70694374  2.52461283  0.30169117
  H  3.96055483 -1.06899703 -1.19974887
  H  2.13827125  1.06262917  0.07516133
  H  1.67942772 -1.39091283 -1.67953596
  H -0.20771942 -1.29239222 -3.01084519
  H -0.02094163  0.45209462 -3.18771815
  H -1.57976824 -0.23069711 -2.71274501
  H  0.07763615  1.34685373  0.36503923
  H -0.20473034  1.96652471 -1.27820004
  H -2.74586000  4.23427592 -3.22984265
  H -4.25605422  3.49178865 -2.62356749
  H -3.24596504  2.60392634 -3.78536326
  H -2.53817477  5.04308921  1.45329053
  H -1.81793528  3.85513551  2.58611436
  H -3.56148820  3.80968536  2.25441565
  H -2.99719315 -0.69484097 -0.54438754
  H -2.52452764 -4.06671876 -2.60529155
  H -3.99390385 -4.04342251 -1.57935532
  H -2.48075954 -4.80484178 -0.99123964
  H -2.19985866 -1.01757372  2.14836945
  H -1.40080707 -1.78150132  4.33522454
  H  0.85553775 -2.79410726  4.54967116
  H  2.24830212 -3.07631306  2.53290228
  H  1.42866209 -2.36050865  0.35427169
