61
opt_min/./Product_2751_opt.xyz
  C  2.64265077  3.48933244 -1.62526745
  N  2.45776902  2.55122046 -0.54637527
  C  1.98580487  1.31697927 -0.73762872
  O  1.74365335  0.82639798 -1.82099195
  C  1.89064288  0.47261145  0.56538808
  O  1.82317293  1.37717444  1.66246249
  C  1.91996740  0.81102164  2.95813766
  C  0.50599693 -0.22590488  0.48617983
  C -0.03756711 -1.44191248  0.24989455
  C  0.61811559 -2.73044658 -0.24318725
  C -0.04037034 -3.22473816 -1.43322264
  N -0.53245407 -3.59858638 -2.39407006
  C  0.65106642 -3.76025453  0.77496590
  N  0.76057691 -4.55625444  1.58573812
  C  2.00203620 -2.10577769 -0.48157776
  C  3.45372767 -2.47781220 -0.63703111
  C  4.02768394 -1.04781012 -0.44630053
  C  3.34216766 -0.19174854  0.65999974
  C -1.53479245 -1.28439627  0.44626717
  C -2.37426856 -2.45885323 -0.03195519
  O -3.03646961 -2.14810525 -1.13216345
  C -3.77440003 -3.18623991 -1.77490658
  O -2.37054336 -3.52590594  0.51706586
  O -1.71368926 -1.07907434  1.90464410
  C -1.20683275  0.12996639  2.14052962
  O -1.14626164  0.65340818  3.21171557
  C -0.72416722  0.66803143  0.75166062
  C -0.62906641  2.14174634  0.52271409
  C -0.50293481  3.06074054  1.55427552
  C -0.45709795  4.41528180  1.26951136
  C -0.54119908  4.86203082 -0.03835578
  C -0.67086809  3.94612511 -1.06940853
  C -0.70629036  2.59278808 -0.79333688
  N -1.72958830  0.01178286 -0.11069771
  C -3.07900663  0.56171421 -0.06583418
  H  2.15188467  4.43301639 -1.39293623
  H  2.20192123  3.05698986 -2.52180299
  H  3.70601044  3.66711187 -1.80042735
  H  2.59343241  2.86333473  0.40304476
  H  1.33058170  1.44358471  3.61944458
  H  2.95912258  0.80217593  3.30233548
  H  1.51284722 -0.20116397  3.00156579
  H  1.81851830 -1.34295799 -1.24273643
  H  2.07241815 -1.66440017  0.49907868
  H  3.79506037 -3.15620170  0.14687148
  H  3.73176852 -2.88444584 -1.60722767
  H  5.08468424 -1.09980081 -0.17876316
  H  3.94932496 -0.51543093 -1.39530995
  H  3.41336202 -0.73609582  1.60559098
  H  3.97490583  0.69722099  0.76366183
  H -3.52106682 -4.15165037 -1.33537108
  H -3.50103735 -3.16497882 -2.82802304
  H -4.83905419 -2.98517144 -1.65327119
  H -0.45879719  2.72513306  2.57570820
  H -0.36533468  5.12535706  2.07744615
  H -0.52521772  5.92123439 -0.25009424
  H -0.73130803  4.28685618 -2.09465378
  H -0.80165798  1.87321926 -1.59112740
  H -3.75233536 -0.07365948  0.51257739
  H -3.07011041  1.55396707  0.38364614
  H -3.45283071  0.63983707 -1.08627897
