52
opt_min/./Product_5753_opt.xyz
  C -0.84322400  1.42422200 -0.06265200
  C -0.21491885  0.20635022 -0.73794197
  C -1.15787051 -1.00332601 -0.60370824
  N -2.56002912 -0.72661670 -0.77349180
  C -3.35274098 -1.79638035 -1.33311854
  C -2.99288228  0.55981627 -0.88129004
  C -2.25022899  1.63308717 -0.54915128
  C -2.69181176  3.02694253 -0.66152394
  N -4.02870812  3.24614864 -0.84257777
  O -1.91742764  3.96790724 -0.61049851
  C -0.70443563 -1.51403872  0.76103837
  C -1.46389496 -2.47206766  1.59849223
  O -1.17813891 -2.33279469  2.88781191
  C -1.82037648 -3.24030416  3.77254931
  O -2.23789484 -3.29094445  1.16050456
  N  0.45881435 -1.14178978  1.09173879
  C  1.02343072 -0.28819272  0.05448030
  C  1.97797390 -1.19669064 -0.71382875
  C  1.87980767 -1.47355803 -2.06916529
  C  2.79632581 -2.31559096 -2.67872210
  C  3.81445898 -2.89439383 -1.94462354
  C  3.91732543 -2.62406770 -0.58968466
  C  3.00760487 -1.78153687  0.01890471
  C  1.83499825  0.84202404  0.64909068
  C  1.84427097  1.07389184  2.01672158
  C  2.58271871  2.12099943  2.53967159
  C  3.31213396  2.94486257  1.70021176
  C  3.30746075  2.71420150  0.33506754
  C  2.57457610  1.66598011 -0.18971704
  H -0.26355138  2.32525785 -0.26413060
  H -0.85215095  1.27429339  1.02243760
  H  0.01047930  0.44403863 -1.77578707
  H -0.87219312 -1.78694240 -1.32428256
  H -3.20730089 -2.70058544 -0.74298187
  H -4.40585712 -1.52720557 -1.30271799
  H -3.07355084 -2.00403764 -2.37361041
  H -4.00212603  0.64971034 -1.25592945
  H -4.32731926  4.20694550 -0.84782508
  H -4.72018623  2.53953517 -0.67912202
  H -1.54195571 -2.93461594  4.77709033
  H -1.48355537 -4.26071114  3.57604184
  H -2.90387021 -3.19710411  3.64133237
  H  1.10153801 -1.03407901 -2.67438383
  H  2.70911465 -2.51932995 -3.73626168
  H  4.52442232 -3.55084824 -2.42536631
  H  4.70954668 -3.06919999 -0.00663413
  H  3.08077295 -1.56817000  1.07370743
  H  1.27647252  0.42044800  2.66234056
  H  2.58325295  2.29510863  3.60579281
  H  3.88430464  3.76523405  2.10779749
  H  3.87647697  3.35378954 -0.32311632
  H  2.57460688  1.48235119 -1.25481548
