63
opt_min/./Product_2755_opt.xyz
  C  1.33978800 -1.11822200 -2.93922100
  O  0.27534197 -0.35895085 -2.41403715
  C  0.31872760  0.09015155 -1.09566929
  C -0.97747403 -0.17617267 -0.23996492
  C -1.95292508 -1.22472068 -0.71607983
  C -2.66762926 -1.95605978  0.23043048
  C -3.58051406 -2.92083812 -0.15524326
  C -3.80171982 -3.17619095 -1.49603320
  C -3.12137788 -2.43370139 -2.44368036
  C -2.21618537 -1.46026699 -2.06114522
  C -0.27236846 -0.63916396  1.09792408
  C  0.13391894 -2.07615634  0.84811699
  C  1.18235366 -1.99012805  0.04426001
  C  1.41754079 -0.50985346 -0.15460219
  O  0.97578902  0.03516523  1.07728917
  C -1.63822099  1.22452809 -0.04878485
  C -2.83343857  1.60288517 -0.95911526
  C -3.03079631  3.08273523 -1.04881602
  O -3.58856491  0.79983199 -1.43898282
  C -2.22590590  1.36915197  1.35065882
  C -3.47664471  0.82546127  1.63120562
  C -4.01879373  0.94069585  2.89924331
  C -3.32772306  1.60414158  3.89894566
  C -2.08308225  2.14385359  3.62563678
  C -1.53547127  2.02618399  2.36021958
  O -0.58453118  2.16372750 -0.23248932
  C  0.44584541  1.66850732 -1.05720981
  C  0.31275131  2.23036047 -2.51371231
  N  1.39661093  2.01863274 -3.26526767
  C  1.53570464  2.55955361 -4.59460259
  O -0.67539236  2.82575421 -2.88609542
  C  1.78572435  2.19646573 -0.52630056
  O  2.85710664  1.86812436 -1.02102056
  N  1.67009276  3.10630508  0.43605617
  C  2.80056428  3.67569850  1.12373960
  H  2.25951531 -0.53343271 -3.05108492
  H  0.99421601 -1.43530318 -3.92228825
  H  1.55858311 -2.00098042 -2.33852765
  H -2.53054492 -1.76275730  1.28350749
  H -4.12512707 -3.47046923  0.59924470
  H -4.51125340 -3.93286569 -1.79720488
  H -3.30309333 -2.59784240 -3.49551065
  H -1.73333914 -0.86657930 -2.81698572
  H -0.80344756 -0.41942076  2.01757109
  H -0.36264627 -2.94229709  1.23472927
  H  1.77960193 -2.78135630 -0.36456662
  H  2.43762394 -0.22607490 -0.39612090
  H -2.83129266  3.56209570 -0.09545692
  H -2.30602745  3.44405684 -1.77984001
  H -4.03710134  3.30071659 -1.39419834
  H -4.02991953  0.31149023  0.86113915
  H -4.98844322  0.51286419  3.10495261
  H -3.75420750  1.69696469  4.88660207
  H -1.53135997  2.65580501  4.40022669
  H -0.55058403  2.41947184  2.16629499
  H  2.22498330  1.67338537 -2.79196153
  H  1.74803158  1.75925295 -5.30498778
  H  2.34285311  3.29324939 -4.62697526
  H  0.59652062  3.04037007 -4.86297289
  H  0.74176679  3.28057631  0.79408562
  H  2.98645187  3.15727348  2.06741825
  H  2.61510227  4.73034760  1.32098524
  H  3.67497607  3.56469012  0.48425199
