48
opt_min/./Product_1266_opt.xyz
  F  0.60506667 -0.66980610  2.93946873
  C -0.39808167 -1.19361520  2.21322044
  F -1.43744810 -1.28761891  3.06857495
  F -0.03792188 -2.46112472  1.96997961
  C -0.79042212 -0.32301791  1.01213812
  C  0.27644904  0.02876749 -0.11797868
  C  1.78009456 -0.27531641 -0.00236781
  C  2.33295692 -1.33077476  0.71373976
  C  3.69728810 -1.57504489  0.72730578
  C  4.56502810 -0.78974039 -0.00374863
  C  4.03197388  0.22289630 -0.77896165
  C  2.67162192  0.46660295 -0.78198099
  C  0.11553007  1.57019786 -0.12400228
  C -1.31039515  2.05112913 -0.44180144
  C -2.00946183  1.98815607  0.92145287
  C -1.06549654  1.07042587  1.68997351
  C  0.24074681  1.81011986  1.38305996
  C -0.18967957 -0.77417518 -1.35105205
  C  0.10237442 -0.09209703 -2.68592965
  N -1.61005602 -1.03721554 -1.18248534
  C -2.05099469 -2.18639304 -1.94613316
  C -1.94672147 -1.07850272  0.24913303
  C -3.40097955 -0.56899282  0.37932209
  C -2.13059864 -2.45698919  0.71011786
  N -2.41821121 -3.52977801  0.98040461
  H  1.73137858 -2.02082624  1.26505960
  H  4.07192315 -2.39867531  1.31640210
  H  5.62829059 -0.97605060  0.00793049
  H  4.67738529  0.83240736 -1.39577995
  H  2.32324079  1.24793458 -1.43744413
  H  0.86133334  2.09378272 -0.71089052
  H -1.78826837  1.41871510 -1.18610733
  H -1.28819125  3.07266489 -0.82660928
  H -3.05304111  1.71377544  0.90027538
  H -1.97297867  2.96827034  1.40564668
  H -1.31967853  0.96976432  2.74424442
  H  0.19962799  2.86106538  1.65908135
  H  1.13179130  1.35816018  1.81168961
  H  0.35899304 -1.73905424 -1.33231506
  H  1.16248501 -0.16232001 -2.91047826
  H -0.19209342  0.95173334 -2.66453499
  H -0.44500830 -0.58305341 -3.48531950
  H -1.47077939 -3.09304204 -1.72667633
  H -1.95176002 -1.95552936 -3.00576482
  H -3.10206255 -2.38483570 -1.74492446
  H -4.05855260 -1.34358795 -0.01535739
  H -3.66831087 -0.40667945  1.42101911
  H -3.55796702  0.31417357 -0.22441163
