59
opt_min/./Product_5881_opt.xyz
  C -0.33985300 -1.87458800  1.13952500
  C -0.27228722 -0.76453914  0.09327049
  C  0.27169370 -1.33217455 -1.21950116
  C  0.62816021  0.37933981  0.63385621
  C  2.08274922  0.13384064  0.42033704
  C  2.89492322 -0.28495277  1.38919785
  C  4.31034286 -0.58712982  1.24249956
  C  4.95156982 -0.36607195 -0.09509152
  C  5.00612043 -1.05612401  2.27745854
  C  0.06859313  1.66701159 -0.03450701
  C  0.96282848  2.15708557 -1.17462105
  O  1.98821831  2.88144366 -0.75113536
  C  2.88185691  3.37954291 -1.74002442
  O  0.72807489  1.91372764 -2.33103424
  C -0.05685300  2.81089469  0.98089712
  O -0.97120835  3.58686241  1.01648858
  O  0.99218202  2.83612378  1.80471099
  C  1.03121973  3.87129012  2.77922512
  N -1.22900825  1.33536911 -0.57074869
  C -1.62470012 -0.01536567 -0.19360527
  C -2.45761477  0.12539506  1.09801531
  O -3.54637462 -0.35166813  1.27435917
  O -1.83325477  0.87123708  2.01126102
  C -2.57576498  1.16361827  3.18690099
  C -2.52095495 -0.67310436 -1.23068725
  C -3.00228436 -1.96065835 -1.00944428
  C -3.83038744 -2.58471047 -1.92391797
  C -4.21186600 -1.93013150 -3.08068467
  C -3.77447696 -0.63781543 -3.29557684
  C -2.94714354 -0.01375056 -2.37739916
  H -1.10531231 -2.60494269  0.89963040
  H  0.61823957 -2.38856632  1.18030173
  H -0.55331438 -1.47502543  2.12855607
  H -0.40820894 -2.08317488 -1.61441280
  H  0.38295807 -0.54912514 -1.96624663
  H  1.23909930 -1.80123799 -1.05417705
  H  0.45377587  0.46171212  1.70857120
  H  2.45974273  0.26980167 -0.58175780
  H  2.49999823 -0.42041699  2.38829237
  H  6.01017819 -0.60931267 -0.05731310
  H  4.84196242  0.67499544 -0.39609868
  H  4.48018521 -0.99053378 -0.85263490
  H  4.56040961 -1.22284221  3.24335780
  H  6.05432217 -1.29042008  2.19925293
  H  2.94779567  2.68271026 -2.57788615
  H  2.52486624  4.34405393 -2.10576239
  H  3.84856501  3.49601462 -1.25532977
  H  1.68918808  4.66938120  2.43136366
  H  1.42908683  3.43514735  3.69401666
  H  0.02859329  4.27061983  2.94158384
  H -1.19566059  1.44042231 -1.57842433
  H -1.91270575  1.73684269  3.83010897
  H -2.89076755  0.23967593  3.67742183
  H -3.46075212  1.74933863  2.93414475
  H -2.75190109 -2.48649057 -0.10439076
  H -4.18423651 -3.58563798 -1.72489837
  H -4.85757026 -2.41950399 -3.79462646
  H -4.08143138 -0.10004476 -4.18065944
  H -2.66121753  1.00703272 -2.57493727
