46
opt_min/./Product_4992_opt.xyz
  C  1.18228900 -1.22347300  1.79671000
  C  0.93836767 -1.02579278  0.29905350
  C  1.87933850 -1.95716620 -0.46783729
  C -0.57649830 -1.12404310 -0.11029631
  C -1.49327807 -1.54466841  1.03991397
  C -0.86575690 -2.07527473 -1.27461033
  C -0.88312357  0.37242514 -0.52225994
  C -2.32399838  0.76337987 -0.48525105
  C -2.88165406  1.24303819  0.69921057
  C -4.21991923  1.58222644  0.75945133
  C -5.02344622  1.44529223 -0.36034071
  C -4.47780527  0.96477077 -1.53720515
  C -3.13775881  0.62181069 -1.60220198
  C -0.12299721  0.52870152 -1.85039543
  O -0.52227031  0.59255770 -2.97629094
  O  1.17391092  0.56244333 -1.51929258
  C  1.21552189  0.46271882 -0.07099516
  C  2.50235719  1.07366944  0.44032017
  O  3.32224100  1.38421299 -0.55312097
  C  4.56291590  1.97006056 -0.18092860
  O  2.75183613  1.25483785  1.60340145
  N  0.00980234  1.10848322  0.38698702
  C  0.01192376  2.55340788  0.23389401
  H  2.23951299 -1.10600806  2.01586385
  H  0.64633762 -0.48774990  2.38546598
  H  0.88409140 -2.22179525  2.09741121
  H  2.88941023 -1.84140833 -0.08079006
  H  1.57926377 -2.99107076 -0.33229284
  H  1.90570919 -1.73001876 -1.52885176
  H -1.22163298 -2.53641051  1.38950014
  H -2.52056259 -1.58201480  0.68588384
  H -1.44605615 -0.85445447  1.87370502
  H -0.71677186 -3.10490781 -0.96197031
  H -0.24999274 -1.88843641 -2.14722386
  H -1.90638664 -1.95767358 -1.57177487
  H -2.26032543  1.34568808  1.57544031
  H -4.63532127  1.95125673  1.68572988
  H -6.06929215  1.71085413 -0.31346892
  H -5.09706915  0.85703165 -2.41532146
  H -2.72201906  0.25914834 -2.52815486
  H  4.39172938  2.85953766  0.42832915
  H  5.06385063  2.22822780 -1.10923186
  H  5.16054799  1.26025296  0.39363193
  H  0.35412039  2.88099312 -0.75638168
  H  0.66747348  2.97092062  0.99643402
  H -0.99654859  2.92607556  0.39060604
