34
opt_min/./Product_4089_opt.xyz
  C -0.82130612  0.18213142  2.19137092
  C -0.99967736 -0.47847180  0.83242585
  C -2.25926154 -0.03524944  0.07826806
  C -3.52013892 -0.77536482  0.50127100
  C -1.86009363 -0.27039036 -1.40240198
  C -2.43990731 -1.49194994 -1.95376248
  N -2.87869972 -2.44275193 -2.40697404
  C -2.29471618  0.83745478 -2.24896283
  N -2.61431893  1.70029730 -2.92387469
  O -0.43812002 -0.38030062 -1.45611935
  C  0.13305841 -0.16419453 -0.17962163
  C  1.24164970 -1.24572182 -0.03072381
  N  2.36476126 -0.88511972  0.60633566
  C  3.48282516 -1.79320779  0.74024847
  O  1.01053390 -2.36719826 -0.41317353
  C  0.44776594  1.34529413 -0.11455143
  O -0.29496145  2.15122177 -0.60132801
  O  1.56920184  1.69279847  0.53424129
  C  1.84390260  3.09650914  0.55481438
  H  0.18983509  0.02165540  2.56182632
  H -1.51675901 -0.24263123  2.91062623
  H -1.00527859  1.25378148  2.12845773
  H -1.02571872 -1.56968884  0.94922198
  H -2.41674434  1.04018347  0.22292697
  H -3.34213519 -1.84746348  0.57015737
  H -4.32435074 -0.61019227 -0.21495338
  H -3.84897255 -0.41155724  1.47217213
  H  2.47559351  0.06375747  0.92370433
  H  4.17671356 -1.68861133 -0.09645382
  H  3.09901154 -2.81311226  0.74739674
  H  4.00520937 -1.58598856  1.67190209
  H  2.09462523  3.44570099 -0.44727036
  H  2.68485570  3.22865695  1.23215788
  H  0.96965294  3.64466950  0.90970761
