52
opt_min/./Product_2219_opt.xyz
  C -0.51469900 -2.51933300 -2.11546100
  O -0.02163107 -1.19387312 -2.02524178
  C  0.21857182 -0.62832320 -0.75648848
  C  1.51911487  0.24170445 -0.85811672
  C  2.13150010  0.20435027 -2.25537574
  F  3.25886300  0.97545204 -2.25040251
  F  2.52262750 -0.98622542 -2.68017501
  F  1.35048778  0.74451307 -3.19657224
  C  2.47135855 -0.55830511  0.09607983
  C  2.01761988 -0.30902376  1.52077553
  C  0.89734120 -1.00537876  1.64320514
  C  0.68631308 -1.68012822  0.30658029
  O  2.02872659 -1.88036214 -0.12813696
  C  1.10527311  1.68881451 -0.54482429
  C  1.74698271  2.27197389  0.73165453
  N  3.05951431  2.52643307  0.60862734
  C  3.85587951  3.05687630  1.69122155
  O  1.09211073  2.55678887  1.71756390
  N -0.32645098  1.66008843 -0.50099075
  C -1.06538118  2.89773221 -0.43911580
  C -0.92493462  0.35801794 -0.36495501
  C -1.49675909  0.02950281  1.03133614
  O -2.05707558 -1.02318444  1.25487411
  N -1.34016417  1.00985018  1.93914707
  C -1.80566448  0.85423364  3.29640399
  C -2.05894502  0.12027395 -1.41767001
  O -2.92502367 -0.70735821 -1.27152677
  N -1.95551463  0.90616362 -2.50289134
  C -2.77745583  0.70866579 -3.67025953
  H  0.24240578 -3.24478766 -1.81121986
  H -1.43547531 -2.64140617 -1.53794586
  H -0.73522587 -2.64840749 -3.17376716
  H  3.53214584 -0.46156275 -0.12429085
  H  2.53978744  0.28052716  2.24565372
  H  0.26416308 -1.14516548  2.49416418
  H  0.11117596 -2.59714339  0.32699351
  H  1.42356445  2.36534522 -1.36094667
  H  3.54526148  2.25082232 -0.23021301
  H  4.44616180  2.27046579  2.16773403
  H  4.52643686  3.82776845  1.31514628
  H  3.17630059  3.48684054  2.42502161
  H -0.82980328  3.52294910 -1.30889338
  H -0.83585592  3.47903173  0.45951779
  H -2.12806058  2.67258477 -0.44266902
  H -0.65391194  1.73797091  1.77996175
  H -2.53622198  1.63012625  3.53244346
  H -0.97318007  0.92632777  3.99759289
  H -2.28259952 -0.12127006  3.38282643
  H -1.18444834  1.54717498 -2.57416280
  H -2.18786250  0.29289282 -4.48988066
  H -3.56703392  0.00842749 -3.40344413
  H -3.21857187  1.65454659 -3.98726941
