42
opt_min/./Product_894_opt.xyz
  F -2.31765300  3.44201700 -0.76101100
  C -3.25493863  2.59704602 -0.30499059
  F -3.69700256  3.10658907  0.85399331
  F -4.28668131  2.65682799 -1.15268987
  C -2.73346161  1.14897223 -0.16801679
  F -2.71565206  0.72229710 -1.48859650
  C -1.35995217  1.01750240  0.42113057
  C -0.50202353  0.03253263  0.07759100
  C -0.59737278 -1.05232672 -0.93276745
  C -1.62227801 -2.17370801 -0.63996021
  C -2.56272892 -2.01388201  0.56210549
  C -3.81984715 -1.15984881  0.34931227
  C -3.75962361  0.34276620  0.64123820
  C  0.74380282  0.21501305  0.89741437
  C  2.01374569  0.44304803  0.11239899
  C  1.97845842  1.08211975 -1.11864765
  C  3.15315411  1.32469659 -1.80991374
  C  4.36795388  0.94032526 -1.27011991
  C  4.40748103  0.31894635 -0.03374515
  C  3.23453280  0.07142998  0.65666926
  N  0.47693439  1.35450098  1.73525565
  C -0.69018227  1.80806363  1.46374944
  C -1.21878590  2.97569240  2.21864556
  H  0.39650717 -1.50467602 -1.01149912
  H -0.83703588 -0.60200781 -1.89873455
  H -2.23956328 -2.33755878 -1.52574823
  H -1.04443715 -3.08634488 -0.45528333
  H -2.02605658 -1.69940397  1.45793650
  H -2.94624564 -3.02719204  0.73987855
  H -4.58333302 -1.52911475  1.04447789
  H -4.18384467 -1.32315896 -0.66813230
  H -3.52911232  0.50966012  1.69812291
  H -4.76140380  0.73950006  0.43228313
  H  0.88073539 -0.66197523  1.54389988
  H  1.03561454  1.40114739 -1.53721133
  H  3.11450208  1.81632784 -2.77040865
  H  5.28490936  1.12933710 -1.80904083
  H  5.35548654  0.02738668  0.39360638
  H  3.26305539 -0.40933465  1.62319873
  H -1.40030586  3.80940665  1.54021155
  H -2.15425085  2.73396252  2.71757062
  H -0.47398602  3.26432919  2.95505248
