49
opt_min/./Product_1391_opt.xyz
  N -3.36601702  1.01361802  0.84569291
  C -2.25443258  0.98797633  0.56545548
  C -0.87344287  0.98186938  0.17314467
  C -0.30690181 -0.42848206 -0.22781594
  C -1.21963181 -1.60584352  0.00407546
  C -1.33325594 -2.64118711 -0.91906784
  C -2.15678393 -3.72409390 -0.66558601
  C -2.86661885 -3.80144343  0.51941951
  C -2.70894346 -2.81058381  1.47267019
  C -1.88674040 -1.72954942  1.22038690
  C  0.10076901 -0.17419655 -1.69221146
  C -1.17204864  0.02034095 -2.54060564
  C -1.64981646  1.43618295 -2.16442210
  C -0.64255441  1.85202311 -1.09106209
  C  0.64769067  1.25227985 -1.64082203
  C  0.91281193 -0.59925213  0.76769634
  C  2.22635431 -0.97329393  0.12687955
  C  2.35223883 -2.21519294 -0.48562327
  C  3.53962393 -2.57432113 -1.09620642
  C  4.61661654 -1.70296552 -1.08817402
  C  4.50354492 -0.47656503 -0.45724852
  C  3.31333902 -0.11075990  0.14816113
  N  1.00257857  0.59428121  1.54094238
  C  0.07745390  1.41668796  1.28768121
  C  0.06727317  2.73379819  1.99782470
  C -1.16281856  3.59804550  1.89894706
  O  1.04534876  3.08838208  2.60826571
  H -0.76162599 -2.61932256 -1.83418875
  H -2.23890412 -4.51144416 -1.40050628
  H -3.52158368 -4.63851605  0.70879586
  H -3.22646961 -2.87880623  2.41741998
  H -1.76850059 -0.96850603  1.97874624
  H  0.78273099 -0.92164349 -2.09123831
  H -0.93143327 -0.04807779 -3.60105598
  H -1.93078491 -0.72722149 -2.31876454
  H -2.67782702  1.44846330 -1.80413993
  H -1.58363496  2.11806925 -3.01289650
  H -0.63295384  2.91949155 -0.87434809
  H  1.50586070  1.37199382 -0.98348447
  H  0.90102228  1.64167007 -2.62517550
  H  0.67819197 -1.40266770  1.48188352
  H  1.51577578 -2.89991918 -0.47800934
  H  3.62612485 -3.53967562 -1.57310843
  H  5.54403133 -1.98468808 -1.56457856
  H  5.34470611  0.20018725 -0.43362369
  H  3.22883806  0.83667039  0.65995649
  H -2.02180887  3.08914809  1.47792604
  H -0.92229164  4.47256176  1.29469652
  H -1.40783309  3.96068653  2.89579898
