42
opt_min/./Product_5312_opt.xyz
  C -0.43051383 -1.55982639  0.76648163
  C -1.84011675 -1.66639294  1.26061201
  C -2.77207853 -0.77456581  0.93579871
  N -2.53220961  0.32097776  0.14539703
  C -3.56009555  1.29000649 -0.13601036
  C -1.26116400  0.49546441 -0.44221737
  C -0.08540906 -0.10821356  0.35397382
  C  0.15936972  0.68716314  1.64454961
  N  1.39596166  0.57974048  2.15467588
  O -0.71080982  1.37592759  2.13776662
  C  1.02552537 -0.13871346 -0.71277412
  C  1.84987895  1.16157059 -0.99333700
  N  1.48021548  2.28955780 -0.36585262
  C  2.17539056  3.53075692 -0.64029131
  O  2.76653809  1.11170975 -1.78088205
  C  2.09049358 -1.21476297 -0.45977517
  O  2.76307379 -1.23958032  0.54885094
  O  2.19529497 -2.05473534 -1.45330938
  C  3.22134869 -3.03883717 -1.37391745
  O  0.35970696 -0.44318642 -1.93863030
  C -1.03024713 -0.19396139 -1.84996488
  C -1.81379817 -1.41462003 -2.00258932
  N -2.47069702 -2.33520598 -2.16138259
  C -1.46345458  0.69849955 -2.91494799
  N -1.80302013  1.42442730 -3.72896281
  H  0.26306905 -1.88748857  1.54582337
  H -0.28413170 -2.22746286 -0.09351176
  H -2.08254663 -2.50455476  1.88904993
  H -3.78001023 -0.84845766  1.30971707
  H -3.47486480  1.64650340 -1.16433001
  H -4.53814197  0.82864391 -0.01400966
  H -3.48508068  2.14517965  0.54449862
  H -1.09293364  1.56926790 -0.60084904
  H  2.07324172 -0.08934692  1.80046086
  H  1.56945741  1.00316711  3.05278492
  H  0.71928326  2.31585923  0.29083071
  H  1.86388264  3.94259597 -1.60258483
  H  3.24659470  3.33505252 -0.68507298
  H  1.95933584  4.24274059  0.15082751
  H  4.11520616 -2.61351284 -0.91509989
  H  3.41944063 -3.35283908 -2.39536464
  H  2.87613380 -3.88536961 -0.77704221
