51
opt_min/./Product_2090_opt.xyz
  C -3.83614565 -1.79861970  1.23294211
  O -2.60028474 -1.12023268  1.21791705
  C -1.94807690 -1.00229335 -0.03602671
  C -1.87317234 -2.27868086 -0.75729380
  N -1.92862839 -3.20704136 -1.42165369
  C -0.52581478 -0.56147988  0.26079590
  C  0.20648445  0.52202743 -0.01642420
  C -0.06739471  1.95610466 -0.42518317
  C  1.17023089  2.70603593 -0.66121121
  N  2.00544640  3.47639372 -0.78068271
  C -0.59312074  2.62141192  0.76810968
  N -0.98916174  3.16090477  1.69177318
  C -0.95306982  2.22099751 -1.66650959
  C -2.44194487  2.37926781 -1.35852401
  C -3.00409112  1.28445350 -0.45924622
  C -2.72923160 -0.10804625 -1.02612630
  C  1.65823740  0.19916948  0.27264124
  C  2.30531179 -0.02961255 -1.12911195
  N  2.95711576 -1.18739637 -1.23655587
  C  3.65214512 -1.58272315 -2.43777259
  O  2.14227208  0.77460757 -2.02433434
  C  2.42654679  1.27000684  1.06898237
  O  1.95252426  1.85874313  2.00040712
  O  3.66816332  1.37381884  0.62996442
  C  4.46609741  2.38473935  1.24405524
  O  1.65942778 -0.96926785  1.05861729
  C  0.35403550 -1.56197226  1.01784652
  C -0.12242120 -1.77742711  2.46277435
  C  0.52266447 -2.86402494  0.38310013
  N  0.79171802 -3.88612502 -0.05101629
  H -4.60601191 -1.26636615  0.66657661
  H -3.74324252 -2.81933697  0.84568786
  H -4.12769212 -1.83240051  2.28126855
  H -0.75631406  1.42814883 -2.38906546
  H -0.60797855  3.15279746 -2.12344978
  H -2.60790213  3.34482477 -0.87631792
  H -2.98077607  2.38465899 -2.30835489
  H -2.57319528  1.35907783  0.53995433
  H -4.07985200  1.44115870 -0.34719952
  H -2.15732254 -0.05827304 -1.95263713
  H -3.66360896 -0.61965837 -1.26646690
  H  2.96807598 -1.80012426 -0.43482628
  H  4.69096438 -1.24728154 -2.40994825
  H  3.61956343 -2.66532968 -2.53607192
  H  3.15822518 -1.11756457 -3.29048111
  H  4.48447630  2.24623093  2.32609627
  H  5.46011643  2.28191006  0.81788102
  H  4.04563087  3.36424869  1.00933600
  H -0.45338203 -0.83054820  2.88136555
  H  0.72072829 -2.14934255  3.04088512
  H -0.93604190 -2.49528815  2.50203102
