51
opt_min/./Product_5616_opt.xyz
  C  1.18504000 -1.65406500 -1.68588600
  C -0.10189625 -0.99953598 -1.21843369
  C -0.48068971 -1.32847918  0.23627312
  N  0.65165485 -1.11824401  1.11070078
  C  0.42845576 -1.02147731  2.53115545
  C  1.91337041 -1.32147956  0.64948791
  C  2.25057510 -1.57719653 -0.62863803
  C  3.62292311 -1.76173124 -1.10453797
  N  4.61840932 -1.77954101 -0.15643364
  O  3.90372180 -1.84891168 -2.28541529
  C -1.59577054 -0.27657217  0.42484332
  C -2.24588139 -0.11466899  1.79687910
  N -2.60046466  1.16181816  2.07910909
  C -3.39261490  1.49151237  3.23992437
  O -2.47765958 -1.04024537  2.54092445
  C -2.83033585 -0.73770600 -0.40180576
  O -3.16248444 -1.89662663 -0.48861248
  N -3.48050055  0.28866182 -0.97423037
  C -4.66543768  0.10952623 -1.77515488
  N -1.04810588  0.95737147 -0.14458091
  C -0.14539644  0.56009241 -1.24680483
  C -0.67875022  1.06933729 -2.59082572
  C  1.25968218  1.13762044 -1.08358323
  O  2.06860230  1.18900824 -1.96678896
  O  1.47852533  1.63234826  0.14452758
  C  2.80243605  2.06155283  0.43023107
  H  1.56162105 -1.17275277 -2.59082522
  H  0.98480274 -2.70023479 -1.94001604
  H -0.91721002 -1.35193041 -1.85635673
  H -0.88919253 -2.34107775  0.34760934
  H -0.32026024 -1.74680420  2.85387490
  H  1.35680217 -1.21080021  3.06510878
  H  0.07318628 -0.02268190  2.80587771
  H  2.66865988 -1.21312700  1.41580091
  H  4.43059239 -2.05207644  0.78892192
  H  5.53785975 -1.98757091 -0.50830705
  H -2.48295505  1.87059686  1.37446044
  H -3.04328546  2.42736415  3.67326064
  H -3.27862548  0.68427239  3.96076796
  H -4.45111075  1.58336249  2.98396963
  H -3.05168414  1.20025277 -0.91491079
  H -4.75533463 -0.94947409 -2.01196681
  H -4.59248850  0.68779373 -2.69591553
  H -5.55622051  0.42122095 -1.22450142
  H -0.49195266  1.42832394  0.56433640
  H -1.63465217  0.60872672 -2.82325040
  H  0.03328081  0.82147964 -3.37240863
  H -0.80156816  2.14957800 -2.55984235
  H  3.51573668  1.45468911 -0.12985456
  H  2.91727625  3.10959147  0.14740970
  H  2.94577330  1.94244984  1.50137291
