35
opt_min/./Product_3669_opt.xyz
  C  0.61482600 -1.84196400  0.70677400
  C  0.08393921 -0.67483584 -0.13519914
  C  0.54756693 -0.84369155 -1.58968682
  C -1.47063906 -0.48844124 -0.01342164
  C -2.06510844 -1.07235964  1.27335704
  C -2.26884271 -0.98878540 -1.21351190
  N -1.57509939  0.98656076  0.10528884
  C -2.73810360  1.70920321  0.14602680
  C -2.51714382  3.18225164  0.35192893
  O -3.82375903  1.18764485  0.01976676
  N -0.40078230  1.56041975  0.36860330
  C  0.55378208  0.71090036  0.31945987
  C  1.92719834  1.21267027  0.57692204
  N  2.91725365  0.28768330  0.56102968
  C  4.28519701  0.68972695  0.79538842
  O  2.15211636  2.38717484  0.78442809
  H  0.80088509 -1.54136311  1.73604725
  H  1.53565770 -2.24045121  0.28338266
  H -0.10051206 -2.65996427  0.71784245
  H  0.25498070 -1.81672307 -1.97784062
  H  1.63136955 -0.76228535 -1.64761616
  H  0.12617286 -0.07008686 -2.22737389
  H -3.07447227 -0.68518322  1.38939186
  H -1.48077277 -0.78075996  2.14325196
  H -2.12393150 -2.15645539  1.22427286
  H -2.00141961 -2.01715702 -1.44315653
  H -3.32996907 -0.94450581 -0.98378920
  H -2.09380269 -0.37182162 -2.09091823
  H -2.09931891  3.34788058  1.34261464
  H -1.80220365  3.56226384 -0.37245754
  H -3.46697890  3.70133412  0.26019658
  H  2.71706797 -0.68646814  0.42859065
  H  4.35220960  1.25373598  1.72746523
  H  4.91749958 -0.19192522  0.85236718
  H  4.63200265  1.33964095 -0.01180558
