44
opt_min/./Product_1015_opt.xyz
  C  2.58345500 -2.75717500  0.82590400
  O  1.74144235 -2.84483879 -0.30525598
  C  1.62966976 -1.71608073 -1.04611860
  C  2.04884881 -0.45285336 -0.90042351
  O  2.70073481  0.12778070  0.14672041
  C  3.70969446  1.07646632 -0.15346496
  C  1.39043559  0.29208055 -2.06375949
  C -0.11753880  0.41777274 -1.66584843
  C -0.60158980 -1.02579672 -1.87111712
  C  0.73820544 -1.70914999 -2.27591674
  O  1.35082799 -0.70233698 -3.06673255
  C -1.18239077 -1.43110192 -0.49411301
  C -2.67856694 -1.61788166 -0.53971357
  C -3.49907534 -0.52916590 -0.80909494
  C -4.87179829 -0.68504295 -0.87619222
  C -5.43829334 -1.93246273 -0.67611619
  C -4.62588717 -3.02103995 -0.40864903
  C -3.25277589 -2.86431331 -0.33803988
  N -0.84420132 -0.35896445  0.42372097
  C -0.30996080  0.61056719 -0.19542000
  C  0.18506353  1.83345233  0.49734284
  N -0.00153008  1.78963594  1.82730523
  C  0.38875177  2.86077786  2.70599015
  O  0.71690802  2.75363724 -0.09658031
  H  3.62596664 -2.63039233  0.51703856
  H  2.29763305 -1.91761603  1.46378311
  H  2.46643336 -3.69686133  1.36173616
  H  3.48760550  1.63616315 -1.06095184
  H  3.75439055  1.76209443  0.69062240
  H  4.67535325  0.57096863 -0.26719285
  H  1.84305512  1.21663914 -2.40327959
  H -0.61129759  1.17915352 -2.26807047
  H -1.33461387 -1.12595822 -2.67207930
  H  0.65321289 -2.65450411 -2.80235182
  H -0.71545876 -2.34409859 -0.10998223
  H -3.05507304  0.44384764 -0.96322813
  H -5.49860921  0.16741683 -1.08565481
  H -6.50954939 -2.05558317 -0.72968689
  H -5.06340580 -3.99523970 -0.25056135
  H -2.62025990 -3.71513502 -0.13052099
  H -0.45828646  0.96760535  2.19251942
  H  0.54191044  2.47680225  3.71167660
  H  1.31574797  3.30026821  2.33554755
  H -0.37359956  3.64438002  2.72990125
