50
opt_min/./Product_2422_opt.xyz
  C  6.40558000  0.44126500  0.02244700
  N  5.00525695  0.11368443  0.13441149
  C  4.25142248  0.55974046  1.16928591
  O  4.68684823  1.29097948  2.03650387
  C  2.84799627  0.11124831  1.16284671
  C  1.88467454  0.48024697  2.01873442
 Br  1.90338103  1.73800228  3.37734957
  C  0.62227301 -0.24360214  1.57221823
  C  0.18406262  0.51749423  0.29982672
  C  1.29179303  0.07190319 -0.69484970
  C  2.13657944 -0.85068371  0.21618462
  O  1.16301052 -1.44692949  1.06217278
  C  0.51408424 -0.53454583 -1.88240293
  C  0.48686002 -2.06669760 -1.74238531
  C  1.64710172 -2.76273097 -2.42478146
  O -0.35706947 -2.69071894 -1.16118934
  N -0.71667902  0.22421642 -1.81518300
  C -1.16799802  0.24917995 -0.42239788
  C -2.05007280 -1.02651523 -0.24801002
  N -2.14336556 -1.63533104  0.94498028
  C -2.93477712 -2.83270113  1.10344399
  O -2.73756898 -1.34542149 -1.19924376
  C -2.08946648  1.43356499 -0.17602766
  C -3.01296266  1.43450368  0.85945984
  C -3.81869262  2.53960082  1.07681503
  C -3.71223205  3.65371892  0.26459443
  C -2.79006582  3.66022620 -0.76881676
  C -1.98332472  2.55894856 -0.98501379
  H  7.03228602 -0.38647821  0.36472755
  H  6.65406539  0.67794946 -1.01153967
  H  6.59365942  1.30787061  0.65536040
  H  4.60532397 -0.49172404 -0.56201984
  H -0.10536075 -0.41614582  2.35693817
  H  0.23732567  1.59445813  0.47519329
  H  1.87296135  0.92783654 -1.04430366
  H  2.73917127 -1.61810546 -0.25864802
  H  0.99178266 -0.30686983 -2.84305460
  H  1.24766215 -3.32732578 -3.26718778
  H  2.08918638 -3.48629814 -1.74236729
  H  2.40118589 -2.07126209 -2.78939536
  H -1.48681776 -0.12065741 -2.38622365
  H -1.47850852 -1.43886979  1.67018788
  H -3.64267693 -2.86987540  0.27769070
  H -3.47064056 -2.79714743  2.05264466
  H -2.30397697 -3.72318260  1.06949409
  H -3.11145888  0.57206317  1.50142040
  H -4.53474907  2.52539688  1.88522744
  H -4.34504260  4.51206805  0.43470557
  H -2.69819287  4.52527810 -1.40881339
  H -1.26657719  2.55131226 -1.79173225
