48
opt_min/./Product_1657_opt.xyz
  F  2.06723487 -2.11431819  3.47407810
  C  2.44344860 -1.25060862  2.53468741
  C  3.60186703 -1.08489811  1.90661594
  F  4.74027079 -1.77094621  1.96813263
  C  3.34023562  0.01395506  0.89028057
  C  2.48592324 -0.66264414 -0.22626858
  C  1.14692613 -0.85671755  0.51064782
  C  1.49637818 -0.24564990  1.90116931
  O  2.39215228  0.80299912  1.57866805
  C  0.03820615 -0.19473478 -0.35858097
  C -0.82401828 -1.35379123 -0.86437300
  C -1.52395277 -2.13150973  0.05522735
  C -2.29334840 -3.19902712 -0.36629987
  C -2.37361977 -3.50852693 -1.71480860
  C -1.68535610 -2.73810051 -2.63351397
  C -0.91643333 -1.66592019 -2.21114884
  C -0.84327708  0.85346559  0.31656656
  C -2.22490860  0.83253187  0.14118775
  C -3.03324486  1.80495810  0.70182802
  C -2.47848620  2.83726032  1.43719605
  C -1.10413293  2.89790581  1.57698090
  C -0.29433839  1.92499386  1.01612072
  N  0.74836464  0.40948244 -1.48649680
  C  0.26023257  1.62931009 -2.07754919
  C  2.18695717  0.20937888 -1.46469335
  C  2.63402704 -0.47811855 -2.78215970
  C  2.92052179  1.46806358 -1.39264752
  N  3.52929653  2.43618607 -1.38604278
  H  4.19595798  0.60214501  0.57297248
  H  2.96256853 -1.59620259 -0.52393764
  H  0.90180100 -1.91159646  0.63800998
  H  0.66507553  0.08615836  2.51533643
  H -1.47604983 -1.88656047  1.10734730
  H -2.83263036 -3.79076501  0.35858887
  H -2.97267774 -4.34427812 -2.04404302
  H -1.74468277 -2.97057788 -3.68685713
  H -0.38402277 -1.06624429 -2.93123185
  H -2.68496321  0.05119303 -0.44343235
  H -4.10231665  1.75562945  0.55702091
  H -3.10851246  3.59290268  1.88202640
  H -0.64812555  3.71266864  2.11947032
  H  0.77290701  2.03248001  1.11611797
  H -0.80277522  1.51763370 -2.28864131
  H  0.78430418  1.79419637 -3.01985875
  H  0.39871320  2.51974841 -1.44968608
  H  1.88364770 -0.30382743 -3.54813521
  H  3.58256590 -0.07723553 -3.13309835
  H  2.73718739 -1.55096851 -2.64642796
