47
opt_min/./Product_2400_opt.xyz
  C -2.66140419 -3.37857946  0.26270579
  O -1.53600162 -2.54352133  0.43832100
  C -1.61265579 -1.21665766 -0.09357710
  C -2.34704271 -1.23434418 -1.36035288
  N -2.95552534 -1.29387326 -2.32429355
  C -0.18011560 -0.84626408 -0.43679630
  C  0.50778458  0.25267126 -0.76944696
  C  0.05175161  1.70424963 -0.87813080
  C  1.14773059  2.58531982 -1.54298784
  F  2.27084316  2.62902699 -0.81500189
  F  0.77595171  3.86563286 -1.65085572
  F  1.48033066  2.18345492 -2.76806312
  C -1.15032293  1.79983247 -1.85388854
  F -0.95871115  1.00088326 -2.90791519
  F -1.34473832  3.03267640 -2.32935893
  F -2.31721615  1.45648898 -1.31226018
  C -0.17123145  2.37644768  0.50545871
  C -1.35894508  1.99458052  1.38726389
  C -1.44908544  0.52733459  1.82731182
  C -2.35307748 -0.31648819  0.92857675
  C  1.95768576 -0.11306917 -1.04450527
  C  2.96767037  0.39002509 -0.00023377
  O  2.40021005  0.39768058  1.21159384
  C  3.24745979  0.72477935  2.31231430
  O  4.12117500  0.61154970 -0.21783543
  N  2.01910591 -1.57150559 -0.98323722
  C  0.74951404 -2.05895591 -0.46593320
  C  0.20341588 -3.10821895 -1.32322533
  N -0.21945610 -3.91705543 -2.00743623
  C  0.90183233 -2.58181696  0.89191442
  N  1.15455448 -2.93052269  1.94945883
  H -2.49021718 -4.22659261  0.92296341
  H -3.59331502 -2.87999451  0.54237123
  H -2.73248249 -3.73159531 -0.77047687
  H -0.24162031  3.45360504  0.33415298
  H  0.74281891  2.19021510  1.07438928
  H -1.25205718  2.60924948  2.28246853
  H -2.29582688  2.28759701  0.91191630
  H -1.86163922  0.50982241  2.83575799
  H -0.44873556  0.09317061  1.88685623
  H -3.07838793  0.31591025  0.42077775
  H -2.91036520 -1.01320937  1.56093522
  H  2.28472659  0.19848741 -2.04494003
  H  3.38109551  1.80605355  2.36292917
  H  4.22113814  0.25016387  2.18940534
  H  2.74581516  0.35358445  3.20219512
  H  2.78771737 -1.89283831 -0.40442841
