45
opt_min/./Product_4541_opt.xyz
  C  4.83591726  1.56828065 -1.41746625
  C  5.51643962  0.30748549 -0.98372879
  C  6.98215709  0.25214478 -1.29995068
  C  4.91961284 -0.69103122 -0.33042737
  C  3.52389041 -0.77857924  0.06200317
  C  2.48181371 -0.39764571 -0.67158468
  C  1.05150669 -0.51737165 -0.21898050
  C  0.81665908  0.31517360  1.05164837
  C  0.69151288 -2.00133258  0.02259824
  C -0.67655650 -2.19553963 -0.69049168
  C -1.65293645 -2.75974148  0.32425907
  C -1.63643568 -4.25487018  0.49292139
  O -2.35149656 -2.03489036  0.99032482
  N -1.08648165 -0.88751812 -1.14738866
  N  0.10467752 -0.12738567 -1.29229033
  C -0.08789819  1.24201618 -1.55642412
  C  0.87735293  1.92454296 -2.29943368
  C  0.73633258  3.26697866 -2.58758360
  C -0.38718513  3.95995160 -2.16729059
  C -1.36882953  3.28581875 -1.46434395
  C -1.22534694  1.94392936 -1.16107655
  H  5.51349515  2.41292173 -1.29985563
  H  4.56328143  1.51057037 -2.47155125
  H  3.93293565  1.75069198 -0.83949672
  H  7.52869942  0.96426599 -0.67994140
  H  7.39234832 -0.73913057 -1.12450639
  H  7.15248441  0.52471248 -2.34053226
  H  5.53061837 -1.52475347  0.00205679
  H  3.35781191 -1.23006294  1.03529952
  H  2.63497751 -0.03407703 -1.67188548
  H -0.20922161  0.19866936  1.39943719
  H  1.49039571 -0.00623975  1.84180392
  H  0.99906196  1.36906464  0.84850198
  H  1.44413481 -2.66065373 -0.40582561
  H  0.61366841 -2.20757298  1.09011669
  H -0.56982281 -2.86274787 -1.55167843
  H -2.64944933 -4.63291068  0.36895718
  H -1.32694917 -4.49644624  1.50859567
  H -0.97251734 -4.73874348 -0.21583459
  H -1.71130043 -0.49557553 -0.43117287
  H  1.73602152  1.39351705 -2.67440736
  H  1.50223847  3.77204221 -3.15828507
  H -0.50252183  5.00846888 -2.39840542
  H -2.25810854  3.80824469 -1.14156621
  H -2.01548883  1.45827741 -0.60871037
