29
opt_min/./Product_2361_opt.xyz
  C -3.89554400 -0.41298694  0.16632013
  O -2.54815811 -0.66546621  0.52797418
  C -1.58620147 -0.80228370 -0.41241558
 Br -2.12998358 -2.04317083 -1.87666302
  C -0.26628620 -1.24356521  0.29730867
 Br -0.49272750 -1.13303270  2.23502687
 Br  0.33842849 -3.02402005 -0.08829750
  C  0.72163312 -0.14141007 -0.12648328
  C  2.02453264 -0.09581058  0.66997109
  O  2.60250443 -1.27617801  0.59411509
  C  3.83656429 -1.45958656  1.28344439
  O  2.41819441  0.85028690  1.28873089
  C  0.90841868 -0.36755505 -1.65143522
  O  1.82382759 -0.84570331 -2.22887036
  O -0.22652282  0.09153089 -2.20686624
  C -1.06270841  0.52835962 -1.10927552
  C -2.05664700  1.46575290 -1.57097481
  N -2.82085886  2.23808628 -1.92030123
  N -0.16324537  1.01794673 -0.09256776
  C  0.43425223  2.32842814 -0.30728433
  H -4.42059911 -0.34196722  1.11864395
  H -4.29557589 -1.24630773 -0.41982541
  H -4.00244153  0.51786617 -0.39050384
  H  4.65841213 -1.16300863  0.62987505
  H  3.85029321 -0.85466177  2.19161423
  H  3.89789733 -2.51994605  1.51711414
  H  1.06352193  2.36011162 -1.20576630
  H  1.04074705  2.56415675  0.56556208
  H -0.37011630  3.05637763 -0.40216661
