53
opt_min/./Product_1487_opt.xyz
  C  2.29797700 -2.75968600  1.92104900
  C  1.29513758 -1.68407616  1.58705095
  O  1.09039588 -0.75122121  2.32115131
  C  0.47441303 -1.89404446  0.30778790
  C  0.27886216 -0.55118303 -0.33405374
  C -0.77720775  0.28186015 -0.68599618
  C -0.14844616  1.53232443 -0.93771208
  C -0.68907366  2.88386355 -1.26716875
  N -1.00707083  3.58409782 -0.14978290
  C -1.46132870  4.95074903 -0.19099085
  O -0.77774512  3.34217989 -2.38538185
  N  1.15634104  1.45771734 -0.77313798
  N  1.41553913  0.20436093 -0.43105037
  C  2.75065044 -0.18208810 -0.21858094
  C  3.53742265  0.56990553  0.64605336
  C  4.85824298  0.21948648  0.85432813
  C  5.40175115 -0.87320155  0.19836944
  C  4.62660141 -1.60375844 -0.68698825
  C  3.30564689 -1.25755858 -0.90382076
  C -2.25741603  0.02924832 -0.87034553
  C -2.83115696  1.12154910 -1.79512161
  C -2.98815132  0.18323521  0.47111272
  C -2.55918027 -1.31276782 -1.58139010
  C -2.76994396 -2.60316036 -0.79458525
  C -1.53585072 -3.35424836 -0.32078102
  C -0.76149705 -2.65798982  0.79709003
  H  1.99706572 -3.24091442  2.85023648
  H  2.38981066 -3.50259561  1.13577942
  H  3.26572379 -2.29476156  2.09735692
  H  1.02118418 -2.55627731 -0.37080229
  H -0.82053616  3.17048271  0.75035054
  H -0.76629204  5.61089367  0.33161709
  H -1.51303451  5.23882291 -1.24003277
  H -2.45164621  5.04354169  0.26090033
  H  3.09801829  1.41793861  1.14656331
  H  5.46443461  0.80088211  1.53253242
  H  6.43253968 -1.14737167  0.36726690
  H  5.05570510 -2.43977001 -1.21939435
  H  2.70936756 -1.80323224 -1.61964847
  H -2.89783703  2.07326910 -1.27571124
  H -3.83649706  0.86049488 -2.11821730
  H -2.21798544  1.25595870 -2.68211922
  H -4.06403466  0.18955004  0.30780526
  H -2.74664758 -0.61454368  1.16725532
  H -2.70812105  1.12675698  0.93512457
  H -3.50586096 -1.16922054 -2.10577585
  H -1.79729729 -1.46993097 -2.34766005
  H -3.30573695 -3.27838418 -1.46774382
  H -3.42960001 -2.42232011  0.05440323
  H -0.87440402 -3.54693698 -1.16678725
  H -1.87875114 -4.32342224  0.04765266
  H -0.39538283 -3.42046552  1.49020543
  H -1.40641294 -1.99283943  1.36634918
