44
opt_min/./Product_962_opt.xyz
  C  1.32500630  1.01647568 -2.73158542
  O  0.99090903 -0.30618436 -2.36395117
  C  0.33611771 -0.48197467 -1.14828330
  C -0.01761262 -2.00094072 -0.97858626
  F  0.36338766 -2.74898617 -2.06052588
  C -1.54735867 -2.00199879 -0.83093361
  C -2.15855744 -1.65888166 -2.19818644
  C -1.80664146 -0.16876167 -2.37270797
  C -1.06651092  0.17686074 -1.07200189
  C -1.78492250 -0.70793338 -0.05430031
  C  0.77419520 -2.47350639  0.27420358
  C  0.02197936 -3.39026887  1.25333473
  C  1.95030823 -3.25114163 -0.11859382
  N  2.81618812 -3.95749174 -0.34769719
  O  1.10211967 -1.28671184  0.98413400
  C  1.23895991 -0.16789994  0.10999925
  C  0.83258519  1.09428214  0.86932904
  N  0.77699076  0.94787398  2.19938622
  C  0.41198040  2.04234262  3.06766481
  O  0.60482869  2.14853879  0.30542529
  C  2.73395135 -0.10900785 -0.32122381
  C  3.51886756  1.10662590  0.08818979
  O  3.22450173 -1.04714678 -0.88242544
  H  1.33991762  1.03688202 -3.82179795
  H  2.32039345  1.28056218 -2.36150109
  H  0.60745856  1.74822595 -2.35939185
  H -1.94835540 -2.92367409 -0.41524545
  H -1.74043082 -2.28093839 -2.98608052
  H -3.23596848 -1.81444717 -2.16588835
  H -1.17823793 -0.00612833 -3.24508418
  H -2.70069875  0.44705282 -2.47097516
  H -1.04782695  1.24088486 -0.84918213
  H -2.84234102 -0.46307655  0.03654802
  H -1.32210945 -0.69231897  0.93139526
  H  0.67539350 -3.58897362  2.10079763
  H -0.88029679 -2.90780558  1.61913339
  H -0.22090285 -4.33180446  0.76817909
  H  0.94997805  0.03516567  2.59093337
  H  1.27161238  2.69147980  3.25145566
  H  0.04688439  1.65116260  4.01328718
  H -0.36556960  2.63698576  2.58681073
  H  2.97061705  2.02910284 -0.07510111
  H  3.73797213  1.01716811  1.15260140
  H  4.46032952  1.12106407 -0.45752007
