36
opt_min/./Product_3962_opt.xyz
  C -1.62765365 -1.39052993 -1.17303853
  C -1.80297066  0.01131522 -0.57848657
  C -3.29980052  0.24942766 -0.34784290
  C -0.86720416  0.31867254  0.64517306
  C -1.57167947  1.15548009  1.71948317
  C -0.34234331 -0.94934963  1.32399118
  C  0.29297249  1.17398601 -0.02780105
  C  0.57671891  2.40439877  0.70022939
  N  0.82297570  3.37929374  1.24061921
  C  1.61631349  0.44783884 -0.17728718
  C  2.49124186  0.39381219  0.90590607
  C  3.69007004 -0.28331153  0.80423220
  C  4.03324766 -0.91211173 -0.38335341
  C  3.17777252 -0.85022756 -1.46747967
  C  1.97544596 -0.17250321 -1.36327672
  N -0.19300355  1.59409478 -1.32174635
  C -1.27576691  1.00262044 -1.60190620
  C -1.94569995  1.18404192 -2.83057480
  N -2.53214255  1.28387504 -3.80998077
  H -1.91694881 -2.16459650 -0.46754024
  H -2.26555311 -1.49554711 -2.04970783
  H -0.59974776 -1.57572443 -1.48132704
  H -3.83367114  0.10211292 -1.28766466
  H -3.51857801  1.25368338 -0.00220399
  H -3.69520973 -0.47602301  0.35815768
  H -0.89751951  1.34450446  2.55186222
  H -2.43462744  0.62954846  2.11561382
  H -1.89973617  2.11574597  1.32565578
  H  0.28407031 -0.67192035  2.16829377
  H -1.18148959 -1.51716630  1.71787935
  H  0.24798699 -1.56943563  0.65997475
  H  2.23963716  0.89848143  1.82763988
  H  4.35850371 -0.32178562  1.65067047
  H  4.97397960 -1.43574566 -0.47074176
  H  3.43867689 -1.33020195 -2.39822076
  H  1.31771759 -0.11172518 -2.21945948
