48
opt_min/./Product_950_opt.xyz
  C  1.05205396  3.60742657 -1.15034645
  C -0.01074197  2.56005991 -1.28706772
  O -0.65723700  2.40080202 -2.28785121
  C -0.30972585  1.66891294 -0.04382703
  C  0.37906064  2.11740826  1.14882837
  N  0.83709336  2.48598629  2.13029712
  C  0.22111469  0.30799557 -0.40044234
  C -0.23222798 -0.94847393 -0.42501298
  C -1.51593664 -1.66506503 -0.07921784
  C -1.21403636 -3.17047708  0.01128202
  C -2.50806927 -1.43947422 -1.22175017
  C -2.08222156 -1.26281184  1.30068309
  C -3.02876203 -0.06675836  1.40562999
  C -2.40272706  1.32164596  1.50727544
  C -1.81380079  1.91522049  0.22586153
  O  0.73945154 -1.81233584 -0.90522791
  N  1.76977435 -1.05204770 -1.54429592
  C  1.57001975 -1.11769901 -2.97777255
  C  1.64056265  0.27767651 -0.97441603
  C  2.67383756  0.52617153  0.14171409
  N  2.89894001 -0.54574177  0.91319261
  C  3.82016304 -0.51598403  2.02541627
  O  3.19507882  1.61145289  0.28605253
  H  1.73207793  3.42023649 -0.32441192
  H  1.61086821  3.67185669 -2.08406122
  H  0.55564064  4.56994477 -1.01168312
  H -0.52838060 -3.37488599  0.83121940
  H -0.75929068 -3.53596076 -0.90516526
  H -2.13661545 -3.72141434  0.18339143
  H -3.46556755 -1.89747467 -0.98236838
  H -2.13285542 -1.89330833 -2.13743697
  H -2.66050251 -0.38033543 -1.40913609
  H -2.67903793 -2.12116611  1.62547617
  H -1.26095207 -1.14617774  2.00993704
  H -3.76492159 -0.08662003  0.60194656
  H -3.56028109 -0.20263322  2.35657991
  H -3.23535479  1.98475952  1.77769166
  H -1.66231565  1.35822731  2.30821641
  H -2.40084433  1.64332259 -0.65238409
  H -1.87671372  3.00424379  0.34527325
  H  1.94395867 -2.07987944 -3.32852254
  H  2.13452264 -0.32217735 -3.45879065
  H  0.51265118 -1.02080910 -3.25402647
  H  1.81307700  1.04462248 -1.73422472
  H  2.45389331 -1.42706592  0.70882361
  H  4.72020362 -1.09416857  1.80413535
  H  4.08863434  0.52498043  2.20124532
  H  3.34344963 -0.92162082  2.91866693
