40
opt_min/./Product_1363_opt.xyz
  F  1.37762900  2.60289500 -2.26690600
  C  1.95789388  1.54755378 -1.66937367
  F  3.22692089  1.88082859 -1.46898001
  F  1.94421115  0.56476134 -2.59190340
  C  1.20428953  1.13521907 -0.41714157
  C -0.31409188  0.98518404 -0.65389774
  C -0.84515808  2.03724611  0.38895817
  C -0.55191958  1.48464638  1.76908653
  C  0.75311974  1.64954257  1.93560422
  C  1.23609450  2.29271029  0.65158404
  O  0.12344877  3.05926184  0.25807046
  C -0.56795108 -0.52878117 -0.38368423
  C -1.79181437 -0.88458077  0.48875161
  N -2.88812423 -0.13539570  0.23125217
  C -4.12466430 -0.33043252  0.95384438
  O -1.76571516 -1.76160420  1.31049724
  C -0.67268019 -1.30570840 -1.73472863
  C -1.79527965 -0.91094273 -2.65681820
  O  0.12885096 -2.14189499 -2.02673478
  N  0.61615397 -1.02873870  0.25132596
  C  1.56936030 -0.20902156  0.17354172
  C  2.92829995 -0.50881738  0.71566268
  O  3.84799450  0.26795277  0.67494929
  O  2.96870043 -1.71021600  1.25576541
  C  4.22124890 -2.11492443  1.79085411
  H -0.61040733  1.28113637 -1.65870346
  H -1.83725670  2.43697750  0.20056704
  H -1.28131062  1.05241834  2.42275692
  H  1.38322072  1.35708800  2.75063535
  H  2.15895926  2.86352148  0.67808596
  H -2.85269089  0.62576544 -0.42521952
  H -4.46184706  0.61001751  1.39075612
  H -3.93181016 -1.05463463  1.74395847
  H -4.90298932 -0.71976931  0.29503033
  H -2.66832505 -0.52616709 -2.14398958
  H -2.06691517 -1.78539623 -3.24476627
  H -1.41928327 -0.15875288 -3.35082939
  H  4.11476078 -3.16390729  2.05205694
  H  4.45872961 -1.52067289  2.67670587
  H  5.01491934 -1.97586377  1.05393003
