42
opt_min/./Product_5049_opt.xyz
  C  1.30745900 -0.73496000  0.42515800
  C  0.07889572 -0.70358934 -0.48642981
  C -0.62962721  0.66207679 -0.38838809
  N  0.22484201  1.81512536 -0.31229810
  C -0.25335475  3.04072946 -0.90915642
  C  1.57044197  1.65124765 -0.14194578
  C  2.14702679  0.49085904  0.21371430
  C  3.60537362  0.32819255  0.32541589
  N  4.31620470  1.47595324  0.57829296
  O  4.16709810 -0.73738504  0.16123871
  C -1.51544440  0.39030973  0.82929129
  C -2.08620947  1.47728663  1.67870861
  O -2.77935495  2.33977964  0.92901520
  C -3.39182426  3.41598989  1.63051035
  O -1.92818589  1.57889325  2.86278667
  N -1.72602596 -0.83088303  1.06037541
  C -1.03928867 -1.63835409  0.07658278
  C -0.55846603 -2.95630908  0.67247472
  C -1.25221492 -3.34457117  1.93797060
  O  0.28667767 -3.62069655  0.12949946
  C -2.01410135 -1.95328376 -1.08735977
  C -1.44737849 -2.80802598 -2.18375483
  O -3.13009328 -1.51006046 -1.10156986
  H  0.98484058 -0.78024402  1.47053926
  H  1.91479099 -1.61720206  0.21872158
  H  0.37403048 -0.94361608 -1.50549806
  H -1.30633742  0.78550955 -1.24673119
  H -1.33763136  3.08298312 -0.83324797
  H  0.02778964  3.12185945 -1.96654411
  H  0.16729915  3.89235071 -0.37383907
  H  2.15218675  2.54191995 -0.32830568
  H  3.87462973  2.25319895  1.03712486
  H  5.29893023  1.34417396  0.76588324
  H -3.99832869  3.03525824  2.45340281
  H -4.01550738  3.93831574  0.90921385
  H -2.62971794  4.08596397  2.03331246
  H -0.80069001 -4.24168805  2.35268827
  H -1.22741941 -2.52150688  2.64683091
  H -2.29914234 -3.53328138  1.70241090
  H -1.28544795 -2.18657956 -3.06500516
  H -0.51038720 -3.27699698 -1.90330829
  H -2.18146191 -3.56241043 -2.45845186
