60
opt_min/./Product_2922_opt.xyz
  C  3.59266961 -2.07790470 -2.47069721
  O  2.93851252 -1.47834813 -1.35643558
  C  2.24472478 -0.38384345 -1.57899804
  O  2.11915447  0.16179142 -2.64395838
  C  1.62701153  0.23837144 -0.29469634
  C  2.05428092 -0.45358149  1.00463091
  O  1.29239011 -0.69643121  1.90706240
  O  3.36020737 -0.64830247  1.04984162
  C  3.90102069 -1.28638682  2.20028650
  C  0.08685082  0.01874774 -0.43563221
  C -1.07896493  0.66421311 -0.20108424
  C -1.28338510  2.11523554  0.26325705
  C -2.37785321  2.36881737  1.18131883
  N -3.23278050  2.73131226  1.84575724
  C -1.50029116  3.05925549 -0.93728393
  F -0.68380321  2.76353773 -1.95803399
  F -1.24656830  4.33069106 -0.60859782
  F -2.74251651  3.04766446 -1.43158017
  C  0.13631609  2.31983671  0.80180988
  C  1.11536161  3.43710174  1.08459313
  C  2.41599312  2.59954979  0.94506388
  C  2.43404844  1.62376122 -0.27094103
  C -2.25220447 -0.27254479 -0.34940532
  C -2.76963484 -0.66460659  1.07063619
  N -3.61945220 -1.69995669  1.03028605
  C -4.21376480 -2.26318688  2.21631364
  O -2.44462062 -0.06977088  2.07212931
  C -3.41859645  0.23767396 -1.19512002
  O -1.70458564 -1.42779770 -0.97340672
  C -0.30030909 -1.41891110 -0.82771077
  C  0.23248460 -1.94401655 -2.07966866
  N  0.54414732 -2.47287858 -3.04186297
  C  0.13525615 -2.43214503  0.27728065
  O  1.18658784 -3.01063024  0.27187885
  O -0.81833366 -2.55842512  1.17318293
  C -0.52719902 -3.35568874  2.31549093
  H  2.91883412 -2.80547721 -2.92598699
  H  4.48050919 -2.56986535 -2.07966532
  H  3.85244975 -1.31505252 -3.20605279
  H  3.09786189 -1.60053756  2.86752931
  H  4.55644309 -0.58122684  2.71301150
  H  4.47203974 -2.14789053  1.85844576
  H  0.59819470  1.97120074 -0.09769262
  H  0.23774595  1.59178648  1.60974957
  H  1.09034325  4.22446863  0.33207826
  H  1.03466269  3.88995999  2.07017502
  H  3.27402935  3.26255066  0.82422733
  H  2.56489308  2.02734592  1.86185551
  H  2.19886943  2.17111017 -1.18785749
  H  3.47414561  1.29385400 -0.36432542
  H -3.70859230 -2.20831154  0.16476594
  H -3.92071687 -1.63686199  3.05687097
  H -3.86912388 -3.28471134  2.38206179
  H -5.30124194 -2.26275025  2.12694611
  H -3.96525958  1.01442572 -0.66814481
  H -4.09052688 -0.59030405 -1.40382529
  H -3.05768241  0.62437494 -2.14581247
  H  0.50272547 -3.18642326  2.62920493
  H -1.21995966 -3.03296021  3.08789107
  H -0.66593172 -4.41200211  2.07780950
