41
opt_min/./Product_4460_opt.xyz
  C -5.96600400  0.51100800  0.40145000
  C -4.55707012  0.60876996 -0.10383904
  C -4.21555366  1.89348017 -0.79298067
  C -3.70225174 -0.40824943  0.06694282
  C -2.32899073 -0.45741784 -0.36287636
  C -1.54023996 -1.51853873 -0.18435337
  C -0.10444379 -1.55093867 -0.63048993
  C  0.45184197 -2.98156723 -0.75286324
  C  0.79334506 -0.67622142  0.28480755
  C  1.83517578 -0.11446070 -0.70962299
  C  1.88266211  1.41238580 -0.56390102
  O  2.53057793  1.78676095  0.53192892
  C  2.61897042  3.18237903  0.80802158
  O  1.37199820  2.15456307 -1.35973096
  C  3.24006369 -0.69640885 -0.50257703
  O  3.95371995 -1.06518785 -1.39075803
  O  3.56041885 -0.71417680  0.79140868
  C  4.85830104 -1.18378690  1.14152850
  N  1.36095889 -0.51861005 -2.02933094
  O -0.02242083 -0.87500133 -1.87690467
  H -6.03431695  0.93297472  1.40559745
  H -6.64504811  1.06748348 -0.24129750
  H -6.29677498 -0.52379219  0.44978368
  H -4.77668440  2.71758188 -0.35549815
  H -3.15582842  2.12378224 -0.73200090
  H -4.48506344  1.82757334 -1.84796707
  H -4.05852979 -1.29806155  0.57221436
  H -1.92774001  0.40325957 -0.87759205
  H -1.91699525 -2.40823992  0.29746501
  H  0.61055765 -3.19808462 -1.80634642
  H  1.40632255 -3.08473028 -0.24300946
  H -0.24468611 -3.71105930 -0.34918226
  H  0.20448695  0.13457504  0.71666746
  H  1.25642778 -1.23906170  1.09045211
  H  2.23743994  3.75530521 -0.03880435
  H  2.02934594  3.39568261  1.70055472
  H  3.66620118  3.42155257  0.98807760
  H  5.31788864 -0.43639996  1.78650468
  H  4.75531688 -2.12700793  1.67997061
  H  5.45576999 -1.33423656  0.24075095
  H  1.34572933  0.26716059 -2.68147930
