46
opt_min/./Product_1849_opt.xyz
  C -3.40365374  1.31104569  1.75261435
  O -2.08397604  0.83082396  1.67136095
  C -1.73767601  0.06135934  0.51505078
  C -0.25495691 -0.18013457  0.67100878
  C  0.62544859 -1.12249908  0.31099001
  C  0.52060908 -2.40203123 -0.46462299
 Cl  0.50625640 -1.97688467 -2.20488869
 Cl  2.03467541 -3.35472980 -0.22134259
  C -0.63849608 -3.31984783 -0.05934178
  C -1.88513462 -3.23128494 -0.93205215
  C -2.51147786 -1.84281470 -1.01927468
  C -2.66479583 -1.14376068  0.33460082
  C  1.99985245 -0.72206296  0.83064123
  C  2.29419136 -1.59531149  1.96530932
  N  2.47110018 -2.18859865  2.92851230
  C  3.14052435 -0.69909243 -0.23307879
  O  2.93974309 -0.38561094 -1.37630422
  N  4.34400959 -1.01559709  0.27181668
  C  5.51988375 -0.98396990 -0.57072060
  O  1.85288986  0.58369822  1.36273212
  C  0.50368125  0.97401068  1.28963483
  C  0.38732991  2.21758282  0.36151897
  N -0.59658262  3.06373325  0.72460796
  C -0.88018191  4.26745738 -0.02148907
  O  1.09885827  2.37697761 -0.59789122
  H -4.12554626  0.52389122  1.98714156
  H -3.70649567  1.82166505  0.83051428
  H -3.39991154  2.02876536  2.57385240
  H -1.85333821  0.71528243 -0.37275834
  H -0.29227987 -4.35431554 -0.09419856
  H -0.86865533 -3.09514964  0.98319507
  H -1.63091175 -3.55815767 -1.94018170
  H -2.61475919 -3.93886465 -0.53105281
  H -1.92288266 -1.21586472 -1.68759616
  H -3.49528769 -1.95909829 -1.47849039
  H -3.68311280 -0.74948224  0.39547634
  H -2.54393979 -1.83778192  1.16526083
  H  4.44924964 -1.24754031  1.24587196
  H  5.56524403 -0.03083930 -1.09932600
  H  5.47084666 -1.78242636 -1.31496146
  H  6.40654046 -1.11292975  0.04274080
  H  0.14803934  1.22813958  2.29466559
  H -1.17340010  2.83489570  1.51762002
  H -0.50473499  4.13457237 -1.03558262
  H -1.95317141  4.45043516 -0.04036000
  H -0.37651784  5.13047772  0.42246057
