33
opt_min/./Product_3622_opt.xyz
  C -2.26302900  0.80646100 -0.97805400
  C -1.42707639 -0.02460633 -0.00819882
  C -0.95694139 -1.30435263 -0.69620999
  C -0.25192044  0.78129075  0.63197420
  C  1.11269455  0.20362494  0.46523072
  C  2.10697245  0.85336671 -0.13845600
  C  3.46129393  0.36185053 -0.31551300
  C  3.83846738 -0.93974773  0.32684342
  C  4.33574866  1.05830234 -1.04324474
  N -0.54967447  0.73385206  2.08672896
  O -1.13884983 -0.50202326  2.25102227
  C -2.20513565 -0.36377009  1.30765026
  C -3.19317605 -1.50465514  1.31932958
  C -2.74188986  1.01017344  1.77468254
  O -3.84067911  1.46699183  1.71703137
  O -1.66413429  1.63033028  2.28315704
  H -3.26440553  0.39043980 -1.05867243
  H -1.80862592  0.79544403 -1.96504475
  H -2.35772236  1.84169867 -0.66029341
  H -0.57548193 -2.02026138  0.02613140
  H -1.78459288 -1.76433272 -1.22892280
  H -0.16909391 -1.07467409 -1.40753455
  H -0.25216940  1.82768465  0.32005663
  H  1.26421722 -0.76977161  0.90358667
  H  1.91464553  1.83087874 -0.56447854
  H  3.59219224 -0.92674725  1.38620873
  H  3.29073983 -1.75798491 -0.13693538
  H  4.90151223 -1.12870963  0.21711735
  H  5.34736691  0.72078251 -1.19105998
  H  4.07073348  1.98925843 -1.51366844
  H -3.99102209 -1.29388287  2.02576318
  H -3.62500640 -1.63936170  0.33415237
  H -2.68852419 -2.41731845  1.61987275
