54
opt_min/./Product_2372_opt.xyz
  F -2.78943200  2.60231400 -0.25086900
  C -2.16916001  2.02097036 -1.27480914
  F -3.12027796  1.84135229 -2.21834478
  F -1.37638452  2.98077234 -1.78415119
  C -1.47617516  0.66905055 -1.03729529
  C -0.54866578  0.33728747  0.19576538
  C -0.50169800  1.27017131  1.41565885
  F -0.18960069  0.56938574  2.52558208
  F  0.38736662  2.26949512  1.39300058
  F -1.66595360  1.86713439  1.70163027
  C -1.20828422 -1.00021670  0.70210637
  C -2.54636646 -0.76431978  1.41223310
  C -3.45668845 -0.26628446  0.27271842
  C -2.56670032 -0.43735058 -0.96625533
  C -1.71876684 -1.64405875 -0.58385294
  C  0.89015946  0.04270608 -0.41731056
  C  1.90899905  1.18527209 -0.52596522
  C  1.56022177  2.47476531 -0.91171750
  C  2.51960277  3.44058196 -1.16026291
  C  3.86325947  3.13691050 -1.05743396
  C  4.23216335  1.84899027 -0.71594082
  C  3.27131156  0.88633661 -0.46817460
  C  1.53233576 -1.10975444  0.35228522
  C  2.10745609 -0.86702622  1.59746942
  C  2.67793328 -1.89563669  2.32394775
  C  2.69614338 -3.18287429  1.81465414
  C  2.14156237 -3.43067556  0.57220059
  C  1.56177427 -2.40385343 -0.15242373
  N  0.55022466 -0.38027299 -1.78335157
  C  1.62157087 -0.44578111 -2.75187883
  C -0.57452778  0.39675758 -2.25939223
  H -0.51570001 -1.58997619  1.29526057
  H -2.89015555 -1.72874364  1.78868055
  H -2.52249894 -0.08639093  2.25792489
  H -3.76779024  0.76099693  0.43263037
  H -4.35357256 -0.87571286  0.17621242
  H -3.12932072 -0.51759541 -1.89470167
  H -2.31712753 -2.53044383 -0.38717262
  H -0.94229884 -1.87283766 -1.30186256
  H  0.53153252  2.76491424 -0.99044964
  H  2.20265965  4.43356118 -1.44052936
  H  4.61119795  3.89150860 -1.24901830
  H  5.27623593  1.58048809 -0.64903105
  H  3.60005359 -0.11323100 -0.23108983
  H  2.12794292  0.13570444  1.99470906
  H  3.11402791 -1.68485801  3.28856668
  H  3.14441283 -3.98493156  2.38164358
  H  2.15661008 -4.43001284  0.16300361
  H  1.12388976 -2.61084344 -1.11446422
  H  2.05435865  0.53298929 -2.99592224
  H  1.21409611 -0.88205519 -3.66377851
  H  2.41299100 -1.09130829 -2.37765212
  H -0.25133170  1.32509666 -2.75139787
  H -1.11422943 -0.20481370 -3.00092306
