40
opt_min/./Product_1087_opt.xyz
  C -1.49567359  2.63626669 -2.07409259
  O -0.90761078  1.97691245 -0.95563829
  C -0.64902207  0.68382571 -1.08381071
  O -0.91621943  0.02243186 -2.05330062
  C -0.06724424  0.13419371  0.20018904
  C  0.19545444 -1.39352675  0.18810525
  C  0.34672106 -1.99086751 -1.21754794
  C -0.67261227 -3.01177634 -1.64882787
  O  1.32883942 -1.73695265 -1.86572171
  C -0.92262332 -1.87788611  1.16809324
  C -2.27263655 -1.60370235  0.53503940
  C -2.43968351 -0.29233097  0.62619235
  C -1.18206554  0.21166456  1.31125835
  O -0.84860374 -0.86565987  2.15235087
  N  1.44682543 -1.50512240  0.96260518
  C  2.28651346 -2.65640383  0.75133541
  O  2.20950533 -0.33044295  0.64439900
  C  1.31093485  0.74611409  0.61649371
  C  1.25677038  1.40425806  1.91740823
  N  1.29688883  1.90028485  2.94436572
  C  1.82333231  1.75293997 -0.44297669
  O  1.66140965  2.93981348 -0.37691967
  O  2.41626331  1.09823200 -1.41745145
  C  2.95174855  1.85708351 -2.49441536
  H -2.23425931  1.98879259 -2.54883149
  H -0.72511280  2.89547163 -2.80014698
  H -1.95552870  3.53922038 -1.68250832
  H -0.35968110 -3.44400601 -2.59485275
  H -0.75693683 -3.79481577 -0.89964471
  H -1.63852214 -2.53806242 -1.78287412
  H -0.75286949 -2.85822907  1.60319897
  H -2.92875748 -2.35164190  0.13840403
  H -3.24158443  0.33459959  0.29343710
  H -1.23923519  1.15594476  1.84534303
  H  3.06305904 -2.62616153  1.51328048
  H  2.75406849 -2.66810872 -0.23704979
  H  1.68093483 -3.54659327  0.89185557
  H  4.00972079  2.04780821 -2.31014867
  H  2.42476244  2.80750542 -2.59107799
  H  2.83189621  1.24982914 -3.38908614
