57
opt_min/./Product_2697_opt.xyz
  C -2.34874300  2.94559100  2.02622600
  N -1.75113908  2.22186531  0.92536802
  C -0.44855383  1.84570100  1.02154627
  O  0.30536955  2.35146423  1.81306655
  C -0.01488497  0.89837267 -0.12609350
  C  1.50597957  0.67979116 -0.38131839
 Br  2.72830206  1.33204615  1.03887051
  C  1.75191431  1.47087404 -1.67278542
  C  1.50039170  2.96551260 -1.42205259
  C -0.03409575  3.07800172 -1.40949972
  C -0.46499319  1.60248563 -1.44860310
  C  0.51788524  1.08765642 -2.49108992
  C  1.70876966 -0.86332440 -0.51779300
  C  2.36393141 -1.38557151 -1.81268147
  C  2.63281863 -1.43915430  0.58129706
  O  2.26918174 -2.09406221  1.51996089
  O  3.90795726 -1.20438757  0.28439802
  C  4.89251200 -1.61844532  1.22364631
  O  0.41710956 -1.44080492 -0.44960569
  C -0.56030980 -0.55235796  0.09473923
  C -0.77000507 -0.84039591  1.60957012
  N -0.36858983 -2.04629053  1.99943282
  C -0.45001686 -2.49029152  3.36679394
  O -1.34657240 -0.04910284  2.33671732
  C -1.87754094 -0.84677760 -0.60520134
  C -3.10066884 -0.58679986  0.00662042
  C -4.28824631 -0.83545541 -0.66137589
  C -4.27486203 -1.35927186 -1.94154264
  C -3.06481446 -1.65665996 -2.54308281
  C -1.87845410 -1.40601924 -1.87785313
  H -3.24664397  3.45027246  1.67377818
  H -1.62796206  3.67690590  2.38527525
  H -2.59740929  2.26849585  2.84736249
  H -2.38495342  1.63262204  0.40836104
  H  2.72758247  1.28438452 -2.11525809
  H  1.92723892  3.29505479 -0.47648900
  H  1.94682062  3.56122534 -2.21815328
  H -0.40446442  3.62789764 -0.55022140
  H -0.39975461  3.57663796 -2.30802299
  H -1.51971556  1.45141108 -1.66867743
  H  0.45485247  1.63411227 -3.43194645
  H  0.40984999  0.02929884 -2.68681191
  H  1.65560483 -1.43313689 -2.63383052
  H  3.21515443 -0.77743537 -2.09675921
  H  2.71516354 -2.40404499 -1.64206809
  H  4.42191609 -1.88581820  2.17026697
  H  5.42660861 -2.48040070  0.82008124
  H  5.57583028 -0.78264631  1.36139187
  H  0.18216668 -2.58490956  1.34643214
  H  0.51345165 -2.89345501  3.67403994
  H -0.70783638 -1.63278280  3.98806058
  H -1.22043582 -3.25713337  3.47634934
  H -3.13703847 -0.21772912  1.02005426
  H -5.22659993 -0.62625290 -0.16994235
  H -5.20204669 -1.54904289 -2.46168518
  H -3.04163440 -2.08738100 -3.53258725
  H -0.94223258 -1.66946903 -2.34296797
