28
opt_min/./Product_267_opt.xyz
  C -2.69773219 -0.80983471 -1.58638783
  C -1.62864875 -0.34601450 -0.67174421
  C -0.51229447  0.34195834 -0.90308951
 Cl  0.02552815  0.94991100 -2.39814050
  C  0.28011172  0.53546644  0.36896149
  C  1.55063733 -0.40170816  0.32537392
  N  2.42173365 -0.06007212 -0.62700356
  C  3.63126846 -0.81230233 -0.86401460
  O  1.64631341 -1.32487472  1.09234050
  C  0.77950820  1.95902083  0.60595239
  C  0.51328564  2.53060070  1.95965771
  O  1.40836873  2.52213541 -0.25746091
  O -0.58737016  0.08519135  1.38901764
  C -1.66204609 -0.64980581  0.82426236
  C -1.52917803 -2.09487789  1.03112237
  N -1.44314689 -3.22620983  1.14848259
  C -2.92202332 -0.21428240  1.42174999
  N -3.90834764  0.14786280  1.86696886
  H -2.48233775 -0.49052881 -2.60325481
  H -3.66180059 -0.40180362 -1.28042468
  H -2.76631574 -1.89775371 -1.55918837
  H  2.25168469  0.76654601 -1.18595182
  H  3.63894939 -1.19632860 -1.88569017
  H  3.65026595 -1.64543759 -0.16284539
  H  4.50987901 -0.18584301 -0.70765651
  H  0.34324458  3.60237040  1.87744357
  H -0.31945883  2.03925584  2.45169624
  H  1.40922872  2.38012176  2.56333336
