50
opt_min/./Product_2706_opt.xyz
  C -3.18787500 -0.32900100  0.06047100
  C -1.84197431  0.14584526  0.52768736
  O -1.69938288  0.72265960  1.57693195
  C -0.62944867 -0.24829990 -0.33140141
  C -0.46801907 -1.69051430  0.17643989
  C -0.28843274 -1.89522651  1.54403767
  C -0.15076983 -3.16741210  2.06628674
  C -0.19565881 -4.26734055  1.22893235
  C -0.38704982 -4.07791122 -0.12716677
  C -0.53275062 -2.80430308 -0.64965508
  C  0.56948351  0.56968700  0.10979414
  C  0.69788391  1.92286596  0.49174120
  N  1.83347213  1.99139497  1.25268826
  C  2.36961904  2.99295969  2.14358337
  N  2.45128812  0.82515573  1.31845640
  C  1.73212519 -0.04191457  0.62639799
  C  2.30458496 -1.37613219  0.32443416
  O  2.22726837 -1.89019720 -0.77680407
  N  2.97608354 -1.91759910  1.35934515
  C  3.68426149 -3.16708726  1.24609400
  C  0.03022722  3.10634685 -0.11722905
 Br  0.65136827  4.89640060  0.55159549
 Br -1.91401322  3.27177340  0.30161700
  C  0.27546949  3.22975290 -1.62843127
  C  0.25391720  1.94865805 -2.45968126
  C -1.07375767  1.18253440 -2.41103300
  C -0.87946918 -0.21869964 -1.84532274
  H -3.83939368 -0.44801274  0.92132056
  H -3.12819165 -1.25916745 -0.49301300
  H -3.61592475  0.44338922 -0.57814863
  H -0.24490242 -1.04741185  2.21281165
  H -0.00954890 -3.29482551  3.12940276
  H -0.08272180 -5.26316812  1.63077301
  H -0.41841306 -4.92721744 -0.79311676
  H -0.66546117 -2.70556764 -1.71365163
  H  3.00821362  2.44637034  2.83347244
  H  1.57641810  3.48779286  2.70202744
  H  2.95672994  3.74706613  1.61873475
  H  3.07777640 -1.37406893  2.20068420
  H  3.25725502 -3.71376118  0.40713675
  H  3.56393520 -3.74669302  2.15994411
  H  4.74888302 -3.00676306  1.05600028
  H -0.44649418  3.94480734 -2.03306656
  H  1.26828002  3.67220416 -1.76558448
  H  0.49129099  2.23720857 -3.48244393
  H  1.05246091  1.29268599 -2.11118733
  H -1.80248954  1.73754973 -1.82443949
  H -1.49869558  1.08940237 -3.41331794
  H -0.01162077 -0.67434870 -2.32866663
  H -1.74966026 -0.82645114 -2.09423137
