33
opt_min/./Product_3623_opt.xyz
  C  2.43058800  0.58102500  1.08261200
  C  1.67446664  0.77335526 -0.20302467
  C  2.34682248  1.65524547 -1.21137510
  C  0.47373610  0.26043183 -0.44617337
  C -0.31468512 -0.59528259  0.48913834
  C -1.82388070 -0.21366840  0.63566778
  C -2.25618478  1.09865268  0.04722514
  C -1.54057283  2.29211752  0.62236618
  C -3.23032127  1.21581920 -0.83812292
  N -2.53308576 -1.40465040  0.11758532
  O -1.73994678 -2.44049188  0.57415481
  C -0.50329989 -2.05222714 -0.03762484
  C  0.62082068 -3.03550733  0.15555979
  C -1.02515747 -1.84026904 -1.47741662
  O -0.49404298 -2.01000212 -2.53085581
  O -2.29882800 -1.45480296 -1.30385667
  H  2.03870141  1.24650393  1.85151721
  H  3.47772601  0.82796087  0.94102189
  H  2.36121930 -0.43933957  1.44696728
  H  2.39057701  2.67768073 -0.84138259
  H  3.36726476  1.32138720 -1.38713697
  H  1.81290495  1.64515256 -2.15572109
  H  0.00453959  0.45595697 -1.40072083
  H  0.16207661 -0.63249968  1.46816164
  H -2.08298400 -0.21354861  1.70001260
  H -0.84379545  2.00250522  1.40134257
  H -0.98364145  2.80655036 -0.15649835
  H -2.25896003  2.99123614  1.04259258
  H -3.52647411  2.18409376 -1.20205230
  H -3.76098984  0.36978763 -1.23313723
  H  1.56489381 -2.54299483 -0.05884534
  H  0.50228100 -3.87647917 -0.52075801
  H  0.61226004 -3.39129096  1.18024137
