54
opt_min/./Product_5851_opt.xyz
  C -1.77399438 -1.68349476  0.74958061
  O -2.00416637 -2.84841758  0.99382898
  C -0.52693645 -1.24348163  0.00483600
  O  0.57146484 -2.12699861  0.10509003
  C  0.43956839 -3.53325476 -0.04881918
  C  0.03534411  0.10287130  0.58907180
  O  0.31330780  0.10769158  1.95322906
  C  1.20734026 -0.83189149  2.54592248
  C -1.09551979  1.15562307  0.54805334
  O -0.96523731  2.27512627  0.12423495
  C -2.35992911  0.69139462  1.15488094
  C -3.25812439  1.78930333  1.62008974
  C -2.68409063 -0.61631934  1.21869470
  C -3.97890030 -1.10272417  1.78996247
  C  1.06557142  0.43108348 -0.52930990
  C  2.36059201 -0.42910526 -0.59257799
  N  2.59953349 -0.93121318 -1.81039952
  C  3.77765065 -1.70796030 -2.10559252
  O  3.13743775 -0.53073435  0.33446512
  C  1.61324955  1.84177314 -0.53001174
  C  1.86231724  2.51345718  0.65893466
  C  2.42559655  3.77598632  0.63182012
  C  2.74865565  4.37388081 -0.57439033
  C  2.51630488  3.69728535 -1.75859260
  C  1.95927644  2.43141464 -1.73832786
  O  0.27449600  0.20134212 -1.69829367
  C -0.72186272 -0.80045258 -1.48472969
  C -2.10823047 -0.25419097 -1.87629685
  C -0.46643607 -1.88332932 -2.42622086
  N -0.28756901 -2.66200603 -3.24434262
  H -0.09014976 -3.80353473 -0.96119677
  H  1.46943070 -3.88174168 -0.10158109
  H -0.05875040 -3.98484917  0.80962045
  H  2.18835419 -0.79974112  2.07782404
  H  1.26534297 -0.51042208  3.58394392
  H  0.80537050 -1.84418962  2.49583813
  H -3.78897857  2.20786038  0.76401590
  H -3.98050857  1.44225688  2.35090087
  H -2.66017239  2.59094431  2.04770598
  H -4.81945053 -0.53570425  1.39752575
  H -4.10878065 -2.15599591  1.55297169
  H -3.97115218 -1.00013253  2.87488354
  H  1.96585720 -0.74857007 -2.57389640
  H  4.44716668 -1.15757440 -2.77054060
  H  3.49570420 -2.64962078 -2.57767704
  H  4.29060567 -1.90443856 -1.16556459
  H  1.62560772  2.04882956  1.60249478
  H  2.60989434  4.29652512  1.56006111
  H  3.18393282  5.36230109 -0.59134692
  H  2.77332568  4.15315326 -2.70393791
  H  1.76876336  1.90534499 -2.66129619
  H -2.20552399  0.78256651 -1.57191777
  H -2.20435887 -0.29312509 -2.96003735
  H -2.90132122 -0.85523045 -1.43894999
