39
opt_min/./Product_558_opt.xyz
  C -2.65514203 -3.69158006  1.67460781
  O -1.61602983 -2.91854942  1.09290755
  C -1.98829763 -1.88185464  0.34183602
  O -3.13728363 -1.53628497  0.17562349
  C -0.83954839 -1.17836648 -0.24438732
  C  0.44338798 -1.58673412 -0.33202348
  C  0.98123376 -2.80136811  0.11445636
  N  1.45929829 -3.77736274  0.47904720
  C  1.28957055 -0.55829640 -1.03147946
  C  1.96026503 -1.16531735 -2.27028371
  C  2.39634826  0.05246497 -0.12491156
  O  3.42230915  0.49213099 -0.59900856
  N  2.11723502  0.07280208  1.18527960
  C  3.02898443  0.69481301  2.11903460
  N  0.30218913  0.44731811 -1.43002465
  C  0.72276660  1.81021272 -1.62263896
  C -0.96452230  0.21605547 -0.77414428
  C -1.26669709  1.07233931  0.48655619
  N -2.56788722  1.33595112  0.66124326
  C -3.06825364  2.04529115  1.81357669
  O -0.38394502  1.42529987  1.24419095
  H -2.17885750 -4.33355595  2.41109008
  H -3.14633059 -4.29835051  0.91108846
  H -3.39772908 -3.04254865  2.14328960
  H  2.56187485 -0.40392545 -2.75739465
  H  2.60546991 -1.98866667 -1.97403886
  H  1.19969423 -1.52629683 -2.95755306
  H  1.19483059 -0.16663156  1.50985628
  H  2.56888796  0.73032490  3.10115124
  H  3.95790879  0.12336127  2.16299743
  H  3.26797987  1.70774835  1.79017067
  H  0.85325210  2.36799589 -0.68670388
  H -0.02607710  2.31770489 -2.23299327
  H  1.67081384  1.81170556 -2.15531932
  H -1.78097735  0.33507156 -1.49897461
  H -3.24304215  0.88604646  0.06054841
  H -2.23414152  2.57398475  2.27226248
  H -3.50575290  1.35930002  2.54291686
  H -3.82624973  2.76509194  1.50500641
