47
opt_min/./Product_4315_opt.xyz
  C  0.16440300 -1.94081000 -1.81644000
  C -0.09693873 -1.84724086 -0.30971952
  C  0.85060136 -2.80885542  0.40414680
  C  0.07044338 -0.38032013  0.16971886
  C  1.37120963  0.24094562 -0.21664733
  C  1.51499116  1.42332798 -0.81202011
  C  2.76071671  2.07844576 -1.18279171
  C  4.09160385  1.46052340 -0.85310426
  C  2.71670932  3.24188114 -1.83472431
  C -1.19156351  0.27316721 -0.41679231
  C -1.70392596  1.50932794  0.28147352
  C -1.08256225  2.08360280  1.38321230
  C -1.61568880  3.21243201  1.98111706
  C -2.77825960  3.78180767  1.49111057
  C -3.40200538  3.22176490  0.39052235
  C -2.86497320  2.09872251 -0.21089328
  N -2.19922934 -0.79971561 -0.44562233
  C -1.60695275 -2.06375559  0.00802614
  C -1.87568835 -2.28413747  1.50811222
  C -2.21767302 -3.20975385 -0.81526835
  H  0.29834377 -2.97689991 -2.12179582
  H  1.07222958 -1.39253118 -2.06292127
  H -0.65908683 -1.52334386 -2.38619218
  H  0.44895689 -3.82101624  0.39486979
  H  1.81372080 -2.82330050 -0.10207867
  H  1.02576850 -2.51362006  1.43817554
  H -0.00209285 -0.39966251  1.26536814
  H  2.23580013 -0.35644634  0.04971999
  H  0.63051098  1.99411895 -1.05993234
  H  4.55116626  1.06449319 -1.76001175
  H  3.99306147  0.64515582 -0.14346889
  H  4.76510996  2.20603822 -0.43315759
  H  1.78616058  3.71465530 -2.09700768
  H  3.61601728  3.76165930 -2.12631621
  H -0.98800641  0.54353415 -1.46565760
  H -0.16434308  1.66790371  1.76891801
  H -1.11681485  3.65029626  2.83325701
  H -3.19193195  4.66247070  1.96041590
  H -4.30643415  3.66411117 -0.00278837
  H -3.34840886  1.66245406 -1.07354268
  H -3.00931837 -0.55742613  0.11546572
  H -1.08625037 -2.85083100  1.99127786
  H -2.80778569 -2.82556401  1.65440253
  H -1.96712588 -1.32775264  2.02376349
  H -2.52990121 -2.83095660 -1.78532084
  H -1.49788343 -4.01052822 -0.96731566
  H -3.09198701 -3.62503699 -0.31988992
