43
opt_min/./Product_5210_opt.xyz
  C  0.11283500 -1.67348800 -1.46037700
  C -1.19739231 -2.32714714 -1.77519071
  C -2.33912011 -1.76920208 -1.37679219
  N -2.39800974 -0.66100583 -0.56432699
  C -3.66467697 -0.08630182 -0.19644949
  C -1.28659158 -0.31899991  0.26625015
  C  0.06943247 -0.98709183 -0.08017762
  C  0.48532646 -2.05348713  0.93520713
  N -0.51610759 -2.84437265  1.37349243
  O  1.63556935 -2.21360728  1.27164942
  C  1.03737692  0.23868909  0.02153194
  C  2.50449385 -0.09844530  0.21415723
  O  2.92649624 -0.79832821 -0.83150425
  C  4.28574063 -1.21864541 -0.79302909
  O  3.19718615  0.30329973  1.10584508
  C  0.73553807  1.06508288 -1.25028292
  O  1.39336385  1.24457324 -2.22912148
  O -0.47646839  1.59932628 -1.03915564
  C -0.86681758  1.19392632  0.29105426
  C -1.89127481  2.12040770  0.92070153
  C -2.20845046  3.37350940  0.16148213
  O -2.37780067  1.83512648  1.98650197
  N  0.36768797  1.04695490  1.03582964
  C  1.02731086  2.27660829  1.43420862
  H  0.93785049 -2.38870884 -1.47870002
  H  0.32547194 -0.93378079 -2.23304895
  H -1.19606197 -3.20441773 -2.39552655
  H -3.29962945 -2.16737967 -1.66242926
  H -4.47273827 -0.66260058 -0.63876633
  H -3.73873398  0.94384658 -0.55475466
  H -3.78929048 -0.07452496  0.89105781
  H -1.53577029 -0.50512597  1.32433824
  H -1.43255028 -2.83166122  0.96336359
  H -0.26258145 -3.61707346  1.96671902
  H  4.53968600 -1.51530645 -1.80552871
  H  4.92617453 -0.40324233 -0.45458457
  H  4.38096890 -2.05959058 -0.10525400
  H -2.09290673  3.22999307 -0.90835316
  H -1.50507033  4.14167822  0.47900983
  H -3.21030471  3.71247003  0.41091571
  H  0.38300414  2.78347872  2.14911688
  H  1.24359412  2.94807581  0.59375003
  H  1.95766160  1.99990364  1.92204989
