44
opt_min/./Product_1301_opt.xyz
  C  4.00156100 -1.16785000 -1.31970200
  O  2.92849952 -0.63137051 -0.55191128
  C  1.73503302 -1.20636372 -0.73870918
  O  1.56000290 -2.17367290 -1.42116178
  C  0.67415489 -0.42158879  0.02025731
  C -0.67433364 -1.12055244  0.38410968
  C -0.90820256 -2.53427701 -0.12299414
  C -0.61703388 -1.02720855  1.93622562
  C  0.50497361 -1.95396674  2.36371194
  C  1.62369201 -1.31293591  2.06149978
  C  1.16894112 -0.00029492  1.44067046
  O -0.03681479  0.25278126  2.13429962
  C -1.68197847 -0.13171585 -0.29290769
  C -3.09308453 -0.66215737 -0.43244049
  C -3.91543613 -0.68402777  0.82652188
  O -3.52509431 -1.05137685 -1.48759203
  C -1.53861592  1.24047485  0.43091329
  O -2.30241197  1.79171265  1.15972860
  O -0.39057725  1.76506894 -0.02044333
  C  0.18539253  0.75244539 -0.88963627
  C  1.25595119  1.34768816 -1.79461315
  C  1.65559067  2.74885117 -1.45854111
  O  1.71753811  0.71090487 -2.70562282
  N -0.94329212  0.13380240 -1.53682572
  C -1.60391903  0.91714214 -2.56316646
  H  4.91829700 -0.81026070 -0.85840453
  H  3.91761325 -0.80972998 -2.34699813
  H  3.95674651 -2.25778472 -1.31252229
  H -0.06060677 -3.17542039  0.10150846
  H -1.79687120 -2.94615161  0.35222363
  H -1.04860281 -2.52525221 -1.20062811
  H -1.56311071 -1.11876884  2.45782223
  H  0.35830829 -2.92580442  2.79014341
  H  2.64632399 -1.61234417  2.16899340
  H  1.84344841  0.84781516  1.47726663
  H -3.49891354 -0.06595277  1.61238854
  H -4.91729980 -0.33171680  0.58535759
  H -4.01173811 -1.71566708  1.16317972
  H  0.86309103  3.41607199 -1.79977878
  H  2.57819569  3.00612006 -1.97292929
  H  1.74958523  2.87778610 -0.38460528
  H -2.46012032  0.35154936 -2.91988014
  H -1.94024508  1.89960961 -2.20481223
  H -0.90265051  1.04996807 -3.38509030
