36
opt_min/./Product_3722_opt.xyz
  C -2.27793400 -0.28214200 -1.54791900
  C -1.09386970 -0.42372999 -0.59952662
  C  0.18951886  0.29148044 -1.06121596
  C -0.03866887  1.62295201 -1.76791330
  C  0.90713068  0.47994312  0.29403961
  C  1.69154883 -0.78481867  0.69831335
  O  2.38879780 -1.26376963 -0.32552440
  C  3.26724872 -2.35648043 -0.07604570
  O  1.68583120 -1.24749733  1.80653413
  C  1.97653429  1.58433528  0.28326963
  C  1.72659659  2.73398578  1.21142313
  O  2.92680270  1.51681630 -0.45327969
  O -0.10791778  0.75795193  1.22152371
  C -1.32319428  0.08698457  0.85300153
  C -2.44657782  1.11720483  0.99617371
  C -1.58097589 -1.07853004  1.81249892
  H -2.61240835  0.74510302 -1.64381996
  H -1.99657426 -0.65086019 -2.53307757
  H -3.10998176 -0.88667663 -1.18956978
  H -0.87051089 -1.49587484 -0.53371855
  H  0.79192854 -0.35282561 -1.70483227
  H  0.91922705  2.07606206 -2.01465210
  H -0.58396941  1.46858573 -2.69576353
  H -0.59880221  2.31138042 -1.13816636
  H  3.07004768 -2.77233537  0.91407758
  H  3.09325642 -3.10627055 -0.84733754
  H  4.29564026 -1.99451712 -0.13119543
  H  2.67488238  3.19213079  1.48498752
  H  1.17669593  2.40623224  2.08759453
  H  1.12840260  3.47444587  0.68007542
  H -3.40246928  0.69672144  0.69291566
  H -2.51179193  1.42150779  2.03891780
  H -2.23425893  2.00206327  0.40285934
  H -1.65636098 -0.70008458  2.82927268
  H -2.50665669 -1.58562466  1.54944379
  H -0.75871710 -1.78911163  1.78245953
