48
opt_min/./Product_5192_opt.xyz
  C  1.40373100  1.54076700 -2.02423200
  C  0.62124502  0.93985683 -0.86578756
  C -0.70522821  0.24993631 -1.23125450
  C -0.59889983 -0.80571002 -2.33399924
  C -1.08123987 -0.38413977  0.13563483
  C -1.87861233  0.65073098  0.95989566
  N -1.35084144  0.96244922  2.14656575
  C -1.95241511  1.90729214  3.05464937
  O -2.92119550  1.12353875  0.53332191
  C -2.06563418 -1.57000130 -0.03067276
  O -1.90913725 -2.65700726  0.48160481
  N -3.14942789 -1.24851611 -0.75926851
  C -4.25801460 -2.16666285 -0.88516368
  N  0.19916656 -0.70850161  0.71455061
  C  0.45108428 -1.69600936  1.73572277
  C  1.32943421 -0.11762270  0.02030863
  C  2.14231099 -1.17520511 -0.77690388
  C  3.50944235 -0.79622469 -1.27289593
  O  1.69923644 -2.28219521 -0.93679309
  C  2.24044621  0.52812846  1.07531449
  O  3.37470225  0.21725735  1.31655708
  O  1.59725879  1.50386705  1.72418230
  C  2.31435383  2.15743578  2.76675390
  H  0.78026133  2.27953334 -2.52232581
  H  2.28848609  2.05228174 -1.66003461
  H  1.70436970  0.79542345 -2.75525502
  H  0.35840453  1.75777900 -0.18868721
  H -1.43538961  1.00545208 -1.52331375
  H -1.57152395 -0.98583025 -2.77934635
  H -0.22518667 -1.74410040 -1.93764367
  H  0.06906901 -0.48526862 -3.12687520
  H -0.45668763  0.56666602  2.38540869
  H -2.88228189  2.25093711  2.60605892
  H -2.16653204  1.43188779  4.01382353
  H -1.29432024  2.76278400  3.21543528
  H -3.30337590 -0.27432919 -0.97966931
  H -4.21202812 -2.88857095 -0.07139371
  H -5.19622400 -1.62195320 -0.84030923
  H -4.20045363 -2.71190275 -1.83063954
  H  1.14568364 -2.45913184  1.38083680
  H -0.47748112 -2.19145202  1.99243671
  H  0.87904745 -1.23997160  2.64175977
  H  4.23313403 -1.23762834 -0.59061089
  H  3.68291275  0.27012871 -1.29977691
  H  3.66778405 -1.23888208 -2.25149948
  H  2.96322354  2.92541834  2.34683065
  H  2.92726637  1.43908582  3.31240667
  H  1.57272563  2.60994516  3.41998771
