39
opt_min/./Product_5046_opt.xyz
  C -1.31011003 -1.10026604 -0.78919592
  O -1.52158069 -2.13913543 -1.37780421
  C -0.67301049 -1.14725874  0.61959051
  O -1.62786925 -1.31438199  1.61603753
  C -2.32380178 -2.54988665  1.61123492
  C  0.16850396  0.12004856  0.89946011
  O  0.55053150  0.06995462  2.23878540
  C  1.64210018  0.88783716  2.63411926
  C -0.60683152  1.40245239  0.55867596
  O -0.66300870  2.32808818  1.32380367
  C -1.32051009  1.37138076 -0.73300724
  C -1.67165049  2.71110491 -1.27924489
  C -1.65021535  0.21406222 -1.34761220
  C -2.37388559  0.18827476 -2.65752125
  N  1.26590224 -0.10443105 -0.01334426
  C  2.10209547  0.82886902 -0.53417367
  O  3.13458926  0.26658566 -1.16184394
  C  4.06560843  1.15029248 -1.77828965
  O  1.86725408  2.00965971 -0.44163890
  O  1.42961537 -1.49432336 -0.29213172
  C  0.49494773 -2.17989991  0.52257391
  C  1.04342149 -2.53872861  1.81850838
  N  1.51549129 -2.84679445  2.81169672
  H -1.64442157 -3.38741880  1.79371323
  H -2.85864150 -2.71278141  0.67121066
  H -3.03478794 -2.47208996  2.43048496
  H  1.65853371  0.81475571  3.71844968
  H  2.58411262  0.50819363  2.22454067
  H  1.49735546  1.92330575  2.32426238
  H -0.88272143  3.04368232 -1.95564675
  H -2.61091115  2.69314305 -1.82522048
  H -1.72268022  3.42487021 -0.45955431
  H -1.86178529  0.80625718 -3.39268124
  H -3.38797983  0.57086710 -2.54081847
  H -2.42816869 -0.83485148 -3.02197808
  H  5.04513518  0.96900431 -1.33627635
  H  4.09030907  0.92764137 -2.84542678
  H  3.76191058  2.18539604 -1.61547345
  H  0.20138305 -3.08064602 -0.02950820
