57
opt_min/./Product_2265_opt.xyz
  C  1.81989012 -2.32170861 -2.58608302
  O  1.02580889 -2.82717543 -1.53140286
  C  1.15137596 -2.19227745 -0.24977688
  C  0.33235082 -3.06783564  0.71021836
  C  0.51369305 -0.82326033 -0.38607531
  C  0.86619337  0.43665297 -0.11332393
  C  1.92212284  1.05504586  0.78478829
  C  1.88521875  2.50636581  0.65834485
  N  1.89660911  3.64833862  0.60981376
  C  1.41860131  0.82522511  2.13436747
  N  0.93865396  0.70320328  3.16495235
  C  3.39342542  0.62917050  0.56988919
  C  3.86071322 -0.45843948  1.53319156
  C  2.95329596 -1.68934310  1.55564635
  C  2.63676360 -2.21888639  0.15572858
  C -0.03160674  1.41807735 -0.82812843
  C  0.82666725  2.19303371 -1.85351793
  C  0.28888765  3.51678359 -2.30763495
  O  1.85894649  1.72525847 -2.26273976
  N -0.93597865  0.56881056 -1.57842320
  C -2.23871864  1.09912661 -1.88758206
  C -0.87521224 -0.77327983 -1.03775270
  C -1.87039021 -0.95862106  0.13815673
  O -1.80734363  0.10906583  0.94179247
  C -2.61823204  0.07167129  2.11061161
  O -2.60204567 -1.88660708  0.33393284
  C -1.10144379 -1.76138645 -2.19271015
  O -0.84286961 -1.46831441 -3.33041891
  O -1.68508249 -2.88651579 -1.81116397
  C -1.90789078 -3.87983763 -2.80267149
  H  1.82351573 -1.22858318 -2.60891611
  H  2.84579483 -2.70034059 -2.53302400
  H  1.35657838 -2.68307504 -3.50236172
  H -0.61144687 -3.33323926  0.24469854
  H  0.88036644 -3.98246276  0.91974628
  H  0.13682391 -2.54650113  1.64306923
  H  4.03178108  1.50785904  0.69856344
  H  3.48963033  0.31790913 -0.47038416
  H  4.87240256 -0.75202843  1.24449604
  H  3.91280864 -0.04659568  2.54419285
  H  3.45658722 -2.46366428  2.13634595
  H  2.03177129 -1.45060767  2.08396048
  H  2.93238501 -3.26761867  0.07800879
  H  3.21925118 -1.67268121 -0.58306210
  H -0.55190953  2.11123494 -0.14765008
  H  0.93875026  4.29229723 -1.90161397
  H -0.72411221  3.69250695 -1.96347647
  H  0.34230596  3.57798749 -3.39232369
  H -2.81792287  0.32449022 -2.38655774
  H -2.78925802  1.44570878 -1.00000179
  H -2.12513697  1.93125683 -2.58052426
  H -3.61700691 -0.29399827  1.86610702
  H -2.16510015 -0.58693075  2.85303033
  H -2.65533691  1.09008241  2.48830296
  H -1.18926240 -4.68589836 -2.64809647
  H -2.92261950 -4.25168855 -2.67031167
  H -1.78024292 -3.44994508 -3.79768943
