38
opt_min/./Product_775_opt.xyz
  C -3.92975375  1.32935674 -1.77721192
  N -3.18649335  0.27573144 -1.12427430
  C -2.11899167  0.53571644 -0.34331000
  O -1.72425740  1.64940040 -0.08700548
  C -1.43724509 -0.71942952  0.20065808
  C -0.30871461 -0.49297181  1.23966854
  C -0.04006404  0.84551354  1.70496260
  N  0.28222184  1.82827999  2.19280552
  C -0.85632144 -1.36173595  2.42876783
  C -2.04191927 -0.58346901  2.95988843
  C -3.00709269 -0.77361850  2.07139611
  C -2.39304935 -1.66708190  1.01193958
  O -1.46888818 -2.43966715  1.74759947
  C  0.96239497 -1.12741904  0.55633015
  C  2.04772746 -0.09685245  0.33646579
  C  2.00330877  0.76381659 -0.75078006
  C  2.97247325  1.74041067 -0.89737937
  C  3.97954371  1.86593576  0.04179319
  C  4.02550379  1.01273551  1.13124787
  C  3.06145821  0.03264166  1.27986199
  N  0.52947378 -1.70049264 -0.67891265
  C -0.70253326 -1.48468728 -0.87991449
  C -1.40528456 -1.97123518 -2.00516004
  N -2.03339631 -2.35205515 -2.88527993
  H -3.50416890  2.27823412 -1.45600096
  H -3.84794110  1.23986761 -2.86136629
  H -4.98060062  1.28437944 -1.49078537
  H -3.43937790 -0.67204006 -1.35504269
  H -0.10780001 -1.70022886  3.13985882
  H -2.01360620  0.02473249  3.84071817
  H -3.99879350 -0.37132036  2.02859202
  H -3.05055910 -2.29472295  0.41638568
  H  1.35518177 -1.94851328  1.16374264
  H  1.21296260  0.66582834 -1.48073887
  H  2.93277172  2.40961861 -1.74410507
  H  4.73208784  2.63203648 -0.07323598
  H  4.80932782  1.11546319  1.86667313
  H  3.08903790 -0.63297615  2.12984372
