42
opt_min/./Product_5291_opt.xyz
  C  0.60708300 -2.24265600 -2.05583800
  O  1.12802484 -3.31883337 -1.89669541
  C  0.42910749 -1.62972931 -3.38209683
  C -0.49828485 -0.69797399 -3.61581646
  C -1.40863369 -0.17339910 -2.58000061
  O -2.19767370  0.70608319 -2.82891538
  C -1.31707492 -0.80052887 -1.19846953
  C  0.04804922 -1.42986179 -0.89942229
  N  0.88242360 -0.26046741 -0.63881545
  C  2.04899885 -0.37511374  0.11236863
  C  2.61631331 -1.60960653  0.42328812
  C  3.79757497 -1.67374595  1.13882005
  C  4.43961156 -0.52089811  1.55676839
  C  3.89578039  0.70902346  1.22393568
  C  2.72026882  0.78516462  0.50271945
  N  0.02238233  0.87658587 -0.32538957
  C -1.30883615  0.31716717 -0.14281122
  C -2.44729136  1.34697311 -0.32591551
  N -2.01051440  2.56272807 -0.68949357
  C -2.92964800  3.60617068 -1.07880884
  O -3.59010971  1.06355342 -0.04790776
  C -1.46039645 -0.24245087  1.27635976
  O -0.77661682  0.17447204  2.17971744
  O -2.40406798 -1.15558574  1.36744616
  C -2.73287514 -1.65813423  2.65900289
  H  1.06397323 -2.00853472 -4.17092971
  H -0.62946402 -0.26802880 -4.59906315
  H -2.15444180 -1.48636012 -1.07211583
  H -0.02549619 -2.08801134 -0.01900898
  H  2.15763084 -2.53293221  0.10393819
  H  4.21409564 -2.64159676  1.37467828
  H  5.35688081 -0.57789172  2.12194219
  H  4.39176450  1.62092593  1.52196165
  H  2.33663417  1.75557423  0.22305090
  H  0.33159180  1.24880611  0.58340230
  H -1.05866444  2.62178272 -1.02230469
  H -3.88873379  3.39764125 -0.61143170
  H -3.06221894  3.62867616 -2.16176522
  H -2.55117457  4.56755626 -0.73428274
  H -2.51747699 -2.72670766  2.67402079
  H -3.79643977 -1.49061489  2.81526763
  H -2.14719807 -1.14470495  3.42215990
