56
opt_min/./Product_2216_opt.xyz
  C -2.53752144 -0.44352664 -0.75161664
  C -1.36936595 -0.11408483  0.19384052
  C -1.11918359  1.40102837  0.21521957
  C -0.39176715  1.97448054  1.25646527
  C -0.18022962  3.33985016  1.33468237
  C -0.69364300  4.17815080  0.36232240
  C -1.42313280  3.62686832 -0.67726476
  C -1.63614419  2.26028326 -0.74847204
  C -0.16626237 -0.83255091 -0.39368916
  C  0.21623855 -2.11495006 -0.36728506
  C -0.18820841 -3.34811631  0.41147169
  F  0.18334137 -4.44342194 -0.32916572
  F  0.65804666 -3.41158618  1.50300505
  C -1.61604921 -3.63629243  0.86357466
  C -2.05397947 -2.97367586  2.16215214
  C -2.69997503 -1.60788254  1.97562689
  C -1.69130742 -0.49586744  1.67061191
  C  1.43666998 -2.33580358 -1.24614074
  C  1.25450601 -3.32642573 -2.30315532
  N  1.18052332 -4.04346557 -3.18833265
  N  1.62477933 -1.07006785 -1.91738402
  C  2.95052455 -0.74192635 -2.38349303
  C  0.81393392 -0.03292825 -1.26986011
  C  0.11912123  0.57707014 -2.39320236
  N -0.38614067  0.93358595 -3.35443888
  C  1.65296722  0.94757035 -0.47836507
  C  1.84460992  2.25204378 -0.91834794
  C  2.67334835  3.10523213 -0.21513967
  C  3.31755161  2.66068110  0.92767210
  C  3.13806976  1.36176531  1.36235491
  C  2.31107396  0.49978743  0.66142813
  H -2.27824342 -0.19678280 -1.77963809
  H -3.42120686  0.12089709 -0.46160405
  H -2.76435235 -1.50517683 -0.73205711
  H  0.04569301  1.35202421  2.02307651
  H  0.38759497  3.74453122  2.16076342
  H -0.53072574  5.24473683  0.41496854
  H -1.83998714  4.26213720 -1.44453896
  H -2.22225254  1.88916620 -1.57241967
  H -1.63021263 -4.72326065  1.00424558
  H -2.29627212 -3.40216472  0.04423764
  H -1.19139671 -2.88580173  2.82699204
  H -2.77811516 -3.62622949  2.65721501
  H -3.47734654 -1.65664797  1.21917214
  H -3.19423107 -1.35443127  2.91440307
  H -0.76123646 -0.73432973  2.18626256
  H -2.10149766  0.40700958  2.12592729
  H  2.29756874 -2.65353297 -0.63215012
  H  3.59655085 -0.30390324 -1.61319061
  H  2.86033786 -0.03511243 -3.21316618
  H  3.41517725 -1.65327748 -2.75939570
  H  1.33210082  2.59471978 -1.80419303
  H  2.81385890  4.11928787 -0.55791639
  H  3.96272791  3.32966319  1.47924137
  H  3.64252369  1.01297354  2.25279798
  H  2.17366289 -0.51396937  1.00702801
