53
opt_min/./Product_2288_opt.xyz
  C  1.68825583  1.69438111 -1.01763911
  C  1.05421598  0.31770460 -0.81245090
  C -0.51176043  0.17850190 -0.66129511
  C -1.31948377  1.44397715 -0.55087342
  C -2.51135646  1.58731610 -1.24996609
  C -3.25958188  2.74742347 -1.14262757
  C -2.83394608  3.78182255 -0.33112102
  C -1.66337014  3.63925762  0.39163222
  C -0.91668540  2.48032032  0.29054099
  C -0.81647372 -0.65487233 -1.95807246
  C -0.52988782  0.24623092 -3.14214586
  C  0.78965515  0.27934425 -3.23974116
  C  1.27896646 -0.57576006 -2.08449106
  O  0.27232035 -1.55516108 -1.99299038
  C -0.68230525 -0.77948813  0.57030577
  C -1.79197360 -1.81651008  0.35146164
  O -1.32960233 -3.04244922  0.53052255
  C -2.23544881 -4.12610081  0.35655729
  O -2.93705717 -1.53403950  0.11833924
  C -1.14534080 -0.13341603  1.89227792
  O -1.93510292  0.75503481  2.03076578
  O -0.58792151 -0.79571573  2.91729366
  C -0.92559935 -0.33659374  4.22091123
  N  0.60155189 -1.43224003  0.67689582
  C  1.59667250 -0.41368258  0.44803017
  C  1.71219276  0.49920580  1.57698004
  N  1.78945659  1.18251385  2.49182992
  C  2.99777519 -0.99131850  0.19873021
  O  3.96757707 -0.31142620 -0.00651704
  O  2.97766246 -2.31218437  0.25202294
  C  4.19388902 -3.00793118 -0.00040031
  H  0.93425615  2.45857137 -1.18569065
  H  2.28886432  1.97985883 -0.15619616
  H  2.35146448  1.67338890 -1.87836948
  H -2.88369149  0.78305479 -1.86208251
  H -4.18569644  2.83440806 -1.69177375
  H -3.41937606  4.68535378 -0.24692115
  H -1.33094413  4.42772290  1.05033949
  H -0.02639504  2.38126464  0.89183174
  H -1.76374666 -1.18153813 -1.97458734
  H -1.27108888  0.73685511 -3.73937914
  H  1.41796149  0.79843298 -3.93480456
  H  2.26654054 -1.01671701 -2.17996679
  H -1.84850827 -4.75764585 -0.44335098
  H -3.22747164 -3.74958578  0.10095086
  H -2.27692933 -4.68961052  1.28947374
  H -0.12606815 -0.66679606  4.87973034
  H -1.87924167 -0.76954736  4.52827198
  H -1.00341699  0.75142352  4.22248428
  H  0.71724860 -1.93961954  1.54624687
  H  4.46544032 -3.56083670  0.89960669
  H  4.01459120 -3.70186137 -0.82139421
  H  4.98483804 -2.30229138 -0.26025980
