27
opt_min/./Product_3368_opt.xyz
  C -1.12674100 -0.90233400 -1.60441300
  C -1.04653117 -0.76438446 -0.08756715
  C -2.03770028 -1.74071258  0.56737098
  C -1.32281032  0.66260090  0.46941804
  C -0.87992528  1.77122667 -0.46559230
  O  0.01450745  2.53712271 -0.26239137
  N -0.55750932  0.74880764  1.71518686
  O  0.19833956 -0.48223587  1.85151733
  C  0.34903319 -0.99617203  0.55041186
  C  1.50491415 -0.33394200 -0.21946271
  N  2.09836929  0.67898253  0.41545311
  C  3.14477934  1.44766653 -0.21328230
  O  1.84874882 -0.74817855 -1.31339884
  H -1.91442601 -0.27416944 -2.01256805
  H -1.35462076 -1.93350997 -1.86083723
  H -0.18527408 -0.64075550 -2.07821973
  H -1.80980969 -2.75955989  0.26160069
  H -1.97997520 -1.69313799  1.65367590
  H -3.05664083 -1.51011245  0.26067858
  H -2.39992004  0.79616740  0.63087148
  H -1.49319938  1.82941599 -1.38450937
  H -1.14879167  0.77638442  2.54244728
  H  0.57892540 -2.06050188  0.64751509
  H  1.67238831  1.04052752  1.25586617
  H  4.00166452  0.80280326 -0.41896034
  H  3.44182017  2.25644262  0.44695580
  H  2.79544151  1.86239579 -1.16166354
