24
opt_min/./Product_3449_opt.xyz
  C -2.80708100 -1.09604400  0.43170200
  O -3.35383427 -2.10821951  0.79212678
  C -3.52383373  0.18054859  0.28739521
  C -2.90526071  1.35601866  0.13803002
  C -1.44080260  1.48873246 -0.01049383
  O -0.93340257  2.45591135 -0.51706702
  C -0.61432145  0.29269691  0.47172161
  C -1.31279433 -1.05509833  0.16414989
  N -0.97208549 -1.23625539 -1.24398077
  O  0.35849874 -0.84123158 -1.33238129
  N  0.58434911  0.19313426 -0.32269952
  C  1.84539726  0.26987497  0.25423343
  N  2.83573431 -0.17216249 -0.54046842
  C  4.21787711 -0.12348044 -0.13584817
  O  1.98315163  0.76957868  1.35105654
  H -4.60039242  0.11439682  0.36685506
  H -3.46017269  2.28148912  0.06201758
  H -0.34897192  0.42748333  1.52685813
  H -0.84156969 -1.87946744  0.71674134
  H -1.53867533 -0.61535466 -1.83154173
  H  2.60147995 -0.59012004 -1.42604463
  H  4.26824529  0.45734342  0.78379145
  H  4.82000381  0.36159560 -0.90504674
  H  4.60573867 -1.12781878  0.05154586
