33
opt_min/./Product_761_opt.xyz
  C  2.51390202 -1.00579994 -1.57311501
  O  1.23361276 -0.42076413 -1.62219296
  C  0.62800913 -0.08952420 -0.40599834
  C -0.85699749  0.31670133 -0.65227465
 Br -1.34307527  0.33011004 -2.53404616
  C -0.91574232  1.74932746 -0.09300053
  C -0.80621820  1.75410508  1.44037373
  C  0.66210085  1.35114329  1.69150689
  C  1.21997989  1.16262753  0.27398357
  C  0.47384706  2.25944981 -0.49777565
  C -1.61407628 -0.82633243  0.07400531
  C -3.08240534 -0.64848299  0.37602183
  O -0.77663122 -1.07811186  1.21056284
  C  0.38802778 -1.36622278  0.49668366
  C  1.49782724 -1.77726417  1.32996994
  N  2.38315222 -2.07868885  1.98458611
  O -0.00160451 -2.39675492 -0.41964059
  C -1.27164266 -2.09435750 -0.75088395
  O -1.94639212 -2.69724195 -1.51822737
  H  2.80109677 -1.15535919 -2.60903555
  H  3.24581448 -0.35610645 -1.08576615
  H  2.49681966 -1.97380848 -1.06495699
  H -1.75617134  2.32606279 -0.47479357
  H -1.00828100  2.75826443  1.80417988
  H -1.51331353  1.08235416  1.92011831
  H  0.76327229  0.46450788  2.31470477
  H  1.21107081  2.15512260  2.17499071
  H  2.30619714  1.20906032  0.22676108
  H  0.64733718  2.20767701 -1.56968082
  H  0.68191770  3.25333749 -0.11717161
  H -3.33702542 -1.18462576  1.28417314
  H -3.34400933  0.39863827  0.49061084
  H -3.65837070 -1.06386420 -0.44636972
