31
opt_min/./Product_3546_opt.xyz
  C -1.30707190  0.81452908  1.35364072
  C -1.05740621  0.15786889 -0.02115974
  C -2.40488397 -0.34256637 -0.55814436
  C  0.13992886 -0.85954393 -0.00746442
  C  0.44807425 -1.39268186  1.39098429
  C -0.07931775 -2.08083303 -0.90326727
  C  1.32003658  0.00877638 -0.62344961
  C  2.55393102  0.28757042  0.27415731
  C  3.05717985  1.69617827  0.19110224
  O  3.07610574 -0.58047602  0.91493810
  C  1.93501184 -0.58970542 -1.79962021
  N  2.41002526 -0.97980600 -2.76300719
  N  0.75102227  1.24219586 -1.10263562
  C -0.48974316  1.28670433 -0.85134100
  C -1.29534422  2.38846947 -1.23035838
  N -1.99258221  3.24267441 -1.53741632
  H -2.07807580  1.57931442  1.25048233
  H -1.65248243  0.08057865  2.07473287
  H -0.40721129  1.29093260  1.74573299
  H -3.11798397 -0.44071298  0.25969624
  H -2.32583776 -1.30307192 -1.05551217
  H -2.80899397  0.37211690 -1.27469742
  H -0.43009992 -1.90721111  1.78053962
  H  0.73038400 -0.61205164  2.09339986
  H  1.26468340 -2.10925012  1.34275466
  H -0.83761607 -2.73629705 -0.47175757
  H -0.37090454 -1.80163470 -1.91471699
  H  0.84688343 -2.64956195 -0.96800219
  H  3.98599004  1.79682809  0.74739373
  H  2.31102276  2.37839856  0.59987003
  H  3.21349310  1.97107701 -0.84861970
