56
opt_min/./Product_5865_opt.xyz
  C -1.23504900 -2.02972300  0.98080200
  C -0.69258705 -3.19846479  0.21821063
  C -0.00468161 -3.02178059 -0.90390095
  N  0.25607156 -1.78805770 -1.45987739
  C  0.92291097 -1.74430004 -2.73511454
  C -0.16947745 -0.60340978 -0.80301505
  C -1.44906188 -0.83343274  0.03895563
  C -2.67578153 -1.11661531 -0.83696488
  N -2.89164658 -0.26354804 -1.85838219
  O -3.42973599 -2.03799409 -0.62306135
  C -1.52592548  0.47474412  0.87071454
  C -2.29588834  1.60486309  0.14669539
  N -1.50476847  2.35111439 -0.65214850
  C -2.02777531  3.53336769 -1.30325201
  O -3.49137140  1.78125036  0.23744369
  C -2.18330383  0.25423070  2.24574522
  C -3.62082889 -0.14192632  2.26823882
  O -1.52956902  0.43768139  3.24489156
  N -0.13580057  0.88269079  1.05289772
  C  0.78310248  0.10646029  0.23614532
  C  1.64103604 -0.89915664  1.00771583
  O  2.23519366 -1.81533778  0.50519075
  O  1.71435662 -0.56924249  2.29982564
  C  2.50965944 -1.38333553  3.15021156
  C  1.80804581  1.03438689 -0.40479793
  C  2.78191067  0.53252167 -1.26040841
  C  3.69805448  1.37813863 -1.85968769
  C  3.66459207  2.73875034 -1.60536125
  C  2.72673274  3.24095394 -0.72027345
  C  1.81108797  2.39643707 -0.11708264
  H -0.54600985 -1.75196463  1.78590146
  H -2.18373473 -2.30355805  1.44207739
  H -0.89136058 -4.18589410  0.59349704
  H  0.38219320 -3.85149549 -1.47359077
  H  1.95957103 -2.08614850 -2.65869026
  H  0.91849687 -0.72785713 -3.12577568
  H  0.40527751 -2.39272227 -3.44900220
  H -0.36142478  0.15176000 -1.57839216
  H -3.70113975 -0.42346041 -2.43380840
  H -2.28241615  0.49839168 -2.09139030
  H -0.50506388  2.28660070 -0.52080489
  H -2.38215154  4.26223144 -0.57074305
  H -1.24660056  3.98080846 -1.91153351
  H -2.87431613  3.25473121 -1.93103198
  H -3.81871247 -0.74193246  3.15438172
  H -4.20841035  0.77309179  2.33919365
  H -3.92642489 -0.66435441  1.36915071
  H  0.09750828  0.84367005  2.04435992
  H  3.16931917 -0.72454372  3.71289438
  H  3.08815432 -2.08947828  2.55225214
  H  1.85207233 -1.92282445  3.83257176
  H  2.84208096 -0.52831840 -1.43260314
  H  4.44603232  0.96906891 -2.52253738
  H  4.37579944  3.39925556 -2.07834821
  H  2.71041838  4.29540961 -0.48738451
  H  1.11458372  2.79112539  0.60773924
