42
opt_min/./Product_2311_opt.xyz
  N -1.43912803  2.24315148 -2.11753037
  C -0.70407716  1.45242907 -1.75253442
  C  0.36023476  0.54591525 -1.31218199
  C  0.59931828 -0.36363454 -2.42317103
  N  0.75559996 -1.11757822 -3.26600730
  C -0.08880529 -0.30218780 -0.14272663
  C  0.57160661 -1.02010869  0.77023364
  C  2.04860123 -1.21473186  0.96806055
  F  2.57666010 -1.79655959 -0.14360657
 Br  2.41140217 -2.56640532  2.41121772
  C  2.76127237  0.09687850  1.34096247
  C  3.62730745  0.67724355  0.21979071
  C  2.93850638  0.82251479 -1.13550837
  C  1.56508699  1.49710927 -1.06335266
  C -0.44480216 -1.62541475  1.73361965
  C -0.24255076 -1.08586485  3.08079729
  N -0.12650672 -0.60651659  4.10904307
  C -0.43001550 -3.09162903  1.75533080
  N -0.54735200 -4.22506466  1.69995589
  O -1.72319494 -1.23913953  1.24495638
  C -1.57719177 -0.38202511  0.12747376
  C -2.04611299  1.02938917  0.57526832
  O -3.33878380  1.17038183  0.47883003
  C -3.89757480  2.42635519  0.85728934
  O -1.25843639  1.82605816  1.02249201
  C -2.35960418 -0.95493379 -1.09037579
  C -2.26128817 -2.44015825 -1.24695867
  O -2.93596127 -0.23170563 -1.85038144
  H  2.00066859  0.81144069  1.66246509
  H  3.41463285 -0.07479332  2.19691721
  H  4.51318960  0.05416554  0.08480906
  H  3.97330877  1.65336391  0.56775069
  H  3.59534230  1.42163307 -1.76868752
  H  2.85048878 -0.14914830 -1.62129170
  H  1.41144296  1.97802347 -0.09606927
  H  1.50348480  2.27411088 -1.82497998
  H -3.16756362  3.22178039  0.70447863
  H -4.19273278  2.39183436  1.90694649
  H -4.76779493  2.57335286  0.22249056
  H -3.07283603 -2.78839981 -1.87958184
  H -2.28451662 -2.95224583 -0.28907563
  H -1.31935836 -2.67312844 -1.74713502
