37
opt_min/./Product_4055_opt.xyz
  C -1.95444200  1.38828700  0.67126300
  C -1.44179735  0.06512441  1.23079783
  C  0.08085422  0.03023657  1.43147730
  C  0.68681751  1.23326470  2.13372966
  C  0.59772766 -0.26905985 -0.00848456
  C  1.86347230 -1.14119935  0.10849306
  O  1.67167642 -2.34034392 -0.42304345
  C  2.77045471 -3.24198620 -0.36280903
  O  2.88287716 -0.77876561  0.63109118
  C  1.02589776  0.92273802 -0.86899034
  O  0.57776016  1.10149581 -1.97483741
  O  1.96106338  1.67521203 -0.31513961
  C  2.47480065  2.73663439 -1.11166829
  N -0.47120314 -0.97975780 -0.67722048
  C -1.61206075 -1.08855377  0.21374803
  C -3.01251586 -1.12950163 -0.38172369
  C -3.19743408 -1.10953441 -1.87852307
  O -3.96287676 -1.20231646  0.35989304
  H -1.44441716  1.64875400 -0.25465103
  H -3.02036404  1.31138724  0.47088500
  H -1.80501495  2.18908029  1.39090828
  H -1.97116955 -0.15427632  2.15925313
  H  0.31849047 -0.85443843  2.03332489
  H  0.26336928  1.30825808  3.13355437
  H  1.76267143  1.09854389  2.21542314
  H  0.49646387  2.16036283  1.60351080
  H  2.37014460 -4.22112766 -0.61373989
  H  3.20751697 -3.24473913  0.63740633
  H  3.53833515 -2.94916456 -1.08190832
  H  2.99408571  2.33674493 -1.98462807
  H  1.66445949  3.38439001 -1.45285092
  H  3.16526294  3.28469647 -0.47513494
  H -0.69039211 -0.53070103 -1.56222704
  H -1.51293418 -2.04015500  0.76053307
  H -3.85750199 -0.28109030 -2.13380050
  H -3.70863286 -2.02767222 -2.16609795
  H -2.27522552 -1.02984740 -2.43940605
