55
opt_min/./Product_1979_opt.xyz
  N -2.19004993  1.65184223  2.71746194
  C -1.77575302  1.54902895  1.65547759
  C -1.25857406  1.45588839  0.30970155
  C -0.82257465  0.00996260 -0.11371247
  C -0.65621691 -0.93831335  1.05467057
  C -1.20868448 -2.21835916  1.04398878
  C -1.03472380 -3.07513883  2.11611284
  C -0.31158987 -2.67719229  3.22474342
  C  0.23137813 -1.40587450  3.25514806
  C  0.05609291 -0.54938778  2.18494024
  C -1.95147019 -0.34883237 -1.10747764
  C -3.29233858 -0.39311873 -0.34249651
  C -3.67674091  1.09362098 -0.18883572
  C -2.40587073  1.79927704 -0.68028712
  C -2.13518664  0.94111772 -1.91046377
  C  0.51518684  0.29875566 -0.88015481
  C  1.51325798 -0.78584541 -1.20737938
  C  1.33239738 -2.14005310 -0.97323941
  C  2.28830534 -3.05807926 -1.38040870
  C  3.42982812 -2.64600649 -2.04038432
  C  3.59869401 -1.29957630 -2.31915799
  C  2.64563689 -0.38520690 -1.91836562
  N  1.13260640  1.45829618 -0.24591091
  C  2.31672504  1.24037771  0.56887017
  C  0.06940740  2.31948765  0.24364269
  C -0.11899754  3.48197830 -0.77715713
  C -0.70518704  4.77056258 -0.26704543
  O  0.20551109  3.31912282 -1.92148213
  C  0.36512945  2.88395702  1.54713361
  N  0.62197358  3.36351602  2.55433619
  H -1.77305303 -2.57208556  0.19342633
  H -1.47284138 -4.06211584  2.08110278
  H -0.17570828 -3.34713308  4.06006254
  H  0.78955670 -1.07121073  4.11619033
  H  0.46922661  0.44307810  2.25525604
  H -1.71477024 -1.23631683 -1.69218331
  H -4.04874174 -0.95245897 -0.89182301
  H -3.18332134 -0.85497295  0.63793060
  H -3.96627936  1.34809577  0.82865102
  H -4.50450538  1.35947590 -0.84831482
  H -2.53588153  2.86515048 -0.85374614
  H -1.32092289  1.26396109 -2.55098436
  H -3.02895817  0.88124566 -2.53598280
  H  0.21716105  0.67147411 -1.86829791
  H  0.45355514 -2.50218960 -0.47045662
  H  2.12673135 -4.10680460 -1.17775444
  H  4.17467064 -3.36342051 -2.35150546
  H  4.47328737 -0.96517643 -2.85768007
  H  2.76537230  0.65843431 -2.16682331
  H  2.32457622  1.87235991  1.45483665
  H  2.40640815  0.19832191  0.88206470
  H  3.20165180  1.49544185 -0.02214129
  H -0.08816728  5.59464047 -0.62353043
  H -1.69854015  4.91307375 -0.69549468
  H -0.77793470  4.80364539  0.81575983
