50
opt_min/./Product_5715_opt.xyz
  C  0.89100900 -1.43143900  0.28907100
  O  0.60966077 -2.38775960  0.97856009
  C  2.27582060 -0.92839188  0.25030443
  O  3.12493491 -1.83556804  0.77711730
  C  4.46256810 -1.50012826  1.08679959
  C  2.55652825  0.33471588 -0.19494106
  O  3.81150651  0.84155325 -0.12679267
  C  3.98676195  2.25093332 -0.21725961
  C  1.50173821  1.09320268 -0.89825062
  O  1.77230593  1.86016575 -1.79628836
  C  0.07217739  0.80501909 -0.49019598
  C -0.84580874  1.62143570 -1.40109998
  C -0.19695100 -0.71062035 -0.51448749
  C -0.22451894 -1.36955981 -1.88535757
  C -1.45095750 -0.80520604  0.39167536
  C -1.65321090 -2.25126313  0.93741757
  C -1.80787719 -2.33746465  2.42259483
  O -1.88319970 -3.15006893  0.16787402
  C -2.83581410 -0.43766795 -0.17058472
  C -3.37199193 -1.19010764 -1.34556929
  O -3.49640357  0.38176287  0.42832989
  O -1.14690967  0.10637893  1.44140422
  C -0.19374971  1.06736310  1.01678447
  C -0.62823647  2.51611305  1.29662354
  N -1.93452047  2.66712103  1.50218924
  C -2.53606294  3.94026078  1.80551703
  O  0.20819709  3.40164221  1.32133615
  H  4.88023810 -2.39943434  1.53688267
  H  4.50653019 -0.67827371  1.80625279
  H  5.02950924 -1.23421962  0.19398445
  H  4.97245502  2.44103123  0.20473363
  H  3.22340388  2.78327800  0.35490922
  H  3.95538654  2.58667761 -1.25461233
  H -1.89393648  1.46410913 -1.17004408
  H -0.61524171  2.67660789 -1.27531892
  H -0.65770939  1.36817067 -2.44209788
  H -0.89829402 -0.86115312 -2.56659184
  H -0.53342427 -2.40722104 -1.77918088
  H  0.77643865 -1.34410600 -2.31287299
  H -2.77184069 -1.89736540  2.67841604
  H -1.78475815 -3.37974557  2.72627547
  H -1.03434267 -1.77123496  2.92900637
  H -3.02277165 -2.21862298 -1.34002481
  H -4.45907208 -1.15733696 -1.31098471
  H -3.05208501 -0.70791910 -2.26657252
  H  0.73097217  0.90961583  1.59504204
  H -2.52962219  1.84444734  1.45542143
  H -3.44424935  4.06643582  1.21746803
  H -1.81950967  4.72310707  1.55850088
  H -2.78494028  4.01055150  2.86736512
