36
opt_min/./Product_721_opt.xyz
  C -1.92424546 -1.21630644 -0.94606696
  C -1.02637748 -0.51554683  0.05984648
  C  0.45104916 -1.00672570  0.14856047
  C  0.82897207 -2.06233278 -0.74142672
  N  1.09967687 -2.90537320 -1.46455610
  C  0.54189061 -1.42944484  1.67179768
  C -0.27564796 -2.69668573  1.76538914
  C -1.53617718 -2.29756647  1.68061845
  C -1.47075852 -0.78998032  1.54034796
  O -0.29570162 -0.46391722  2.26699350
  C  1.24299206  0.25912578 -0.07124173
  C  2.73178575  0.22738421 -0.00182639
  O  3.28038816  1.34135775 -0.44754037
  C  4.70130152  1.39626605 -0.41779176
  O  3.33660673 -0.72822704  0.42068651
  N  0.56602550  1.31043571 -0.23870943
  C -0.84284329  1.01767922 -0.24042896
  C -1.36833443  1.42279848 -1.53490572
  N -1.75170328  1.79280584 -2.54433672
  C -1.59250514  1.96974318  0.72240832
  O -2.73059489  1.78779210  1.06278027
  O -0.83713256  2.98820878  1.06057691
  C -1.42027288  3.96157796  1.92167278
  H -1.85872842 -2.29565278 -0.82420554
  H -1.64159042 -0.97374717 -1.96913064
  H -2.95455470 -0.90284321 -0.78608096
  H  1.54827963 -1.43175732  2.07570647
  H  0.14032327 -3.68131114  1.83564335
  H -2.44605612 -2.86244895  1.67316397
  H -2.33150217 -0.22969988  1.88764582
  H  5.12577327  0.50120649 -0.87701804
  H  5.05444220  1.46280366  0.61334143
  H  4.98154253  2.28629437 -0.97463342
  H -2.06329022  4.62680448  1.34262182
  H -2.01108549  3.47610680  2.69991650
  H -0.59213609  4.51790811  2.35360502
