61
opt_min/./Product_3068_opt.xyz
  F  1.67798000  2.09847000 -2.24046500
  C  1.18237361  0.85670114 -2.18809135
  F  1.95535308  0.14661081 -3.02097847
  F -0.01460897  0.95573871 -2.79147811
  C  1.09048273  0.15430966 -0.81092564
  C  2.43200258  0.12955804 -0.08476901
  C  3.50212440  0.95856291 -0.39603173
  C  4.70086329  0.84978895  0.28959805
  C  4.85776821 -0.08126166  1.29794365
  C  3.79933534 -0.91386226  1.61385229
  C  2.60523872 -0.81424512  0.92679475
  C -0.15029170  0.68143704  0.03393592
  C -0.53152837  2.11459375 -0.36236981
  C -1.80690839  2.50666958 -0.74856329
  C -2.08383152  3.82985118 -1.04829477
  C -1.09985501  4.79549579 -0.95408456
  C  0.16568111  4.42245955 -0.54177586
  C  0.44599333  3.10167846 -0.24237787
  C  0.17245473  0.84875296  1.55274347
  F  1.31666215  1.49578574  1.81552842
  F  0.24811266 -0.28432597  2.25934949
  F -0.77082160  1.58776075  2.15458927
  C -1.21019094 -0.49863339 -0.09157440
  C -2.27888294 -0.42014139 -1.24105517
  O -3.43819023 -0.15318302 -1.07099991
  O -1.76921985 -0.83126901 -2.38701997
  C -2.63288317 -0.92103896 -3.51508017
  C -2.04533529 -0.81271600  1.14693018
  C -1.94820354 -2.06708761  1.73696787
  C -2.74699670 -2.39306629  2.81704254
  C -3.65456770 -1.47551477  3.31670962
  C -3.76154751 -0.23083957  2.72423650
  C -2.96573117  0.10275816  1.64245281
  O -0.43515155 -1.64570756 -0.39046176
  C  0.67644270 -1.31219585 -1.15883266
  C  1.77666485 -2.37494369 -1.04967268
  O  1.33948829 -3.44653537 -0.40657965
  C  2.23557486 -4.55065577 -0.33587568
  O  2.84827084 -2.27850400 -1.58241298
  H  3.44110321  1.70016175 -1.17167587
  H  5.51866315  1.50231440  0.02407073
  H  5.79532779 -0.16070248  1.82661372
  H  3.89898092 -1.64956995  2.39768263
  H  1.80534438 -1.48545300  1.20077523
  H -2.61028001  1.79982819 -0.81162047
  H -3.08412936  4.09997456 -1.35091596
  H -1.31986737  5.82544886 -1.18893522
  H  0.94913135  5.15846046 -0.44843896
  H  1.44831866  2.86515838  0.07720725
  H -2.66474723 -1.96149844 -3.83882689
  H -3.63426659 -0.57903052 -3.25071214
  H -2.21332651 -0.29541378 -4.30224260
  H -1.24555393 -2.78148731  1.34088933
  H -2.65858769 -3.36987309  3.26879578
  H -4.27640087 -1.73605896  4.16027368
  H -4.46689104  0.49350146  3.10230018
  H -3.06989870  1.07802510  1.19761903
  H  0.40125161 -1.37319579 -2.22976566
  H  1.62741863 -5.42352002 -0.11156169
  H  2.76062066 -4.67096959 -1.28466469
  H  2.96694975 -4.38512250  0.45764195
