46
opt_min/./Product_2060_opt.xyz
  C -2.66153616 -1.08312195  1.72208543
  C -1.82793826 -0.71138339  0.48309018
  C -2.05492223 -1.70271070 -0.65779130
  C -0.34833687 -0.57765799  0.83958438
  C  0.46608249  0.50911655  0.86574705
  C  0.35692858  1.96950194  0.37254116
 Cl  1.71131557  2.90899798  1.13258999
 Br  0.82538903  1.93515942 -1.59632983
  C -0.84625362  2.98090770  0.53141005
  C -2.11114673  2.98971610 -0.37618664
  C -3.07770115  1.79022865 -0.17923859
  C -2.02288786  0.74154851  0.08574607
  C  1.82175087  0.09931762  1.43886977
  C  2.98202148  0.17525389  0.46827140
  C  2.89187079 -0.40018888 -0.79329665
  C  3.97806659 -0.37860202 -1.64986449
  C  5.16511981  0.21133977 -1.25338645
  C  5.26638270  0.77362936  0.00807135
  C  4.18211267  0.74948201  0.86593649
  N  1.60871042 -1.25962825  1.92609133
  C  0.41890016 -1.80870632  1.30585235
  C  0.73194971 -2.68114082  0.16826685
  N  1.06539764 -3.37420244 -0.67732132
  C -0.26313001 -2.67712624  2.26323418
  N -0.68932067 -3.42974136  3.00903150
  H -3.01498014 -2.10903275  1.66621666
  H -2.09250450 -0.97128456  2.64275648
  H -3.52735505 -0.42857562  1.78545883
  H -3.10974762 -1.70769806 -0.92246586
  H -1.48222194 -1.41755743 -1.53785199
  H -1.77278056 -2.71377884 -0.37001703
  H -1.14387333  2.95090912  1.58435900
  H -0.39043403  3.95894343  0.34754097
  H -1.78135947  2.99735935 -1.41735554
  H -2.62440339  3.93398434 -0.19399701
  H -3.68465023  1.63550269 -1.06904360
  H -3.73302817  1.94602683  0.68000063
  H -1.60359436  1.17320530  0.98277600
  H -1.35853240  0.83771543 -0.77328874
  H  2.05030744  0.71252036  2.32197802
  H  1.97269233 -0.86847662 -1.11477105
  H  3.88938873 -0.82335394 -2.62897113
  H  6.01107962  0.23153450 -1.92400087
  H  6.19102523  1.23245861  0.32636650
  H  4.26254033  1.19020666  1.84996556
  H  2.42811426 -1.84969848  1.85246133
