55
opt_min/./Product_1863_opt.xyz
  C  1.71410500  0.55505400  2.41586100
  C  2.31180330  0.13670508  1.09878248
  O  3.49810866 -0.06036564  0.98066143
  C  1.34952391 -0.02992860 -0.07505957
  C  0.03289820 -0.77708059  0.26128804
  C -0.04004157 -1.85786152 -0.82984965
  C  0.97843715 -2.94080364 -0.46152397
  C  2.32989081 -2.24613098 -0.72281681
  C  1.92176330 -0.85998785 -1.24078799
  C  0.65110945 -1.19687221 -2.02167300
  C -1.09245860  0.28326782  0.28175845
  C -1.52410713  0.51544147  1.74942036
  O -1.35086106 -0.28665272  2.63634900
  O -2.15089788  1.67115969  1.92111183
  C -2.62080246  1.96267616  3.23081324
  C -2.35399800 -0.20084868 -0.42767732
  C -2.64719268  0.21435436 -1.72081639
  C -3.78258547 -0.24069510 -2.36636540
  C -4.64193236 -1.11971548 -1.73051097
  C -4.35190282 -1.54756707 -0.44625899
  C -3.21650870 -1.09351401  0.20054783
  N -0.52613082  1.43760976 -0.36838842
  C -1.17991847  2.72091503 -0.40260676
  C  0.89719457  1.37773337 -0.55161111
  C  1.71225581  2.48146320  0.11829233
  O  2.91619988  2.55230746 -0.45406884
  C  3.82301301  3.49710055  0.09709236
  O  1.34797859  3.21806044  0.99892512
  H  0.87731362  1.23390671  2.29357318
  H  2.48128391  1.02004460  3.02965484
  H  1.36034040 -0.33370566  2.93775064
  H  0.06364402 -1.25592473  1.23888142
  H -1.04497365 -2.23568102 -1.00181345
  H  0.85108052 -3.80926770 -1.10788693
  H  0.87112491 -3.27564701  0.56939834
  H  2.90308978 -2.77064358 -1.48698476
  H  2.94908890 -2.18402802  0.16799296
  H  2.71469502 -0.34414262 -1.77733431
  H  0.11364236 -0.33370356 -2.40203154
  H  0.83443299 -1.89278486 -2.83586959
  H -3.59497857  1.49530515  3.38448874
  H -2.70712047  3.04383179  3.29535495
  H -1.91922589  1.58350125  3.97619181
  H -1.98015367  0.89498876 -2.22535349
  H -3.99499393  0.09199027 -3.37179117
  H -5.52919928 -1.47342788 -2.23386948
  H -5.01077194 -2.24063991  0.05585444
  H -2.99469435 -1.45018740  1.19518471
  H -0.97121010  3.34134168  0.47393966
  H -0.83710534  3.25902249 -1.29019858
  H -2.25394869  2.57178576 -0.47831471
  H  1.13121527  1.48933979 -1.62612072
  H  3.41339053  4.50648550  0.01822695
  H  4.01019432  3.26991582  1.14775552
  H  4.73933514  3.40558009 -0.47850351
