46
opt_min/./Product_1756_opt.xyz
  C -0.60496081  3.88717199 -1.38544110
  O -0.77482765  3.00644439 -0.27924358
  C -0.86156553  1.71321674 -0.56753226
  O -0.78074166  1.24815661 -1.67231663
  C -1.09681766  0.89013087  0.70221457
  C -0.31084351 -0.36852343  0.58827134
  C -0.62528252 -1.66954463  0.60391989
  C -1.90419975 -2.38857561  0.90405376
  F -2.35681934 -2.02334550  2.14858207
  F -1.65212319 -3.72437847  1.05373561
  C -3.01486577 -2.23323953 -0.14195789
  C -2.99586063 -0.95748418 -0.97947645
  C -3.44246853  0.31812075 -0.26208401
  C -2.60732665  0.74051840  0.94748601
  C  0.73978134 -2.39486643  0.45625412
  C  0.74860450 -3.77277211  0.01830619
  N  0.75665884 -4.82723287 -0.41858758
  N  1.50448347 -1.50259901 -0.39307436
  C  1.21779875 -0.30734334  0.40321837
  C  1.85127095  0.97707793 -0.01568892
  C  1.94639045  2.02764925  0.89282433
  C  2.53858048  3.22033933  0.51826644
  C  3.03300045  3.38189875 -0.76496680
  C  2.94521541  2.33684723 -1.66864473
  C  2.36598668  1.13704766 -1.29645919
  C  1.70194736 -0.89643133  1.76634472
  O  2.19615908 -0.32772151  2.68483667
  O  1.40394272 -2.19850440  1.72471333
  H  0.31383342  3.64439934 -1.92122602
  H -0.54875190  4.88855821 -0.96712429
  H -1.45129730  3.80233910 -2.06916290
  H -0.68620878  1.48063558  1.52735431
  H -3.96865701 -2.33476016  0.38037086
  H -2.90423752 -3.08772187 -0.81365233
  H -3.68309077 -1.11714914 -1.81284233
  H -2.00672941 -0.80241232 -1.40866981
  H -4.47273907  0.19740253  0.08031808
  H -3.43440136  1.12081872 -1.00283854
  H -2.97702855  1.71343706  1.28107508
  H -2.75725780  0.04968576  1.77290302
  H  1.14033666 -1.45552598 -1.34024628
  H  1.57777031  1.90352322  1.89930398
  H  2.61157874  4.02556864  1.23278845
  H  3.49463179  4.31409707 -1.05502711
  H  3.33510439  2.44913339 -2.66962090
  H  2.31552034  0.33082788 -2.01091358
