52
opt_min/./Product_3172_opt.xyz
 Cl  2.34368465  1.94301135 -1.49674813
  C  2.52278608  1.18252837  0.14041116
 Br  3.03984202  2.68496663  1.38305674
  C  1.16145153  0.67221702  0.50574504
  C  0.53846361 -0.52995431  0.47406285
  C  1.03921371 -1.93816579  0.45263845
 Br  0.98229173 -2.62175121  2.34213167
 Br -0.16240713 -3.13705050 -0.57461751
  C  2.44079572 -2.26481514 -0.03875900
  C  2.80065520 -1.54238161 -1.33642807
  C  3.96762425 -0.59491785 -1.09366132
  C  3.78059666  0.31492500  0.12133722
  C -0.96693144 -0.31554036  0.64431801
  C -1.52058118 -1.02800855  1.92008616
  N -2.18119300 -2.18156719  1.72840518
  C -2.71524901 -2.93277001  2.84007353
  O -1.33546355 -0.52247026  3.00121854
  C -1.77807990 -0.51796886 -0.62975509
  C -3.16560314 -0.56743302 -0.54884113
  C -3.93282604 -0.61058632 -1.69753439
  C -3.32890457 -0.58340797 -2.94308945
  C -1.95264939 -0.48707710 -3.03075992
  C -1.18253595 -0.43960028 -1.88444891
  O -1.12204507  1.07187680  0.91334080
  C  0.11673228  1.73478288  0.85434614
  C  0.29630396  2.28221278  2.19804667
  N  0.25248234  2.70731364  3.25926520
  C -0.06210336  2.85831685 -0.22777558
  O -0.55117086  2.58286039 -1.29694329
  N  0.32774241  4.08436638  0.14456127
  C  0.12490292  5.21504701 -0.73547431
  H  3.15444174 -2.01814839  0.74377273
  H  2.50275726 -3.34710010 -0.17262550
  H  3.07609313 -2.26019718 -2.10894450
  H  1.94650577 -0.97963094 -1.71380714
  H  4.87347466 -1.17901947 -0.91825263
  H  4.12973744  0.01523546 -1.98032195
  H  4.63527158  0.99365934  0.12318954
  H  3.81920780 -0.24001874  1.06026434
  H -2.35757952 -2.52722994  0.79824354
  H -3.70513109 -3.30849130  2.58897259
  H -2.06016151 -3.77085530  3.08947693
  H -2.77445101 -2.26883779  3.70090281
  H -3.64652523 -0.53872980  0.41655816
  H -5.00878177 -0.65206817 -1.61759058
  H -3.92970775 -0.61638955 -3.83846368
  H -1.46897854 -0.43442186 -3.99474896
  H -0.11221861 -0.33776277 -1.97921979
  H  0.61564570  4.26387207  1.09331305
  H  0.57944314  5.00484909 -1.70432564
  H  0.58800169  6.09365309 -0.29785398
  H -0.94047021  5.39415967 -0.89201086
