40
opt_min/./Product_4003_opt.xyz
  C  0.53554000  0.40826900 -1.54997100
  C -0.89641966 -0.12709469 -1.61788550
  C -1.20598260 -0.65243209 -0.18979015
  C -1.77590021 -2.07827088 -0.20889652
  C -2.21077466  0.26619150  0.49946644
  C -1.91211346  0.90411757  1.69202412
  C -2.83579802  1.73147473  2.30705788
  C -4.08164115  1.92990482  1.73921231
  C -4.39328247  1.28112084  0.55856052
  C -3.47361599  0.45383161 -0.05543595
  N  0.07818165 -0.56293251  0.48819011
  C  1.18961072 -0.42786458 -0.43367594
  C  1.67933261 -1.75627294 -1.03416071
  C  2.27834951  0.31885992  0.32318150
  C  1.98597709  1.56262224  0.87188402
  C  2.92366479  2.25627428  1.61201802
  C  4.17616931  1.71015345  1.83679998
  C  4.46712703  0.45766352  1.33194134
  C  3.52433097 -0.23501451  0.58992426
  H  1.07242914  0.31148168 -2.49212518
  H  0.50819592  1.46162734 -1.27277169
  H -1.59241627  0.65823649 -1.91417306
  H -0.97588638 -0.93911083 -2.34187991
  H -2.22206610 -2.31932641  0.75604509
  H -2.54314212 -2.17992651 -0.97349200
  H -0.98526282 -2.79766580 -0.41629694
  H -0.93370430  0.77039338  2.12863586
  H -2.57404829  2.23915589  3.22665526
  H -4.80681790  2.57326134  2.22067723
  H -5.36718322  1.42144068  0.10821467
  H -3.73509856 -0.04905153 -0.97804197
  H  0.21430642 -1.24897007  1.21851499
  H  0.90494714 -2.18139677 -1.67009301
  H  2.57018704 -1.59826612 -1.63666201
  H  1.90125456 -2.47592435 -0.24605180
  H  1.00302453  1.98951985  0.73925407
  H  2.66600723  3.21674488  2.03640927
  H  4.91570601  2.25443434  2.40647010
  H  5.43281591  0.00775799  1.51812713
  H  3.78664338 -1.21484275  0.22245660
