73
opt_min/./Product_2963_opt.xyz
  C  2.81698900 -0.91061300 -3.31138200
  C  3.53413763 -0.79836478 -1.98929022
  O  4.71183139 -0.57934151 -1.93325622
  C  2.67522815 -1.04844955 -0.71059022
  C  3.64995875 -0.91577519  0.45076327
  C  4.67383004 -1.84935807  0.57947273
  C  5.59938481 -1.75024291  1.60128426
  C  5.52537564 -0.70708775  2.50811648
  C  4.53178889  0.24372497  2.37146889
  C  3.60826111  0.14151165  1.34560320
  C  1.62562941  0.03083209 -0.72190437
  C  0.28872103  0.16434791 -0.50278838
  C -0.83294282 -0.77411637 -0.09744579
  C -1.41259185 -1.50120934 -1.31382970
  C -2.55797827 -2.27643672 -1.13515760
  C -3.10179620 -3.00185012 -2.17757288
  C -2.50412264 -2.98378163 -3.42712374
  C -1.35922047 -2.23428291 -3.61487134
  C -0.82120734 -1.50324917 -2.56750990
  C -1.91658877  0.08862736  0.56856182
  C -3.11660294  0.42542181 -0.04310633
  C -4.06096114  1.19718849  0.61461965
  C -3.82684559  1.64711530  1.89962490
  C -2.63307509  1.32443624  2.52017561
  C -1.68988754  0.56208790  1.85938295
  C -0.50504850 -1.90430397  0.94325166
  C  0.90856307 -2.11121689  1.47966581
  C  1.76205078 -3.02458896  0.60891636
  C  2.07373841 -2.46516257 -0.77421374
  C -0.01022207  1.61991447 -0.89743830
  C -0.87981387  1.76583892 -2.14982323
  C -0.44309542  2.53790604  0.23651606
  C -1.55159376  3.36765151  0.14785939
  C -1.86207857  4.23311807  1.18250998
  C -1.06196981  4.30576697  2.30742838
  C  0.05470250  3.49347339  2.39654381
  C  0.35678238  2.61956636  1.37149696
  N  1.29691181  2.12715407 -1.29147241
  N  2.15360795  1.25171590 -1.18367148
  H  1.95558157 -0.25157652 -3.34675196
  H  2.48298449 -1.93419359 -3.46796578
  H  3.50391414 -0.63021943 -4.10599840
  H  4.76175985 -2.65645327 -0.13184558
  H  6.38446675 -2.48725283  1.68402832
  H  6.24712793 -0.62683313  3.30782837
  H  4.47709495  1.07554198  3.05873865
  H  2.85849218  0.90945810  1.23744397
  H -3.03457453 -2.30990144 -0.16568381
  H -3.99421511 -3.58710589 -2.01161323
  H -2.92698160 -3.55176596 -4.24205872
  H -0.87276789 -2.21434540 -4.57931566
  H  0.07184858 -0.92942085 -2.74451468
  H -3.34677426  0.07375328 -1.03835029
  H -4.98751484  1.43817354  0.11403259
  H -4.56596836  2.24070620  2.41594840
  H -2.43101176  1.67291616  3.52196082
  H -0.76200062  0.32801123  2.35994449
  H -1.14163383 -1.71065288  1.80821029
  H -0.83090965 -2.85888768  0.53209870
  H  1.40897184 -1.16589909  1.67723498
  H  0.79694023 -2.62217076  2.44058046
  H  2.69692143 -3.22311029  1.13639763
  H  1.24205799 -3.97841018  0.48814698
  H  1.16469694 -2.45360061 -1.37441725
  H  2.78627866 -3.13393845 -1.26112037
  H -0.44418159  1.20769609 -2.97437036
  H -1.88531375  1.40542073 -1.97121127
  H -0.90133656  2.81316451 -2.43670743
  H -2.20467433  3.33363701 -0.70784485
  H -2.73748811  4.86058420  1.10064281
  H -1.30310419  4.99254984  3.10484947
  H  0.69609746  3.53901992  3.26435256
  H  1.23253885  1.99461914  1.45516772
