52
opt_min/./Product_5557_opt.xyz
  C  4.43217600  0.57101900  0.98767900
  C  3.35140174  0.10459958  0.05289009
  C  3.83630693 -0.27696133 -1.31113547
  C  2.08511228  0.10165935  0.45348073
  C  0.86341549 -0.27578279 -0.33095289
  C  0.07095486 -1.37747293  0.42322078
  C  0.20329586 -2.79119653 -0.09562837
  C -0.05907814 -3.83607804  0.94567438
  C  0.54216722 -3.12170822 -1.33177543
  C -1.40405043 -0.85737317  0.39030954
  C -2.34831438 -1.87332099 -0.30028724
  N -2.40008968 -1.70812128 -1.62743296
  C -3.18964711 -2.58117123 -2.46425427
  O -2.96150017 -2.72175419  0.30630225
  C -1.91591855 -0.55951104  1.80567241
  O -2.28506491  0.52480013  2.16545550
  O -1.89119692 -1.65116459  2.56007784
  C -2.42434489 -1.56133994  3.87606163
  O -1.39150231  0.32563107 -0.37938946
  N -0.06405043  0.82682820 -0.41372945
  C  0.14339158  2.17020967 -0.21800213
  C -0.81295096  2.95901029  0.42488191
  C -0.59655692  4.31272319  0.58313743
  C  0.57136184  4.90034403  0.12459916
  C  1.51986500  4.11986159 -0.51511469
  C  1.30938125  2.76816102 -0.70210709
  H  5.38429433  0.10317767  0.74961504
  H  4.17972863  0.35484190  2.02234764
  H  4.55471190  1.65040934  0.89244461
  H  3.06014202 -0.71993539 -1.92596473
  H  4.21752365  0.60888386 -1.82162320
  H  4.65789714 -0.98708202 -1.23066463
  H  1.86401183  0.41780161  1.46549722
  H  1.12707869 -0.61914602 -1.33644402
  H  0.40815359 -1.38279957  1.46448560
  H -0.11505192 -4.82425349  0.49860244
  H  0.74184262 -3.83162902  1.68609844
  H -0.99342705 -3.62495729  1.45947301
  H  0.62556726 -4.15555566 -1.62011038
  H  0.72853149 -2.41125680 -2.11790811
  H -1.88666637 -0.95260262 -2.05400794
  H -3.25601381 -2.16221325 -3.46394750
  H -2.73579005 -3.57381854 -2.51125131
  H -4.18949015 -2.68748243 -2.04132727
  H -2.94448261 -0.61059979  4.00446054
  H -3.11132830 -2.39591695  4.00507880
  H -1.60551855 -1.63451664  4.59386190
  H -1.71916860  2.49802973  0.78338610
  H -1.33997989  4.91340441  1.08654264
  H  0.73930816  5.95888406  0.25814049
  H  2.42804058  4.57235089 -0.88808609
  H  2.04680819  2.16736184 -1.20995231
