40
opt_min/./Product_1430_opt.xyz
  C -2.28762500  3.27135900  2.01723000
  N -1.29264292  2.28671831  1.65920210
  C -1.45315971  1.46934208  0.61370353
  O -2.40807813  1.49412957 -0.14445932
  C -0.34763996  0.49500402  0.38784945
  C  0.91788777  0.69659102 -0.00150086
  C  1.64853466  1.98854256 -0.12453195
  F  2.53485143  2.00681261 -1.11872617
  F  2.33330467  2.26892210  1.00605464
  F  0.82063492  3.02562169 -0.31806149
  C  1.56216986 -0.69188941 -0.12553531
  C  2.86555869 -0.80685114 -0.91744127
  O  2.88611684 -1.10550341 -2.09011235
  N  3.94650508 -0.47526811 -0.19387726
  C  5.27419808 -0.55145068 -0.75758298
  C  1.57036805 -1.11878588  1.37758045
  O  2.51389292 -1.18858456  2.10513599
  O  0.30727951 -1.33365790  1.69653327
  C -0.46665364 -1.04779182  0.50331499
  C -1.83501777 -1.74355450  0.58881432
  N -2.73207262 -1.27838356 -0.29632711
  C -4.07386557 -1.82307092 -0.32429867
  O -2.01348597 -2.67281276  1.33820847
  N  0.43511401 -1.53844456 -0.51909536
  C -0.01671078 -1.50017845 -1.89177944
  H -2.96918990  2.87817960  2.77424344
  H -1.79581938  4.16291772  2.39879347
  H -2.85627767  3.51751329  1.12269886
  H -0.49403464  2.17940256  2.26480506
  H  3.87604418 -0.43620875  0.81460724
  H  5.18704211 -0.47509244 -1.83953105
  H  5.75722123 -1.49748979 -0.50499242
  H  5.87387694  0.27339048 -0.37812434
  H -2.61074001 -0.35209438 -0.69608614
  H -4.24305274 -2.39161315  0.58935206
  H -4.18704262 -2.49340810 -1.17748116
  H -4.79601871 -1.01454991 -0.40121304
  H  0.81030950 -1.81635301 -2.52092109
  H -0.84048035 -2.20221658 -1.99250921
  H -0.34242375 -0.50175931 -2.20725702
