30
opt_min/./Product_3484_opt.xyz
  C -1.54645300  1.91845800 -0.49825900
  C -0.61691825  1.09845717  0.39058839
  C -0.87412041  1.44310529  1.86396036
  C  0.89113053  1.24267637  0.03107186
  C  0.99852436  1.36220276 -1.47652316
  O  0.90620332  0.44717566 -2.24413000
  C  1.44258121 -0.12984858  0.46263578
  C  2.71231001 -0.54772265 -0.27230293
  C  3.05468567 -2.00294978 -0.14064403
  O  3.38396509  0.25663230 -0.86160868
  N  0.34819726 -1.05503359  0.29319934
  C -0.74709774 -0.41434957  0.23368784
  C -2.04618423 -1.13478267  0.08821786
  C -1.92950883 -2.62942962  0.14110665
  O -3.09430698 -0.54830224 -0.03625514
  H -1.54478051  1.54588159 -1.51992619
  H -1.22895308  2.96002246 -0.50394279
  H -2.56213655  1.85933677 -0.11902568
  H -0.11530357  1.01730721  2.51783730
  H -1.84599889  1.05862159  2.16753445
  H -0.87660078  2.52322386  1.99801326
  H  1.38026225  2.08717462  0.51374651
  H  1.13293186  2.40196482 -1.83136230
  H  1.70210194 -0.15196616  1.53281259
  H  4.07518493 -2.10063406  0.22567411
  H  3.02130768 -2.45107872 -1.13281909
  H  2.35810595 -2.51827745  0.51084834
  H -1.80324262 -2.92940910  1.18030258
  H -2.83096703 -3.08760488 -0.25564416
  H -1.04982535 -2.95185163 -0.40685288
