57
opt_min/./Product_2984_opt.xyz
  C -1.72017900 -1.65589601  1.77312483
  C -1.90823305 -1.17059434  0.31806528
  C -2.48070072 -2.38139983 -0.47477398
  F -2.91119312 -2.04897891 -1.68993901
  F -1.67262371 -3.43343562 -0.62393738
  F -3.55176165 -2.88928818  0.17282562
  C -0.54317789 -0.75009622 -0.22860658
  C  0.01468159  0.40073232 -0.66126941
  C -0.54309279  1.80654431 -0.88431624
  C -1.40519567  1.80218024 -2.18184978
  F -0.63811377  1.87333395 -3.27089941
  F -2.24699645  2.84249506 -2.24470866
  F -2.14716608  0.71124607 -2.32865428
  C  0.52879478  2.90099279 -1.19929209
  F -0.09015070  4.02614853 -1.58140842
  F  1.42001339  2.64548061 -2.14520928
  F  1.23188073  3.24778643 -0.10817517
  C -1.21174254  2.40998923  0.39083560
  C -2.71056331  2.28339998  0.63680379
  C -3.13241390  0.97063737  1.27255318
  C -3.11985435 -0.20438293  0.29888683
  C  1.48723765  0.17648863 -1.00223519
  C  2.48475326  1.01868085 -0.16677071
  O  2.05724094  1.06537047  1.09460311
  C  2.92239853  1.71070527  2.02716963
  O  3.52450572  1.44689808 -0.56569329
  C  1.77831571  0.20909608 -2.43158185
  N  2.06796201  0.06970473 -3.52670371
  N  1.75792020 -1.16363569 -0.50644864
  C  0.49558539 -1.87614422 -0.38641692
  C  0.72578829 -2.83473252  0.80497090
  C  1.44638051 -2.18587545  1.95728794
  O  0.47197706 -4.00811921  0.77643173
  C  0.28228003 -2.51872139 -1.79496333
  C  1.04455958 -3.76967385 -2.10342528
  O -0.34978261 -1.91205719 -2.61762101
  H -2.68672805 -1.70537369  2.26889064
  H -1.07871765 -0.97401092  2.32290017
  H -1.28910095 -2.65052348  1.80627393
  H -0.67358564  1.98643329  1.24266176
  H -1.00811765  3.48211703  0.38392642
  H -3.28331113  2.45170703 -0.27274720
  H -2.97143634  3.08922575  1.32624250
  H -2.52276023  0.77074260  2.15251519
  H -4.16044827  1.09889982  1.61539191
  H -3.31121290  0.15333665 -0.70669289
  H -3.97540978 -0.82956739  0.56043130
  H  2.30117426  2.00908980  2.86782749
  H  3.69826009  1.01589602  2.35208787
  H  3.38613709  2.58177703  1.56391045
  H  2.45623870 -1.65843652 -1.05112638
  H  2.51119886 -2.37076348  1.81790358
  H  1.29320133 -1.11319314  1.99001105
  H  1.14922183 -2.66041304  2.88898882
  H  0.31998535 -4.53057919 -2.38740085
  H  1.63378555 -4.13795999 -1.27240135
  H  1.67509474 -3.58506476 -2.97294906
