28
opt_min/./Product_1126_opt.xyz
 Br -3.04632900 -3.01566100  2.13284500
  C -2.61136311 -1.88513580  0.72508393
  C -3.39527789 -1.05456568  0.02933901
 Br -5.21096128 -0.69824138  0.20021870
  C -2.45246284 -0.29547072 -0.88146572
  C -1.72282130  0.72997311  0.05761419
  C -0.82595500 -0.23208663  0.85964561
  C -1.21033884 -1.60846984  0.22426554
  O -1.44745302 -1.25320617 -1.12381203
  N  0.51132897  0.18186136  0.46979626
  C  1.65600363 -0.50323410  0.85921153
  O  1.58765218 -1.45144530  1.61451016
  N  2.78589314  0.01763854  0.34049700
  C  4.08694270 -0.50030013  0.69067162
  N  0.50024902  1.18573567 -0.43723309
  C -0.69569666  1.55345259 -0.68169831
  C -1.04348439  2.64802942 -1.61555495
  H -2.86065374  0.10754248 -1.80322269
  H -2.43516876  1.32350742  0.62861457
  H -0.92527709 -0.23051175  1.94580712
  H -0.46790472 -2.39280995  0.32850225
  H  2.70211547  0.82175880 -0.26146542
  H  4.81355050 -0.19122722 -0.05651438
  H  4.39984668 -0.14853692  1.67859611
  H  4.03456124 -1.59026224  0.71963028
  H -0.13620217  3.12521116 -1.97717531
  H -1.66917211  3.38868619 -1.11678686
  H -1.60106579  2.26115462 -2.46863717
