37
opt_min/./Product_4101_opt.xyz
  C  1.05352595 -1.16374604 -0.05648987
  C -0.12007976 -0.45085656  0.61721116
  C -0.02411066  1.07980854  0.49382228
  N  1.28323203  1.59571532  0.78135972
  C  1.40042420  2.94061754  1.28707750
  C  2.36717616  0.79327582  0.70206931
  C  2.35283600 -0.49924668  0.31142444
  C  3.64652786 -1.17644168  0.19869150
  N  3.63672718 -2.45754776 -0.28660406
  O  4.70654663 -0.61935571  0.43998571
  C -0.50314920  1.33110645 -0.95435663
  N -1.29992875  0.17058645 -1.28686871
  C -2.29731262  0.28813667 -2.31164634
  C -1.44537073 -0.70482045 -0.14552486
  C -1.54669770 -2.07935827 -0.60367070
  N -1.67899364 -3.14282788 -1.00010626
  C -2.62005721 -0.49771683  0.84923397
  C -3.63105400  0.56486689  0.53122791
  O -2.68041964 -1.17786896  1.83997794
  H  0.92374194 -1.15276176 -1.14262043
  H  1.03546937 -2.20816543  0.26095626
  H -0.20348083 -0.75504172  1.66248566
  H -0.73538596  1.52766516  1.19923345
  H  2.30399434  3.40632335  0.89407168
  H  1.45059050  2.95723215  2.38118030
  H  0.54316615  3.52899245  0.96682805
  H  3.31347116  1.24726383  0.95419990
  H  4.53744380 -2.91058852 -0.25367535
  H  2.84879625 -3.06501035 -0.15052989
  H -1.07456964  2.26591555 -1.03670413
  H  0.36175779  1.39710307 -1.62529133
  H -3.01305785  1.10598160 -2.14553828
  H -2.83759352 -0.65188050 -2.40212074
  H -1.79739353  0.47808852 -3.26542771
  H -4.27423282  0.20793135 -0.27152672
  H -3.15339756  1.48703723  0.21419441
  H -4.24763643  0.75102853  1.40768468
