45
opt_min/./Product_5407_opt.xyz
  C -1.91152000 -0.15511500 -0.24875300
  C -0.57578593  0.12360429  0.44148405
  C  0.53480175 -0.93509393  0.22659931
  N  0.15232534 -2.09896912 -0.51380878
  C  1.19768381 -3.04915870 -0.80101299
  C -1.15878839 -2.46188970 -0.61113804
  C -2.18815120 -1.62164857 -0.42185343
  C -3.61085395 -1.99176892 -0.41435850
  N -3.94034483 -3.26611364 -0.76006724
  O -4.47919146 -1.20681043 -0.07230578
  C  1.65178332 -0.05758177 -0.43704647
  C  3.06544409 -0.63146568 -0.44257124
  N  3.58506088 -0.67608933  0.80112288
  C  4.92051220 -1.16157975  1.05631906
  O  3.63398052 -1.01724130 -1.43530587
  O  1.20094258  0.26178379 -1.76526842
  C  0.24377079  1.18862933 -1.61850576
  O -0.35747502  1.70326560 -2.50833989
  C  0.12630062  1.40646207 -0.09161971
  C -0.53427682  2.67603149  0.38673385
  O -0.13003885  3.35305530  1.29685373
  O -1.62107029  2.92261645 -0.32333793
  C -2.38738829  4.07070556  0.02117962
  N  1.50706861  1.16375700  0.33146588
  C  2.43779149  2.23060189 -0.00624587
  H -2.73236002  0.29558941  0.31239128
  H -1.92002474  0.30223618 -1.24216308
  H -0.74272048  0.23889957  1.51608081
  H  0.93862334 -1.24675979  1.20733507
  H  0.75611879 -3.99621862 -1.10608940
  H  1.81929824 -3.21976766  0.08513482
  H  1.83295980 -2.68727942 -1.61136760
  H -1.29617760 -3.50807501 -0.84537868
  H -3.28110843 -3.94654128 -1.08488614
  H -4.91824493 -3.49795742 -0.77513987
  H  3.07484920 -0.25909290  1.56453859
  H  5.38882439 -1.36808413  0.09532365
  H  4.88843120 -2.08261439  1.64290757
  H  5.50398042 -0.41238182  1.59259876
  H -1.73147006  4.86940724  0.37308997
  H -3.10010308  3.81073808  0.80628532
  H -2.91390382  4.36530454 -0.88324891
  H  2.50228063  2.41863578 -1.08399294
  H  2.10531167  3.13284271  0.50087755
  H  3.42571451  1.96334214  0.36613988
