34
opt_min/./Product_310_opt.xyz
  F -0.97449500  2.45497600 -2.21979500
  C -1.26744915  2.24453976 -0.93460596
  C -2.33323500  1.67869338 -0.38824863
  C -2.00092307  1.66510364  1.08933494
  C -0.94087223  0.53585141  1.28037248
  C  0.29417869  1.19341162  0.63769765
  C -0.30370270  2.55817409  0.19209605
  O -1.21008511  2.82990063  1.24448027
  C  0.71900048  0.21488989 -0.47932874
  C  2.07690890 -0.40241434 -0.25997985
  C  3.06104145 -0.30611851 -1.23428586
  C  4.30274407 -0.88215277 -1.03195466
  C  4.57031100 -1.56816085  0.14034770
  C  3.59055640 -1.67498570  1.10946758
  C  2.34764857 -1.09798188  0.90891938
  N -0.28070765 -0.82672484 -0.51245342
  C -1.13254110 -0.67646041  0.41737116
  C -2.25905886 -1.62337512  0.64081586
  C -2.26935600 -2.80860657 -0.27540415
  O -3.07235971 -1.42922791  1.51483046
  H -3.21169602  1.26565050 -0.83890176
  H -2.83972602  1.64052861  1.77906143
  H -0.84771549  0.29382229  2.34118090
  H  1.10785262  1.35330462  1.34617384
  H  0.40368166  3.36701337  0.04152121
  H  0.70623215  0.68890153 -1.46981165
  H  2.85863735  0.23127029 -2.14994244
  H  5.06097899 -0.79669878 -1.79499697
  H  5.53897279 -2.01998359  0.29749830
  H  3.79102926 -2.21225807  2.02453311
  H  1.58560563 -1.19346677  1.66924559
  H -2.03426288 -2.49976062 -1.29116634
  H -1.48901692 -3.49495767  0.04708839
  H -3.23151040 -3.31574943 -0.21916863
