40
opt_min/./Product_3975_opt.xyz
  C  5.72066705 -0.15024116 -0.84248538
  C  4.31810626  0.38052105 -0.81954846
  C  4.22997463  1.87075891 -0.93624113
  C  3.27322626 -0.44542575 -0.69200849
  C  1.87583291 -0.08750784 -0.66167663
  C  0.91303647 -0.98547087 -0.45292127
  C -0.56931597 -0.75309217 -0.41249785
  C -1.23982216 -1.66488871 -1.44762492
  C -1.05581991  0.69117688 -0.58376765
  C -2.36501436  0.78023221  0.23822220
  C -3.59286033  1.14099450 -0.59511387
  C -4.85597112  1.40337479  0.18688094
  O -3.53623742  1.29833126 -1.78924252
  N -2.45897413 -0.43269517  1.04547441
  C -3.59506172 -1.31893757  0.89558821
  C -1.14153041 -1.04663715  1.00656187
  C -0.33547829 -0.40751823  2.02806538
  N  0.23995025  0.12276406  2.86255046
  H  5.73322208 -1.23634252 -0.88280892
  H  6.26062914  0.24354177 -1.70285861
  H  6.25198953  0.16668818  0.05564299
  H  4.88294379  2.33652414 -0.19857103
  H  4.56908088  2.18732766 -1.92336640
  H  3.22102150  2.23915012 -0.78516709
  H  3.47020668 -1.50635840 -0.60069072
  H  1.62322488  0.94550413 -0.83987478
  H  1.18982133 -2.02160311 -0.29364300
  H -1.09212604 -2.71581571 -1.20072785
  H -2.30613035 -1.46969721 -1.51968267
  H -0.80093925 -1.48243136 -2.42724560
  H -0.33570710  1.38534200 -0.15319582
  H -1.21943596  0.95163196 -1.62867509
  H -2.28571375  1.63983323  0.93128549
  H -5.15245473  2.43724842  0.00996214
  H -5.66118092  0.77495216 -0.18851513
  H -4.72105181  1.24035166  1.25080154
  H -4.23176234 -1.25457643  1.78399153
  H -4.19735518 -1.07324856  0.01898200
  H -3.27323670 -2.35589100  0.79036001
  H -1.17805189 -2.11779415  1.23247561
