47
opt_min/./Product_2518_opt.xyz
  N  0.34753500  1.50596685  3.28989706
  C  0.27782957  1.69135447  2.16382971
  C  0.17378446  1.96836753  0.74582057
 Cl  1.60354280  3.05946531  0.39450115
  C  0.31851596  0.67440458 -0.03653760
  C -0.55320672 -0.33788986 -0.32573880
  C -1.92842785 -0.67423467  0.21965446
  C -2.84888078 -1.32890301 -0.83668323
  F -4.07503919 -1.53816547 -0.33311068
  F -2.43809481 -2.51767916 -1.28378168
  F -3.00812845 -0.55049436 -1.90878865
  C -1.74171698 -1.70203613  1.38946066
  F -1.59611831 -2.97006459  1.00538694
  F -0.64986909 -1.38861474  2.10360059
  F -2.75982701 -1.71297662  2.25519546
  C -2.72512211  0.48782406  0.86284093
  C -3.17175972  1.62877904 -0.05000673
  C -1.99656084  2.39155869 -0.64711717
  C -1.07664631  2.85336079  0.48028789
  C  0.19090207 -1.28886740 -1.28825119
  C  0.55003325 -2.69563889 -0.77326196
  C -0.45628943 -1.38864918 -2.59830569
  N -0.88332091 -1.41320195 -3.65743364
  O  1.40896644 -0.58797138 -1.56742818
  N  1.52225528  0.48384044 -0.65688906
  C  2.83660143  0.63459250 -0.17461448
  C  3.14727711  0.46643156  1.17118259
  C  4.45953959  0.59929694  1.58405255
  C  5.46115672  0.86080541  0.66270699
  C  5.15037972  0.98742693 -0.68112963
  C  3.83947837  0.87569115 -1.10604031
  H -2.11937491  0.87235824  1.68564187
  H -3.62749274  0.06092582  1.30454432
  H -3.75012648  2.31085055  0.57765486
  H -3.83533903  1.27026785 -0.83389087
  H -1.46644774  1.75836687 -1.35786201
  H -2.36620051  3.25403795 -1.19978923
  H -0.72213982  3.86311230  0.28028398
  H -1.65257560  2.90905323  1.40707578
  H  0.69850092 -2.69137578  0.30252085
  H -0.20595593 -3.42754368 -1.03927403
  H  1.48962227 -2.97364598 -1.24692295
  H  2.36728844  0.24406569  1.88498477
  H  4.69977106  0.48215849  2.62964286
  H  6.48442806  0.95712248  0.99195905
  H  5.92992478  1.17952873 -1.40280828
  H  3.57881319  0.96952543 -2.14850468
