57
opt_min/./Product_2383_opt.xyz
  C -0.94231200  3.05528300  0.54992300
  O -1.04536635  1.65746766  0.70239325
  C -0.52089677  0.83534320 -0.31139871
  C  1.02126658  0.87890934 -0.37686248
  C  1.25148485  1.04678348 -1.89756585
  C  0.67455046 -0.09397541 -2.69788511
  C -0.64109438  0.07905179 -2.67711152
  C -0.86058239  1.28123320 -1.78637138
  O  0.28126184  2.07152564 -2.11629004
  C  1.47796560 -0.29534198  0.47664551
  C  1.73581545  0.18430916  1.92432643
  O  1.32327733 -0.37723120  2.89673559
  O  2.53202127  1.25714114  1.95492916
  C  2.87172205  1.75032240  3.24765253
  C  2.75359625 -0.95544965  0.00308812
  C  3.85392370 -0.17717175 -0.33683212
  C  5.02054301 -0.77658094 -0.77554810
  C  5.10346655 -2.15553654 -0.87610722
  C  4.01562904 -2.93375075 -0.52246915
  C  2.84731106 -2.33783636 -0.07965860
  O  0.40436611 -1.21419544  0.51788635
  C -0.84248742 -0.63673688  0.12030227
  C -1.46770325 -1.56767285 -0.95591463
  N -0.68145926 -2.58825518 -1.32463019
  C -1.12072136 -3.60591098 -2.24459678
  O -2.61198033 -1.43161862 -1.34219986
  C -1.86796820 -0.69210345  1.24262281
  C -3.10024425 -0.06995117  1.08609033
  C -4.04970218 -0.15938151  2.08655007
  C -3.78217812 -0.86823690  3.24583754
  C -2.55919896 -1.49617398  3.39598398
  C -1.60668662 -1.41653358  2.39460206
  H -1.34646307  3.46454923  1.47392569
  H  0.09278896  3.38922303  0.42572071
  H -1.52763873  3.42054933 -0.29803380
  H  1.37664746  1.81948724  0.04943443
  H  2.24492138  1.38096294 -2.18598785
  H  1.26264833 -0.85396172 -3.17364447
  H -1.41433058 -0.45845997 -3.18591185
  H -1.77846354  1.84533066 -1.90567038
  H  2.00797405  1.68555637  3.91129358
  H  3.18128049  2.78367057  3.11200243
  H  3.68970879  1.15907620  3.66357162
  H  3.79712504  0.89710978 -0.25460793
  H  5.87014338 -0.16324654 -1.03788240
  H  6.01601546 -2.62054206 -1.21820015
  H  4.07558417 -4.01037592 -0.58463468
  H  2.01276553 -2.94467319  0.23614561
  H  0.24485573 -2.63981268 -0.92900971
  H -0.82502877 -3.36141529 -3.26930806
  H -2.20877828 -3.65834071 -2.20012657
  H -0.69295478 -4.56729392 -1.96711153
  H -3.31688781  0.47143100  0.18069907
  H -5.00589216  0.32737812  1.95956998
  H -4.52668523 -0.93294560  4.02614858
  H -2.34128972 -2.05380062  4.29507364
  H -0.65098851 -1.90072228  2.51195905
