68
opt_min/./Product_2843_opt.xyz
  C -1.17353189  3.79559094 -1.85007385
  O -1.16726095  3.84301460 -0.44377281
  C -0.23708821  2.96371978  0.20118870
  C -0.46059342  3.13882082  1.63477656
  N -0.64748798  3.21171505  2.76001394
  C -0.76153243  1.49412321  0.01294778
  C -0.31584445  0.19677365  0.12304238
  C  1.11438366 -0.28473804  0.37347185
  C  1.17816039 -1.23893096  1.54680369
  C  0.93815883 -2.59579547  1.35185208
  C  0.97262923 -3.47662856  2.41576273
  C  1.24555191 -3.01987710  3.69329989
  C  1.48901707 -1.67437189  3.89448164
  C  1.45772287 -0.78958711  2.83039366
  C  1.77567970 -0.83652587 -0.87544269
  C  1.35168042 -0.45416887 -2.14115020
  C  2.02481326 -0.88063244 -3.27093696
  C  3.14848467 -1.67829562 -3.15028216
  C  3.59627644 -2.03945485 -1.89192600
  C  2.91882931 -1.61652494 -0.76260981
  C  1.69931968  1.11339786  0.60213031
  C  3.01723460  1.83913859  0.73287451
  C  2.45117529  3.28628150  0.76774854
  C  1.20634413  3.53858853 -0.13169754
  C -1.52938473 -0.69921588  0.01052009
  C -1.45881432 -1.70391082 -1.16698555
  O -0.51493298 -2.43419912 -1.36957050
  N -2.57121069 -1.68138132 -1.91639092
  C -2.76206384 -2.53525656 -3.06151534
  C -1.82439387 -1.45504422  1.30447410
  C -2.24024423 -2.77767288  1.30158131
  C -2.53794580 -3.41146810  2.49491343
  C -2.44474719 -2.73015854  3.69422200
  C -2.05013964 -1.40315292  3.69639315
  C -1.74885253 -0.76741675  2.50906240
  N -2.64655453  0.19383790 -0.19748790
  C -2.20309062  1.38953495 -0.16353976
  H -2.07799705  4.31907278 -2.15639268
  H -0.30664595  4.30529623 -2.28303700
  H -1.21032664  2.76617447 -2.22393768
  H  0.70338314 -2.95477671  0.36101994
  H  0.78901760 -4.52679971  2.24217676
  H  1.27016915 -3.70811186  4.52554604
  H  1.70622654 -1.30538264  4.88650665
  H  1.65637626  0.25370125  3.02020554
  H  0.47362431  0.16913988 -2.25264574
  H  1.67069544 -0.58648330 -4.24865906
  H  3.67277239 -2.01498020 -4.03269206
  H  4.47956294 -2.65238386 -1.78659969
  H  3.27951269 -1.89625929  0.21600010
  H  1.11226580  1.50993438  1.43273689
  H  1.37680672  1.52975989 -0.34180032
  H  3.66424273  1.68058215 -0.13039111
  H  3.57841387  1.62390351  1.64089196
  H  3.21252591  4.00439549  0.45561241
  H  2.18236831  3.52693699  1.79920299
  H  1.45838347  3.29052581 -1.16638228
  H  1.03280651  4.62054026 -0.09442532
  H -3.30368267 -1.03815498 -1.64232875
  H -3.66298178 -3.13782834 -2.93873180
  H -2.84959151 -1.94699246 -3.97794291
  H -1.89088624 -3.18435974 -3.13780006
  H -2.31936360 -3.32572834  0.37649983
  H -2.84884216 -4.44589474  2.48498989
  H -2.67921885 -3.22920719  4.62270612
  H -1.98235870 -0.85859564  4.62555135
  H -1.45873457  0.27355384  2.52209806
  H -2.87260778  2.22563146 -0.26683318
