36
opt_min/./Product_3895_opt.xyz
  C -2.17920292 -0.07937510 -1.48803326
  C -1.30554787  0.64802637 -0.46791335
  C -0.93841616  2.03873953 -0.99818334
  C -0.12059994 -0.25673311 -0.00904610
  C  1.26865235  0.21710910 -0.24571230
  C  2.16211219 -0.47811838 -0.94824653
  C  3.55144821 -0.09924990 -1.15082675
  C  4.02344025  1.22144285 -0.62104263
  C  4.38559653 -0.93325864 -1.77193037
  C -0.42181177 -0.46098321  1.51792212
  C  0.32695721 -1.58476651  2.19337551
  N -1.87652678 -0.49159559  1.59132336
  C -2.06594471  0.77869760  0.91461779
  C -3.43769937  1.21885967  0.81875833
  N -4.53068727  1.52768994  0.70715165
  O -1.27595726  1.66115888  1.71659164
  C -0.22060258  0.93248084  2.12267714
  O  0.67876524  1.34209075  2.78805194
  H -1.59850407 -0.26712650 -2.38881206
  H -3.04336729  0.53130209 -1.74475424
  H -2.54170139 -1.03510165 -1.10908517
  H -1.49188824  2.81404436 -0.47007315
  H  0.11977544  2.25304037 -0.88256705
  H -1.18027396  2.11444234 -2.05607196
  H -0.23664521 -1.24083818 -0.48620280
  H  1.56030930  1.12613709  0.26033253
  H  1.86709776 -1.40990787 -1.41839979
  H  3.34985896  2.02295106 -0.91929956
  H  5.01867065  1.44818684 -0.99524441
  H  4.06391930  1.19632577  0.46809702
  H  4.05947901 -1.89121231 -2.14286225
  H  5.42133024 -0.68791172 -1.93159366
  H -0.22545478 -2.51666587  2.09847348
  H  0.46140810 -1.35679834  3.24823824
  H  1.31064843 -1.69583051  1.74316325
  H -2.30931537 -1.27403789  1.11229619
