41
opt_min/./Product_1396_opt.xyz
  C  3.53131500 -2.43675400 -1.81433600
  N  2.77150863 -1.57175018 -0.93596324
  C  2.55488852 -0.28729759 -1.25706566
  O  2.98897087  0.24941158 -2.24647694
  C  1.70131710  0.50028350 -0.22788474
  C  0.26212119  0.86754279 -0.71343864
 Cl -0.15059297  0.21588009 -2.31454524
  C  0.37356514  2.42137235 -0.83460674
  C  0.42461983  3.00883145  0.56202569
  C  1.63369110  2.70162038  1.01945592
  C  2.30866573  1.94458107 -0.10863071
  O  1.72093039  2.54467625 -1.24472017
  C -0.58125739  0.12846615  0.36423032
  C -2.01432184 -0.11676455  0.01269366
  C -2.38210857 -1.29191464 -0.63178625
  C -3.70314468 -1.49799051 -0.98534401
  C -4.65857554 -0.53487411 -0.70707675
  C -4.28800960  0.64226507 -0.08147150
  C -2.96794894  0.85778409  0.27379901
  N  0.30495147 -1.04096492  0.52262121
  C -0.10879343 -2.07737230  1.46191285
  N  1.45014756 -0.35735551  0.94294863
  O  0.96474389  0.46369322  2.05317463
  C -0.29951463  0.80582161  1.73452414
  O -1.01669004  1.45288889  2.43235289
  H  3.11841992 -3.44186711 -1.78685505
  H  3.46506344 -2.03627901 -2.82408913
  H  4.58294685 -2.47062502 -1.52633823
  H  2.43480809 -1.96518508 -0.07365646
  H -0.31036620  2.87019776 -1.54696887
  H -0.37203156  3.53668270  1.04442312
  H  2.06993963  2.90050694  1.97698232
  H  3.39264417  1.98035193 -0.16366318
  H -1.63254020 -2.03134934 -0.86457060
  H -3.98581635 -2.41206658 -1.48513167
  H -5.68945383 -0.70129523 -0.98447768
  H -5.02710256  1.40090239  0.12791778
  H -2.68481814  1.77655529  0.76126814
  H -0.09091622 -3.03517470  0.94068128
  H -1.11258924 -1.90623029  1.84526528
  H  0.58044822 -2.11952038  2.30467408
