38
opt_min/./Product_3956_opt.xyz
  C -0.90330811  2.54664012  0.99232158
  C -0.09807830  1.71362558 -0.00812563
  C  1.35133737  2.19033605 -0.00591990
  C -0.22418584  0.20468318  0.33011749
  C  0.93146901 -0.61067073 -0.15849696
  C  1.70968855 -1.33317809  0.64519472
  C  2.81120849 -2.18154262  0.21942530
  C  3.08061926 -2.29757246 -1.25018419
  C  3.53837788 -2.83894751  1.12213805
  C -1.49419313 -0.19590771 -0.46987522
  C -2.69225161 -0.04585266  0.33539415
  N -3.64640869  0.04223228  0.96300446
  C -1.38969693 -1.68416386 -0.91291642
  O -1.10370044 -2.01016224 -2.03626301
  N -1.60561501 -2.54470569  0.10144327
  C -1.54083425 -3.97610421 -0.08037321
  O -1.54114278  0.63847391 -1.60347970
  C -0.73486938  1.78843206 -1.40954453
  H -0.50088809  2.42755121  1.99612891
  H -1.94892588  2.24709378  1.00238285
  H -0.85023649  3.59999773  0.72779721
  H  1.39157605  3.24963125 -0.24849892
  H  1.78979964  2.04282184  0.97822571
  H  1.95021035  1.64710494 -0.73113297
  H -0.36706067  0.05678001  1.40245807
  H  1.07420834 -0.60974667 -1.22745903
  H  1.53016049 -1.31003817  1.71476590
  H  2.18626451 -2.63083954 -1.77447527
  H  3.36992694 -1.33079247 -1.65913465
  H  3.88268942 -3.00610020 -1.43838358
  H  4.35447825 -3.47417647  0.82338346
  H  3.34942463 -2.76076046  2.17768508
  H -1.91583169 -2.20392896  0.99855232
  H -0.87760836 -4.41812507  0.66353777
  H -2.53116389 -4.42615738  0.00450892
  H -1.14768681 -4.16348341 -1.07739371
  H -1.36442905  2.67839207 -1.51359722
  H  0.02264982  1.80506471 -2.20043353
