26
opt_min/./Product_47_opt.xyz
  C  4.42820900  0.27035500  0.17126000
  N  3.11839858 -0.30198151 -0.01343383
  C  1.99373087  0.42627850  0.10031173
  O  1.97916574  1.62037175  0.34043881
  C  0.76861241 -0.37741125 -0.09440968
  C -0.54785638 -0.06280922 -0.10244588
  C -1.19812442  1.28684377 -0.12177988
  C -0.89064124  2.16240584  1.04253563
  O -1.89210123  1.58932327 -1.05943043
  N -1.25865395 -1.24153183 -0.37350462
  C -2.57812829 -1.60262727 -0.22855647
  C -3.51283510 -0.53184837  0.25572464
  O -2.91705281 -2.72841122 -0.51194359
  N -0.32446481 -2.28518735 -0.65057551
  O  0.94969959 -1.72855677 -0.35071365
  H  4.33569003  1.35190242  0.09112439
  H  4.82873472  0.02448879  1.15721268
  H  5.10715791 -0.10136927 -0.59406258
  H  3.04053361 -1.29046919 -0.19437030
  H  0.18176753  2.36583936  1.02668952
  H -1.44675432  3.09224938  0.97740360
  H -1.11707158  1.64843179  1.97496102
  H -3.67142500  0.20270446 -0.53222219
  H -3.11884181 -0.02527660  1.13292802
  H -4.46352747 -0.99871635  0.49863722
  H -0.33322170 -2.49527349 -1.65926093
