40
opt_min/./Product_469_opt.xyz
  C  1.37575200  2.29946400 -0.41670900
  C  0.59051801  1.02598031 -0.35506552
  C -0.68959181  0.82823436 -0.03128524
  O -1.67878533  1.64102859  0.41657574
  C -1.66813080  3.01982457  0.12409186
  C -1.10811750 -0.59700822 -0.34950930
  C -2.08960022 -1.29231548  0.60811384
  N -2.37548500 -0.64705989  1.74953745
  C -3.30482089 -1.23687377  2.69166734
  O -2.57064797 -2.37458883  0.33554147
  C -1.93649198 -0.46166403 -1.66937945
  C -1.39688902 -1.19061940 -2.85899572
  O -2.92739098  0.21815362 -1.69371247
  N  0.14253203 -1.31256311 -0.59066482
  C  0.45674433 -2.35496090  0.36595168
  C  1.18127556 -0.29327762 -0.80793164
  C  2.56060676 -0.66884954 -0.26695497
  O  3.08364308 -1.74113876 -0.40527072
  O  3.18433334  0.36982580  0.29763994
  C  4.50972634  0.13822375  0.75378877
  H  0.80473244  3.08942808 -0.89799181
  H  1.66779494  2.63051622  0.57903345
  H  2.28316540  2.14651641 -0.99499062
  H -2.64007032  3.38849031  0.45406033
  H -0.88114272  3.55114867  0.66668938
  H -1.57628516  3.20013094 -0.94903407
  H -2.02594719  0.27317090  1.95822037
  H -4.20317520 -1.56455559  2.16572607
  H -3.56631848 -0.50445676  3.44935161
  H -2.85977569 -2.11551165  3.16486060
  H -0.78167304 -2.02938081 -2.55094553
  H -2.22713686 -1.53173907 -3.47475441
  H -0.79662756 -0.50498920 -3.45518255
  H  1.20656019 -3.01062137 -0.07276090
  H -0.43527809 -2.94351685  0.56012188
  H  0.83487175 -1.96611931  1.32302839
  H  1.36825711 -0.22766364 -1.89854118
  H  4.74775375  0.95104268  1.43601213
  H  4.57916991 -0.82495507  1.26311747
  H  5.20483744  0.13500273 -0.08878729
