49
opt_min/./Product_2501_opt.xyz
  C  3.87810500  1.31487900  2.61580100
  N  3.12861822  1.22482667  1.38449612
  C  2.06259106  0.41982443  1.28652120
  O  1.73756002 -0.40862858  2.10303820
  C  1.31262421  0.45235463 -0.08533997
 Br  1.36042834  2.26448752 -0.89442873
  C -0.09543512  0.07267005  0.17857945
  C -0.68865553 -1.14549545  0.23242526
  C -0.25020595 -2.50396383 -0.22784870
  F -1.10397555 -3.44190121  0.29867078
  F  0.96492743 -2.87845686  0.25034780
  C -0.30115946 -2.64983942 -1.76039935
  C  0.97046094 -2.23930133 -2.50081323
  C  1.36625473 -0.76987697 -2.34974110
  C  2.09294520 -0.46151464 -1.03157466
  C -2.03796107 -0.92394085  0.75000000
  C -3.08654309 -1.96415850  1.02437288
  C -3.96815557 -2.24809373 -0.16401359
  O -3.23492537 -2.44403800  2.11134378
  N -2.28230261  0.30940094  0.99741396
  C -1.11710131  1.06910692  0.65904807
  C -1.59133464  2.00452724 -0.48156069
  O -1.50363325  1.36210623 -1.64024328
  C -1.91239812  2.08244481 -2.80158894
  O -2.04581201  3.09754525 -0.32043133
  C -0.66878790  1.98429747  1.82150886
  C -1.80480859  2.47532259  2.64026308
  O  0.48661168  2.26345480  1.98431669
  H  3.67351349  0.41923426  3.19923588
  H  3.57652624  2.19188293  3.19194240
  H  4.94211362  1.37505443  2.38976406
  H  3.22734131  1.99806808  0.74250035
  H -0.48973074 -3.70699182 -1.96443332
  H -1.15249216 -2.06895251 -2.12544535
  H  0.79341485 -2.44089528 -3.56011075
  H  1.79716198 -2.87544096 -2.17973390
  H  2.03028526 -0.51898880 -3.17838976
  H  0.47683023 -0.14318959 -2.44965324
  H  2.32888982 -1.38193357 -0.49946650
  H  3.04651312  0.02847550 -1.24197334
  H -4.34533619 -1.30894541 -0.56453468
  H -4.79419811 -2.88584417  0.14008934
  H -3.39469431 -2.74965078 -0.93983405
  H -2.74002801  2.74921272 -2.55866262
  H -2.21378363  1.34140953 -3.53769400
  H -1.06998352  2.66873229 -3.17335982
  H -1.43483249  2.98835084  3.52401963
  H -2.37441852  3.17059713  2.02232753
  H -2.46154181  1.64750199  2.89804862
