31
opt_min/./Product_3478_opt.xyz
  C -1.69684706  0.98102311 -1.32706184
  C -1.60496293  0.54560473  0.14232616
  C -3.01985884  0.43893400  0.70352069
  C -0.66752068 -0.68660092  0.36602675
  C -0.67749237 -1.69685809 -0.77386678
  C -1.03776602 -1.42717478  1.66211431
  C  0.67872562  0.05944803  0.61274945
  C  1.60859351  0.42023049 -0.58794100
  N  2.60960576  1.21293014 -0.18110995
  C  3.60621522  1.73600099 -1.08381739
  O  1.43747821  0.05259960 -1.72577443
  C  1.54627603 -0.57859941  1.56632485
  N  2.27040167 -1.07091623  2.30460964
  N  0.24261527  1.39755752  1.08973260
  N -0.91663203  1.62220193  0.83149279
  H -2.17662830  1.95694300 -1.38150616
  H -2.29303098  0.26685610 -1.88648142
  H -0.71236447  1.05642342 -1.78243117
  H -3.52974986  1.38370772  0.52865587
  H -3.56767442 -0.35387850  0.19926243
  H -3.01988103  0.25129287  1.77328516
  H -0.08773224 -2.56799094 -0.49320945
  H -0.26808799 -1.29274011 -1.69205259
  H -1.70081034 -2.02084447 -0.95143924
  H -0.30693464 -2.20696542  1.86740072
  H -2.01212493 -1.89727798  1.55925217
  H -1.05694651 -0.75364327  2.51816035
  H  2.64679780  1.50284380  0.78555355
  H  3.42508304  1.30028787 -2.06596538
  H  4.60799782  1.46837347 -0.74545789
  H  3.52799451  2.82333408 -1.14900092
