34
opt_min/./Product_954_opt.xyz
  F  4.98061114 -0.86791070 -0.94752153
  C  3.84348227 -0.39248066 -1.45591802
  F  3.07567856 -1.46605633 -1.75861742
  F  4.14474910  0.17898143 -2.63208897
  C  3.12129778  0.53256179 -0.54855952
  C  3.36773467  0.93910292  0.70116070
 Cl  4.58695225  0.53381691  1.78763048
  C  2.17308397  1.82410978  1.05999939
  C  0.99937381  0.82872729  1.28791343
  C  0.73259929  0.34605864 -0.15098843
  C  1.79625723  1.19530500 -0.91693696
  O  1.85122991  2.39371048 -0.18519988
  C -0.73814655  0.75820522 -0.42684931
  C -1.78376869 -0.34675037 -0.09099518
  N -1.45369201 -1.61615918 -0.40478151
  C -2.37950695 -2.70333688 -0.16615630
  O -2.85319017 -0.04013021  0.38135117
  C -1.03063903  1.23544402 -1.84713748
  O -0.96079842  1.84950711  0.45500475
  C -0.31297971  1.56387730  1.66498691
  C -1.07456464  0.69256712  2.55817094
  N -1.60201241 -0.00466887  3.29299317
  H  2.33800703  2.56658855  1.83308749
  H  1.25126011  0.04475781  2.00071108
  H  0.92093832 -0.71351836 -0.29975680
  H  1.62472812  1.37143996 -1.97332671
  H -0.59497096 -1.83247940 -0.88190226
  H -3.03859715 -2.85439773 -1.02449624
  H -2.98794390 -2.43976794  0.69874460
  H -1.82561978 -3.61789064  0.03261209
  H -0.56980410  2.20790328 -2.00080023
  H -2.10579257  1.34748829 -1.96564471
  H -0.66228861  0.51831664 -2.57617810
  H -0.14259409  2.51829474  2.17626248
