30
opt_min/./Product_203_opt.xyz
  C  0.19984599 -1.45104792 -0.79556114
  C  0.46584859 -0.42998658  0.31818983
  C  1.66563752  0.48459426  0.13082497
  O  1.67949047  1.64584197  0.43453476
  O  2.68836229 -0.17468588 -0.40722462
  C  3.88762423  0.56098462 -0.63346824
  C -0.86222531  0.39239776  0.31347725
  C -1.04154837  1.26695033  1.55523368
  C -1.41062229  2.67984071  1.28501223
  O -0.85462031  0.78256559  2.64169685
  O -0.87038138  1.14365551 -0.90399325
  C -1.09214447  0.26779709 -1.89707813
  O -1.08304857  0.51539682 -3.05883992
  C -1.27416268 -1.09039867 -1.18100997
  C -2.00130321 -2.10428711 -1.88099842
  N -2.57148730 -2.94069396 -2.41075964
  N -1.88945838 -0.59396208  0.04898263
  C -2.25755094 -1.54622893  1.08067247
  H  0.26759633 -2.47872332 -0.43736517
  H  0.86646838 -1.33583255 -1.64995344
  H  0.56862351 -0.91005116  1.29647401
  H  4.01129236  1.32022352  0.14077072
  H  4.70162342 -0.16047403 -0.61145566
  H  3.84020552  1.04647524 -1.61100256
  H -2.16717039  2.74654541  0.50928474
  H -0.50676758  3.16794311  0.91181792
  H -1.72207866  3.17261855  2.20373222
  H -3.34438708 -1.64615740  1.08414642
  H -1.81345431 -2.52920304  0.90418551
  H -1.93563350 -1.18075866  2.05436988
