56
opt_min/./Product_5773_opt.xyz
  C -0.47473300 -1.45545500  1.58264700
  C  0.45582028 -2.58958375  1.88303970
  C  1.35017276 -2.98986545  0.98214852
  N  1.52024130 -2.37427947 -0.24560014
  C  2.52116151 -2.82345369 -1.17303325
  C  0.59306200 -1.39355325 -0.68429403
  C -0.74032964 -1.44068777  0.07525026
  C -1.59197935 -2.66241465 -0.27963900
  N -1.72612150 -2.92074273 -1.60230015
  O -2.13251797 -3.35635084  0.55117810
  C -1.41337612 -0.14987145 -0.41647941
  C -2.47047218  0.34850133  0.53614915
  C -2.18391409  1.32164184  1.48429162
  C -3.16067965  1.74807303  2.36529222
  C -4.43171856  1.20178915  2.31368369
  C -4.72247248  0.22651545  1.37462530
  C -3.74770658 -0.19444646  0.48868518
  N -0.33189700  0.79765493 -0.57833909
  C -0.68124705  1.93928394 -1.40446563
  C  0.98515305  0.15008648 -0.68342571
  C  1.63656113  0.36104654 -2.05680588
  C  3.01065013  0.96695088 -2.10134942
  O  1.04671927  0.04297281 -3.06715184
  C  1.86798243  0.70131763  0.42798439
  C  1.87536229  2.08440518  0.61146535
  C  2.64716342  2.68038614  1.59038163
  C  3.44520846  1.90794532  2.41710762
  C  3.46103064  0.53869536  2.23828434
  C  2.68930666 -0.05717035  1.25305423
  H -0.04136711 -0.50052137  1.89167543
  H -1.41632204 -1.59426173  2.11238860
  H  0.36335114 -3.09805897  2.82556800
  H  2.02177069 -3.81540276  1.16452623
  H  2.91901136 -3.78318857 -0.85239061
  H  3.35194006 -2.11079802 -1.24399196
  H  2.09293232 -2.94347410 -2.17263330
  H  0.39319890 -1.59253461 -1.74537163
  H -1.36375148 -2.32502196 -2.32406448
  H -2.33515129 -3.67518852 -1.86840005
  H -1.90375289 -0.35197467 -1.38984786
  H -1.18980851  1.74009778  1.52602902
  H -2.92768691  2.50727373  3.09781957
  H -5.19319902  1.53330007  3.00329843
  H -5.70996100 -0.20876835  1.33099529
  H -3.97757894 -0.95818819 -0.24104660
  H -0.71628637  2.85257614 -0.80494654
  H  0.00440431  2.08926149 -2.23769504
  H -1.67722321  1.79723678 -1.82526516
  H  3.65628619  0.51050739 -1.35620970
  H  3.42820370  0.84327472 -3.09669230
  H  2.94321969  2.02880598 -1.87188958
  H  1.27273734  2.71230888 -0.02237138
  H  2.62607916  3.75427571  1.70402896
  H  4.04823907  2.36996124  3.18443304
  H  4.07976729 -0.08230035  2.86970524
  H  2.74196637 -1.12410178  1.15465714
