47
opt_min/./Product_5158_opt.xyz
  C -5.65365200  0.05880200 -0.59139600
  C -4.32345202 -0.32676834 -0.01000666
  C -4.30511755 -0.58557038  1.46386766
  C -3.25402385 -0.43732195 -0.81073701
  C -1.91495369 -0.79524062 -0.42024666
  C -0.90438958 -0.82926039 -1.29201200
  C  0.52393048 -1.17287686 -1.01577782
  C  0.98160802 -2.25703786 -1.99960926
  C  0.86377375 -1.59816176  0.41704260
  N  2.25886645 -1.23969232  0.54754824
  C  2.94234631 -1.30619653  1.70939978
  O  2.53462352 -1.93546157  2.65792503
  O  4.13616289 -0.69489800  1.62559586
  C  4.92489823 -0.71750737  2.80397350
  O  2.66696721 -0.37643926 -0.49542499
  C  1.48978648  0.06516336 -1.13519596
  C  0.86560666  1.25077601 -0.32685697
  N -0.13177311  1.88210569 -0.95517085
  C -0.89493323  2.93343873 -0.32830596
  O  1.25650299  1.49774288  0.79110336
  C  1.77499680  0.50000373 -2.55580565
  C  3.20777311  0.50745534 -2.98593231
  O  0.86689615  0.84582606 -3.28283387
  H -6.44711782 -0.03870311  0.14478771
  H -5.89744153 -0.56787247 -1.44774848
  H -5.63276343  1.09220000 -0.93734146
  H -4.66474823 -1.59628780  1.66359505
  H -4.96727549  0.10786332  1.97841641
  H -3.31073751 -0.48860363  1.88757930
  H -3.38417646 -0.22328971 -1.86571448
  H -1.74739870 -1.04644633  0.61437385
  H -1.09948859 -0.60161312 -2.33254169
  H  2.03263648 -2.49370779 -1.84895610
  H  0.83921230 -1.92703210 -3.02646223
  H  0.39311500 -3.15875634 -1.84444392
  H  0.74140321 -2.67021017  0.57942216
  H  0.27569378 -1.05257631  1.16266559
  H  4.69800455 -1.60939034  3.39124520
  H  5.96608887 -0.71859968  2.48707913
  H  4.71776133  0.17166427  3.40349752
  H -0.33814741  1.64630706 -1.91692498
  H -0.42430462  3.16874124  0.62491239
  H -1.92059581  2.60062431 -0.15248846
  H -0.90809715  3.82102188 -0.96068476
  H  3.36354650 -0.31803146 -3.67981781
  H  3.41185513  1.42898444 -3.52817659
  H  3.87519849  0.40230487 -2.13844170
