44
opt_min/./Product_4062_opt.xyz
  C -0.44003900 -1.92543500  1.60339600
  C -0.46241899 -1.19817463  0.25088976
  C  0.40615642 -1.99032858 -0.73896078
  C  0.02795311  0.27192178  0.39009928
  C  1.44559449  0.47811785 -0.03069542
  C  2.43939743  0.60862267  0.84726885
  C  3.84970044  0.76264346  0.52863575
  C  4.24743205  0.95722815 -0.90616874
  C  4.76690600  0.68501806  1.49281747
  C -1.01359853  1.11833027 -0.39166584
  C -0.59154645  1.45071334 -1.82885979
  C -1.23973289  2.43342717  0.39988233
  C -1.98888967  3.56241978 -0.26735490
  O -0.84158986  2.56251722  1.53019048
  N -2.22242925  0.28481898 -0.46201334
  C -3.31885675  0.67068622  0.41488154
  N -1.86113059 -1.07295343 -0.15628185
  C -2.38489764 -1.96909713 -1.15983589
  H -0.76156705 -1.26650454  2.40680947
  H  0.55599646 -2.29983368  1.82711225
  H -1.13406152 -2.76236634  1.56804870
  H  0.33695958 -1.57201796 -1.74100704
  H  1.44601351 -1.95375208 -0.42288352
  H  0.08754510 -3.02843637 -0.77431527
  H -0.02952759  0.56612663  1.44315099
  H  1.65834063  0.48641397 -1.08660621
  H  2.21093873  0.58854703  1.90617199
  H  4.18831820  0.00582416 -1.43722324
  H  5.26997328  1.32172697 -0.97613538
  H  3.58490249  1.66406827 -1.40197574
  H  4.49105354  0.52338053  2.52157427
  H  5.82138419  0.78707850  1.29535794
  H -1.44396059  1.82967141 -2.38613402
  H -0.26408337  0.54278759 -2.32987729
  H  0.21341916  2.18104431 -1.85210619
  H -1.44315156  4.48704221 -0.08350697
  H -2.95579313  3.66020388  0.22314200
  H -2.13987014  3.42161991 -1.32949282
  H -3.01304482  0.87309395  1.44761574
  H -4.03760518 -0.14694301  0.42202548
  H -3.80258776  1.55541841  0.00212084
  H -1.94265488 -1.83911196 -2.15817719
  H -2.23229340 -2.99765307 -0.83541161
  H -3.45486272 -1.78224415 -1.24462306
