39
opt_min/./Product_2844_opt.xyz
  F  1.18724023 -2.88647358  0.03419459
  C -0.08378116 -2.58969330  0.33353412
  F -0.72334881 -3.76489704  0.30608723
  F -0.09372586 -2.17246028  1.60654736
  C -0.74762847 -1.54248519 -0.59525222
 Br -0.41974719 -2.28052363 -2.41666340
  C -0.07226804 -0.21383653 -0.37281445
  C -0.52409696  0.99149673  0.02728580
  C -1.79196031  1.76045534  0.00901224
 Br -2.10127078  2.53597280  1.83201563
 Br -1.43226596  3.33702182 -1.21045257
  C -3.11429057  1.19058517 -0.46260701
  C -2.98383253  0.34559364 -1.72945352
  C -3.18335209 -1.12501729 -1.39833159
  C -2.25265981 -1.62421790 -0.29593824
  C  0.69713360  1.78329601  0.52764357
  C  0.84503002  1.48383671  1.94956381
  N  1.02642246  1.21030209  3.04202505
  N  1.83627616  1.21607754 -0.16132902
  C  1.46572613 -0.16231807 -0.43682252
  C  1.96146670 -0.47294494 -1.86460970
  N  2.80582093 -1.50527952 -1.97462044
  C  3.35093087 -1.91779908 -3.24649790
  O  1.63216175  0.25252398 -2.77889956
  H -3.56085876  0.60660751  0.34164445
  H -3.78153467  2.04228639 -0.63040262
  H -3.74209243  0.64629755 -2.45397081
  H -2.01255978  0.50374479 -2.20408139
  H -3.04984394 -1.72566334 -2.29908642
  H -4.20852732 -1.28056650 -1.05245460
  H -2.51043370 -2.67141323 -0.12330910
  H -2.42249897 -1.09179267  0.64342396
  H  0.64049559  2.86865502  0.40705872
  H  1.99303140  1.71019769 -1.03776571
  H  1.93003396 -0.79882903  0.32480452
  H  3.04677589 -2.05716571 -1.16710179
  H  2.92358653 -1.27390410 -4.01287014
  H  3.08328064 -2.95446094 -3.45197907
  H  4.43754228 -1.81559604 -3.24841368
