41
opt_min/./Product_4485_opt.xyz
  C  0.53035500 -2.33748800  0.23899900
  C  0.25886851 -0.92230516  0.76058334
  C -0.66590824 -1.00937153  1.97030106
  C  1.60981720 -0.24004575  1.09541945
  C  2.59744346 -1.11198096  1.81897122
  O  3.57204802 -1.60881012  1.33053307
  C  2.12378374  0.23644319 -0.26768476
  C  2.83577761  1.57933367 -0.14323686
  C  3.04787825  2.33236306 -1.42838441
  O  3.21902910  1.98594557  0.92424437
  N  0.97873785  0.19808435 -1.18682023
  C -0.23435106  0.01084364 -0.38167954
  C -0.69349606  1.39016744  0.12227348
  N -1.91794972  1.43504481  0.68252623
  C -2.50267921  2.66083466  1.17180277
  O -0.00935728  2.38459839 -0.04323724
  C -1.31807055 -0.54089609 -1.32692804
  O -1.69871813 -1.68770650 -1.38187075
  N -1.83052856  0.41196210 -2.13973439
  C -2.72746263  0.05698722 -3.21770779
  H -0.39781732 -2.85112981  0.01692526
  H  1.07445441 -2.89996785  0.99375464
  H  1.12474855 -2.30390816 -0.66755996
  H -1.58708763 -1.51916226  1.69377942
  H -0.18307178 -1.59971977  2.74333053
  H -0.89487248 -0.03412700  2.38706676
  H  1.41349769  0.62877250  1.73500223
  H  2.35196453 -1.26710481  2.88625891
  H  2.87366263 -0.47608876 -0.64324318
  H  3.89802493  2.99874986 -1.33107478
  H  2.16481094  2.94619129 -1.60511976
  H  3.18627192  1.65754260 -2.26644548
  H  0.90799213  1.07392183 -1.69287710
  H -2.48252968  0.60074789  0.68047834
  H -3.06280501  2.46605937  2.08373807
  H -1.69105181  3.35651502  1.37794992
  H -3.16941726  3.10939485  0.43024678
  H -1.58158977  1.37925615 -2.02188964
  H -2.89651674  0.92730262 -3.84382298
  H -3.68136228 -0.30053107 -2.82420636
  H -2.28654198 -0.74382138 -3.81076480
