37
opt_min/./Product_582_opt.xyz
  C -4.64615012  2.74960779 -0.19759409
  O -3.22625914  2.74111522 -0.14856624
  C -2.65140537  1.52982393 -0.22624610
  O -3.26826087  0.49595462 -0.29191945
  C -1.19002423  1.63546319 -0.20758755
  C -0.28220386  0.63374139 -0.14717465
  C -0.54875053 -0.80361700 -0.07087783
  C -0.55382532 -1.57352641 -1.22724089
  C -0.79742902 -2.93226848 -1.15173037
  C -1.03819940 -3.53133778  0.07269980
  C -1.04128149 -2.76552020  1.22529162
  C -0.79637144 -1.40636081  1.15776852
  C  1.03919917  1.28041642 -0.17650530
  C  2.32703784  0.59651083 -0.20079873
  C  3.36788118  1.17499272 -0.92993324
  C  4.60214309  0.56148208 -0.99215331
  C  4.81776722 -0.63451776 -0.32415569
  C  3.79300073 -1.20591742  0.40908403
  C  2.55052010 -0.60021876  0.47351787
  N  0.96112307  2.56427379 -0.23639214
  C -0.42785191  2.93712730 -0.27580674
  C -0.72031913  3.63737703 -1.51126018
  N -0.94752480  4.15906968 -2.49996929
  H -4.98930758  2.32751721 -1.14455937
  H -4.94717049  3.78968552 -0.10729525
  H -5.05588819  2.15419764  0.62163159
  H -0.37142533 -1.10221786 -2.18264332
  H -0.80523942 -3.52479863 -2.05509737
  H -1.22964949 -4.59318326  0.12831935
  H -1.23589389 -3.22686252  2.18249357
  H -0.80817857 -0.80401238  2.05616314
  H  3.18424548  2.10649643 -1.44250078
  H  5.40119357  1.01425192 -1.56139411
  H  5.78357762 -1.11595073 -0.37532623
  H  3.95798779 -2.13340038  0.93823617
  H  1.76459392 -1.05502196  1.05490165
  H -0.67051139  3.61491411  0.55258531
