45
opt_min/./Product_4759_opt.xyz
  C -0.40116303 -2.22589100  0.78300400
  C -0.11939001 -1.34798072 -0.44123535
  C -0.67011658 -2.11349816 -1.64704461
  C  1.41599516 -0.98482061 -0.51825731
  C  2.32786467 -1.95605992  0.24040175
  C  1.96112025 -0.85256849 -1.95589770
  N  1.46123743  0.31637616  0.16976124
  C  2.49820891  1.19006842  0.21677363
  O  3.67562787  0.61976214 -0.15481934
  C  4.79865516  1.48093370 -0.08258285
  O  2.40522724  2.32456306  0.61934300
  N  0.19260785  0.86378304  0.46706259
  C -0.04492348  1.01891743  1.89352185
  C -0.74169199  0.09927673 -0.36193288
  C -0.55898823  0.67175660 -1.69930128
  N -0.40118786  1.12753892 -2.73551027
  C -2.19403939  0.36878244  0.01779132
  C -2.91453739 -0.32796730  0.98262741
  C -4.22452517  0.01006849  1.28149329
  C -4.84642761  1.06472498  0.64146006
  C -4.13139903  1.79410968 -0.28919626
  C -2.82515899  1.45355206 -0.59220060
  H -0.18673489 -1.71897952  1.72005895
  H  0.20726686 -3.12439952  0.72750101
  H -1.43363072 -2.56147516  0.77706063
  H -0.09436395 -3.02281417 -1.81070456
  H -1.70315346 -2.39588878 -1.44566904
  H -0.67270841 -1.52390512 -2.55980595
  H  2.25415461 -2.95375141 -0.18751276
  H  2.09609660 -1.99544589  1.30093242
  H  3.35438444 -1.61301661  0.14241538
  H  1.38798575 -1.42616367 -2.67387615
  H  2.98858037 -1.20115678 -1.99689545
  H  1.94861409  0.18524162 -2.27825550
  H  5.67512054  0.84648708 -0.19469726
  H  4.76092847  2.22203188 -0.88412504
  H  4.81827163  2.00170884  0.87754715
  H  0.70020144  0.46254641  2.46551689
  H  0.06035037  2.07759048  2.13739322
  H -1.04123882  0.69146122  2.18412366
  H -2.47663500 -1.13467502  1.53921185
  H -4.75203557 -0.55873350  2.03320019
  H -5.86793173  1.32296805  0.87872094
  H -4.58698581  2.63764812 -0.78530463
  H -2.29358995  2.05868199 -1.30855709
