54
opt_min/./Product_2030_opt.xyz
  C  2.49168296  1.77084105 -0.88125902
  C  1.85508096  0.98466853  0.20365769
  C  1.79666334 -0.33402601  0.45514933
  C  2.46206213 -1.47712954 -0.14266626
  C  1.90179981 -2.75280209 -0.04998719
  C  2.53956747 -3.84361071 -0.60641546
  C  3.75245947 -3.68779225 -1.25686789
  C  4.32471760 -2.43018534 -1.34251384
  C  3.68825090 -1.33467562 -0.79142605
  C  0.87677257 -0.44226089  1.66213912
  C -0.57584186 -0.11831650  1.20741343
  C -0.48004222  1.40695907  1.01065845
  C  1.02668369  1.63712940  1.29858511
  O  1.20827637  0.73702089  2.38519943
  C -1.06444264  1.63855082 -0.40259478
  C -1.62661644  3.03438534 -0.53144501
  O -0.59922672  3.88922641 -0.65062206
  C -0.90648927  5.27513494 -0.73676610
  O -2.77503273  3.37920966 -0.51143739
  N -1.96822997  0.51599945 -0.63153346
  C -3.27987632  0.64743061 -0.01131036
  C -1.15834031 -0.62458840 -0.13379914
  C -0.20503114 -0.83457136 -1.22247502
  N  0.37957938 -1.01463398 -2.18959079
  C -1.91274493 -1.93750782 -0.08502743
  C -2.70663054 -2.27971179 -1.17781461
  C -3.38118960 -3.48462200 -1.20338591
  C -3.26190345 -4.37041167 -0.14387883
  C -2.46208789 -4.04211607  0.93505634
  C -1.78639609 -2.83227578  0.96604628
  H  2.60131187  1.16627255 -1.77894192
  H  1.88721973  2.64879357 -1.10493077
  H  3.47709550  2.11958923 -0.56752835
  H  0.94719791 -2.88973714  0.43689883
  H  2.08597885 -4.82129562 -0.53308052
  H  4.24678046 -4.54378438 -1.69213603
  H  5.27426717 -2.30146863 -1.84188606
  H  4.15312588 -0.36367931 -0.84089331
  H  0.98301775 -1.32314139  2.28979639
  H -1.27241618 -0.37432284  2.00772690
  H -1.05968822  1.95567032  1.75802707
  H  1.29052705  2.65628230  1.56485328
  H -0.26486447  1.56837324 -1.15141131
  H -0.80547602  5.73233389  0.24924870
  H -0.19069339  5.71575914 -1.42798832
  H -1.92716525  5.41047591 -1.09888414
  H -3.71026768 -0.34039729  0.13337218
  H -3.91953526  1.21902376 -0.67835681
  H -3.23557960  1.16000291  0.95492733
  H -2.79106116 -1.58624504 -2.00059029
  H -3.99555176 -3.73494250 -2.05501505
  H -3.78556884 -5.31452810 -0.16088170
  H -2.35778933 -4.72892318  1.76184264
  H -1.16044363 -2.60545196  1.81645248
