42
opt_min/./Product_2315_opt.xyz
  N -3.18691255  1.48524516  2.76370571
  C -2.77111957  1.48069661  1.70252512
  C -2.26076011  1.39841004  0.33450133
  C -2.30396338  2.73857327 -0.25686686
  N -2.38604256  3.74160935 -0.79131453
  C -0.79698042  1.01951576  0.47709959
  C  0.00511465 -0.06226976  0.41595151
  C -0.30039655 -1.48666055  0.06483219
 Br  1.28389596 -2.44135007 -0.71956411
  C -0.52611917 -2.25781626  1.37575486
  F -1.51321026 -1.71545790  2.10601163
  F -0.84224882 -3.53792156  1.17987251
  F  0.55876927 -2.24457172  2.15877330
  C -1.42408740 -1.69119934 -0.97224769
  C -2.84676726 -1.95962841 -0.48134264
  C -3.63927957 -0.78009057  0.09117548
  C -3.27521779  0.58071264 -0.49561993
  C  1.37370388  0.37500790  0.97660228
  C  2.63531651  0.04661578  0.22333811
  C  3.63482347 -0.70428597  0.82718881
  C  4.81076219 -0.95998255  0.14584117
  C  4.99974351 -0.45365663 -1.12894841
  C  4.01180834  0.31305506 -1.72358434
  C  2.83219444  0.56686799 -1.04976390
  O  1.29914166  1.79286271  0.98118320
  N -0.06147373  2.13320957  0.90385620
  C -0.49522036  3.09693293  1.69885297
  N -0.84918524  3.97074803  2.34974414
  H -1.38975431 -0.83390054 -1.64580736
  H -1.15809069 -2.56466244 -1.56936701
  H -3.38612895 -2.34169294 -1.35184233
  H -2.83995437 -2.76203353  0.25088066
  H -4.69182440 -0.96290272 -0.13310983
  H -3.55129846 -0.74963559  1.17797168
  H -4.17877155  1.19778708 -0.51627678
  H -2.92923445  0.49340274 -1.52561052
  H  1.46040827 -0.00183034  2.01508325
  H  3.48432520 -1.09915596  1.82101489
  H  5.58081815 -1.55288965  0.61440792
  H  5.91801610 -0.65399656 -1.65906101
  H  4.16052667  0.71556253 -2.71397485
  H  2.05927705  1.16477252 -1.50963605
