62
opt_min/./Product_2587_opt.xyz
  C -3.54857661  1.88974900 -1.71880692
  C -2.14495350  1.47761145 -1.38753240
  O -1.31223715  1.36902679 -2.25098778
  C -1.68224764  1.30310747  0.08689736
  C -2.67966486  1.03815790  1.21684770
  C -3.94195889  1.85874417  1.33918302
  O -2.42261663  0.21810703  2.06094093
  C -0.68141875  0.16469394 -0.02484110
  C  0.65590920  0.07834925 -0.12974309
  C  1.76712763  0.83106936  0.59379243
  F  1.49079068  0.65572656  1.95555299
  C  3.14217632  0.20969058  0.38045274
  C  3.99287018  0.63910335 -0.63436782
  C  5.25742622  0.09453125 -0.76742739
  C  5.69819887 -0.87786558  0.11437973
  C  4.86460007 -1.29707522  1.13598233
  C  3.59874052 -0.75451293  1.26868815
  C  1.83080159  2.35051254  0.32875272
  C  1.14106233  3.19635303  1.39996166
  C -0.31008444  2.81422064  1.66917732
  C -1.10883752  2.71829835  0.36944140
  C  1.00182281 -1.15965382 -0.99445389
  C  1.84803844 -0.79773100 -2.22624007
  C  1.63606176 -2.24966293 -0.27036762
  N  2.07045562 -3.19182784  0.20864858
  N -0.29126422 -1.69733214 -1.42162416
  C -1.25030189 -1.21093070 -0.44505405
  C -1.07557575 -2.22025659  0.73363104
  C -1.39825438 -3.64031460  0.35544464
  O -0.61204712 -1.91089917  1.79112778
  C -2.65605501 -1.27191124 -1.02289230
  C -3.77760686 -1.57922222 -0.06494693
  O -2.84789808 -1.14179049 -2.20734110
  H -4.26080809  1.12953362 -1.41500891
  H -3.80622480  2.82692359 -1.23324725
  H -3.61318213  2.01471269 -2.79763648
  H -3.82271267  2.88898720  1.02263468
  H -4.24644682  1.83741705  2.38351339
  H -4.73664089  1.40245274  0.75510829
  H  3.67645997  1.39710405 -1.33524726
  H  5.90158111  0.43757637 -1.56479207
  H  6.68662914 -1.29983855  0.00784431
  H  5.19472580 -2.04906520  1.83499056
  H  2.96139652 -1.08049306  2.07970197
  H  1.42130877  2.54930632 -0.66274524
  H  2.87837945  2.65801114  0.31234097
  H  1.19669412  4.24104280  1.07911079
  H  1.69828288  3.11644100  2.33427086
  H -0.34698513  1.86136082  2.19394932
  H -0.75036121  3.56661681  2.32947728
  H -0.47830184  3.01147631 -0.46976302
  H -1.94897792  3.41890983  0.38577369
  H  1.79324288  0.26984510 -2.42175927
  H  1.45264517 -1.32711821 -3.09160878
  H  2.88657992 -1.08934736 -2.09837288
  H -0.55244846 -1.36371636 -2.35054200
  H -1.76871463 -3.72321345 -0.66076195
  H -2.11260683 -4.05044399  1.06581092
  H -0.47940728 -4.21806465  0.44728730
  H -4.65413308 -0.97962320 -0.30141326
  H -4.06309315 -2.61872032 -0.22855090
  H -3.49136276 -1.45873662  0.97391818
