39
opt_min/./Product_1148_opt.xyz
  F -1.25244300 -0.16215000 -2.56359000
  C -0.66196823 -0.49601036 -1.37136559
  C  0.89658716 -0.55944547 -1.41611006
 Cl  1.57285311 -0.13711892 -3.00764068
  C  1.19169069 -2.02752651 -1.08282720
  C  0.88740821 -2.31512108  0.39201148
  C -0.65280062 -2.25351918  0.45424835
  C -1.05125894 -1.93297947 -0.98976917
  C  0.00935562 -2.70666773 -1.78058046
  C  1.25820576  0.55112593 -0.39430159
  C  2.65152182  0.52635856  0.23044461
  O  3.63775321  0.29721881 -0.42379598
  N  2.63055232  0.81178611  1.54471592
  C  3.85063432  0.87667902  2.31848636
  C  0.88234207  1.84557794 -1.17147805
  O  1.56302290  2.69622077 -1.63592028
  O -0.46725627  1.86450347 -1.12551005
  C -0.86302767  0.69490907 -0.38607959
  C -2.25352280  0.86365505  0.26075922
  N -2.79631216  2.06191604  0.03530742
  C -4.10539804  2.42026735  0.53222102
  O -2.74877785 -0.03018075  0.90830123
  O  0.17164742  0.53498309  0.53840999
  H  2.18675214 -2.32942205 -1.39942885
  H  1.36239346 -1.60619618  1.06429042
  H  1.25323254 -3.31022004  0.64200311
  H -1.07649035 -3.21518205  0.73692953
  H -1.02094425 -1.50944334  1.15413507
  H -2.09126370 -2.14183055 -1.22663873
  H -0.02899365 -3.77579752 -1.59426224
  H -0.02599764 -2.50288768 -2.84771294
  H  1.74379964  0.99422096  1.98925299
  H  3.71636748  1.55028982  3.16029198
  H  4.12694783 -0.11429040  2.68605891
  H  4.65143055  1.23915225  1.67525982
  H -2.29684642  2.74674062 -0.51234267
  H -4.54800663  1.52955043  0.97465415
  H -4.02965895  3.19961746  1.29173698
  H -4.73124477  2.77590318 -0.28488577
