38
opt_min/./Product_5087_opt.xyz
  O  3.08014811 -3.08675688 -1.24217797
  C  2.18952199 -3.55148901 -0.69504050
  O  1.30603457 -4.03169692 -0.15064161
  C  0.12345035 -2.14621446 -2.49730115
  C -0.89411729 -2.19198348 -1.65764817
  C -3.41505275 -3.80726290 -2.81114647
  O -2.84112210 -3.84096604 -3.79843478
  O -3.97601747 -3.75383708 -1.81468222
  C -1.52289608 -0.84512993 -1.47209925
  C -1.45317641 -0.37643937 -0.03216472
  C -0.32905668 -0.61945054  0.74686316
  C -0.26867043 -0.16073026  2.05098061
  C -1.33151080  0.54163526  2.59285995
  C -2.45804380  0.78073698  1.82476482
  C -2.51795454  0.32400567  0.52017984
  N -0.80033855 -0.00613685 -2.43344306
  C -0.60707458  1.38567273 -2.12091880
  C  0.31595545 -0.74368285 -3.01760436
  C  1.70597520 -0.17257236 -2.66705065
  O  1.96678539 -0.34561263 -1.37282286
  C  3.20149392  0.17522909 -0.88961374
  O  2.43267771  0.37880102 -3.44493490
  C  0.15812948 -0.73058260 -4.47000578
  N -0.00514187 -0.72934954 -5.59993709
  H  0.75762924 -2.94959671 -2.82426848
  H -1.25671875 -3.05585955 -1.13024403
  H -2.58316106 -0.86067641 -1.77333908
  H  0.50023441 -1.17004511  0.32945867
  H  0.61045092 -0.35625055  2.64800909
  H -1.28328774  0.89813717  3.61103085
  H -3.29309901  1.32349345  2.24283481
  H -3.39974805  0.51171483 -0.07620575
  H -1.58316249  1.83334883 -1.93523491
  H  0.02711513  1.56034588 -1.23928914
  H -0.15924812  1.87763821 -2.98439432
  H  3.98807715 -0.56764593 -1.03049045
  H  3.05689016  0.38103713  0.16874783
  H  3.46206806  1.08495240 -1.43255415
