32
opt_min/./Product_3784_opt.xyz
  C -2.74917700 -0.14551100  0.74143400
  C -2.63226621 -1.58950880  1.11821630
  C -1.65149759 -2.34087460  0.62112192
  N -0.61896265 -1.84548287 -0.13327246
  C  0.16354549 -2.72562737 -0.95961148
  C -0.32081781 -0.43985345 -0.16378290
  C -1.36654588  0.47670462  0.50979710
  C -1.60444365  1.74060156 -0.36107967
  N -1.76952523  2.86011866  0.35986246
  O -1.69532728  1.68006038 -1.56095054
  N -0.75129125  0.90941219  1.74186290
  N  0.42933008  0.62506151  1.84128749
  C  0.93214121 -0.14207608  0.70787002
  C  1.98627127  0.69890308 -0.01106932
  N  3.23301740  0.52327003  0.47008059
  C  4.37193423  1.24390526 -0.04743857
  O  1.70520784  1.45462337 -0.91206894
  H -3.27076153  0.43025143  1.50906478
  H -3.31198580 -0.05880180 -0.19519473
  H -3.38185035 -2.01433248  1.76271989
  H -1.58772529 -3.40435801  0.82142918
  H  0.68547388 -2.14310739 -1.71895193
  H  0.91394544 -3.27489269 -0.36914683
  H -0.47636244 -3.45538248 -1.46018807
  H -0.16880349 -0.09992057 -1.19769856
  H -1.93833188  3.73465299 -0.11366378
  H -1.55655366  2.87285302  1.34553518
  H  1.37290782 -1.05458402  1.12417858
  H  3.38178628 -0.06818689  1.27263120
  H  4.87053579  1.79922389  0.74812171
  H  4.00474730  1.93643086 -0.80464766
  H  5.08381062  0.55503403 -0.50752420
