40
opt_min/./Product_4988_opt.xyz
  C  1.34686700 -1.30463800  0.33758400
  C  0.17385304 -0.77246207 -0.48406073
  C -0.06977084  0.75400580 -0.35952317
  N  1.04074778  1.54504529  0.04751607
  C  0.92921170  2.97386943 -0.13709350
  C  2.24634502  0.98939788  0.33429098
  C  2.48933237 -0.33061167  0.40158168
  C  3.79870760 -0.94580774  0.64938386
  N  4.88690061 -0.10557661  0.72596334
  O  3.92685695 -2.14510839  0.82865677
  C -1.42396028  0.74250219  0.47739669
  C -2.25189744  2.01861421  0.63920807
  N -3.51184945  1.86570124  0.21226334
  C -4.49665681  2.91071313  0.35649874
  O -1.80450964  3.03813560  1.11554184
  O -2.10440447 -0.26630058 -0.26415315
  C -1.21318437 -1.30797866  0.01190535
  C -1.71548343 -2.65890443 -0.52269640
  C -0.97922709 -3.84242661  0.00773159
  O -2.65396516 -2.70058044 -1.26740227
  O -1.15053638 -1.30973491  1.44506921
  C -1.16788538 -0.00383103  1.79678828
  O -1.02619330  0.41736731  2.89716411
  H  1.03364177 -1.50188483  1.36753926
  H  1.71842221 -2.24831375 -0.06813399
  H  0.33104092 -1.03637785 -1.53284305
  H -0.42975906  1.13818090 -1.33179733
  H  0.75835083  3.21367693 -1.19187538
  H  1.84685146  3.44984492  0.20075990
  H  0.10791122  3.36528097  0.46287083
  H  3.03755392  1.71115264  0.47670310
  H  4.88153686  0.74332191  0.18399572
  H  5.77021923 -0.60012969  0.69627742
  H -3.79512848  0.96629040 -0.14691625
  H -5.31679175  2.73575109 -0.33565535
  H -4.88682400  2.94387898  1.37738230
  H -4.02928199  3.87229504  0.13945862
  H  0.09070124 -3.66657868  0.03833104
  H -1.30715231 -3.99775764  1.03705036
  H -1.21825103 -4.72252796 -0.58483465
