50
opt_min/./Product_1346_opt.xyz
  C -2.98882573 -1.52698489  2.85666273
  O -2.15558059 -1.35812536  1.71464776
  C -1.05908438 -0.60987795  1.84821094
  O -0.75358426 -0.07986780  2.88516208
  C -0.29597726 -0.44070087  0.54002790
  C -1.24713345  0.21724220 -0.49762905
  C -1.00342941 -0.60251551 -1.77884947
  C -1.81684683 -1.89341736 -1.61156676
  C -1.01839004 -2.65281650 -0.52875406
  C  0.15628571 -1.71307213 -0.21376937
  C  0.41078875 -1.15381427 -1.61804457
  C -0.95237261  1.73422422 -0.44088960
  C -2.04448681  2.47144758  0.37506997
  C -0.97070488  2.28034042 -1.88532658
  C  0.35289853  2.63338538 -2.48506128
  O -2.01576107  2.39209465 -2.47838470
  N  0.37385418  1.83641484  0.13286224
  C  0.77528140  3.06817800  0.76960733
  C  0.83641457  0.61142321  0.75707673
  C  2.23951018  0.28934628  0.11545384
  N  2.90418161 -0.72544931  0.69435439
  C  4.23837786 -1.10329833  0.29133511
  O  2.69530222  0.97066821 -0.77518034
  C  1.27966121  0.80638847  2.13705436
  N  1.85646691  1.01210198  3.10665978
  H -2.51306475 -1.08797800  3.73474524
  H -3.14415294 -2.59537722  3.00218907
  H -3.94316898 -1.03642202  2.66329325
  H -2.28704229  0.05710820 -0.21639457
  H -1.20134223 -0.06215274 -2.70030632
  H -1.84322967 -2.45361054 -2.54608874
  H -2.84475174 -1.70227565 -1.30861122
  H -0.61538890 -3.58512484 -0.92635298
  H -1.62025892 -2.89958957  0.33993252
  H  0.98109613 -2.22762142  0.27567337
  H  1.19238767 -0.41298760 -1.71489649
  H  0.61081373 -1.95290367 -2.33101193
  H -1.65392988  2.80014225  1.33308339
  H -2.40598830  3.34003033 -0.16961600
  H -2.90089506  1.83151628  0.56977986
  H  1.05463391  1.81244096 -2.36326075
  H  0.22838923  2.88572021 -3.53479181
  H  0.78186080  3.47870382 -1.95471945
  H  0.42955875  3.16517650  1.80753424
  H  0.39351583  3.90800674  0.19391483
  H  1.86544415  3.11392908  0.77051036
  H  2.52257513 -1.17543202  1.51166846
  H  4.55957866 -0.40564025 -0.47996481
  H  4.24423508 -2.11770539 -0.11221320
  H  4.92080986 -1.04743629  1.13930292
