63
opt_min/./Product_2729_opt.xyz
  C  3.38487500 -3.67507300 -1.66827600
  N  2.13999142 -3.20743877 -1.10131739
  C  1.91947540 -1.88891996 -0.94997142
  O  2.71377180 -1.05806528 -1.32221779
  C  0.47444353 -1.51558382 -0.48207477
  F -0.11995226 -1.62558205 -1.75594703
  C  0.39938913 -0.07717479 -0.00696243
  C -0.62634038  0.81555851  0.07905726
  C -2.13150334  0.73905362  0.08899326
  C -2.65659444  1.82315871  1.05933804
  O -3.35847714  2.75423324  0.73558264
  N -2.28493799  1.62384748  2.34511774
  C -2.66769590  2.53370007  3.39968390
  C -2.67110016  0.96668657 -1.34489627
  O -1.95796353  0.84190422 -2.31778362
  N -3.98158822  1.23422468 -1.41671278
  C -4.62891668  1.46748127 -2.68479202
  C -2.60125129 -0.62897827  0.63597195
  C -2.51318004 -1.73681643 -0.41353811
  C -1.64896695 -2.91456571  0.03307278
  C -0.23062299 -2.50529745  0.47564255
  C  0.02121035  2.16763574  0.27752111
  C -0.15358367  2.88617955 -1.07985750
  O  0.92065480  2.73372810 -1.82533376
  C  0.88381521  3.24415296 -3.15288841
  O -1.14945697  3.48496083 -1.37371282
  N  1.37808401  1.91600398  0.60682157
  C  1.59939324  0.65790207  0.45588688
  C  2.86468194  0.10989643  0.94373872
  C  2.91314589 -1.07796390  1.66985928
  C  4.11719226 -1.54534595  2.16296081
  C  5.28411909 -0.83365844  1.94212917
  C  5.23745900  0.36302696  1.24569517
  C  4.03625711  0.83687902  0.75560223
  H  3.25671177 -4.68516241 -2.04739398
  H  3.67822206 -3.00667385 -2.47797142
  H  4.17640091 -3.66437898 -0.91481870
  H  1.42591746 -3.88686385 -0.90693686
  H -1.65920224  0.87498757  2.58700459
  H -3.47179965  2.10969712  4.00629770
  H -1.81213419  2.75097730  4.03782713
  H -3.02335533  3.45259774  2.93635951
  H -4.50584424  1.42209692 -0.57886275
  H -3.86037124  1.71508686 -3.41572481
  H -5.15912757  0.57149959 -3.01882208
  H -5.33038000  2.29454337 -2.59800310
  H -1.94362959 -0.87737021  1.46898057
  H -3.61528968 -0.56116330  1.03624500
  H -3.50765224 -2.07680633 -0.70355046
  H -2.06120459 -1.33017476 -1.31177587
  H -2.12152615 -3.45639242  0.85555408
  H -1.56354325 -3.59278011 -0.81834932
  H -0.25032889 -2.04102023  1.46445489
  H  0.34939092 -3.42299166  0.58866805
  H -0.42382801  2.82407443  1.02816353
  H  1.78544118  3.83641527 -3.30270090
  H  0.86930070  2.39870998 -3.84063119
  H -0.00964627  3.85384693 -3.29357635
  H  2.00581931 -1.62945389  1.87233703
  H  4.14336270 -2.47200677  2.71968993
  H  6.22552860 -1.20731994  2.31788986
  H  6.14503115  0.92573482  1.08321119
  H  3.98034250  1.76272834  0.20723755
