41
opt_min/./Product_4400_opt.xyz
  C -1.71420500 -0.27182100  1.42245400
  C -1.86687343 -1.66898617  0.92487272
  C -1.26502071 -2.10103715 -0.17591240
  N -0.44855814 -1.32441358 -0.96477653
  C -0.07319814 -1.84101056 -2.25695446
  C -0.19669861  0.05915138 -0.64715004
  C -1.16457495  0.70900294  0.37008241
  C -2.33200124  1.44857377 -0.29531807
  N -2.01111076  2.16671426 -1.41434663
  O -3.46557772  1.40785032  0.11796662
  C -0.22859174  1.68783238  1.09111173
  N  0.93262005  0.84821506  1.29173875
  C  1.98148878  1.45100557  2.08386007
  C  1.23290758  0.28988089 -0.02415575
  C  1.94455031 -1.07860689  0.05512482
  C  1.82296150 -1.82329295  1.35136897
  O  2.53372851 -1.51443578 -0.90047775
  C  2.21156883  1.18410648 -0.83532632
  C  1.96389236  1.52370459 -2.28513945
  O  3.21482787  1.58574850 -0.30096737
  H -2.68353120  0.10377833  1.75971805
  H -1.03327657 -0.26937608  2.27972147
  H -2.47766884 -2.33415190  1.50965562
  H -1.39185115 -3.10917014 -0.54366895
  H  0.44270701 -1.08197015 -2.83746317
  H  0.61178822 -2.68779185 -2.15241136
  H -0.95311963 -2.17239882 -2.82044945
  H -0.27982787  0.59582138 -1.59553914
  H -1.09330348  2.56650979 -1.51542940
  H -2.76704704  2.72260052 -1.79025823
  H -0.63126787  2.02433376  2.04489619
  H  0.00610309  2.57689921  0.47513406
  H  1.62905291  1.49838621  3.11658882
  H  2.24772185  2.46356146  1.75549112
  H  2.87515086  0.83527690  2.03983108
  H  1.27247299 -2.74271432  1.15465168
  H  2.81618556 -2.09806481  1.70139528
  H  1.29768101 -1.23760322  2.09583299
  H  2.90134510  1.36762167 -2.81606519
  H  1.18591034  0.94584960 -2.76612662
  H  1.72683935  2.58585400 -2.35595388
