49
opt_min/./Product_2314_opt.xyz
  C -4.67229996  1.06112289  0.67504090
  N -3.51116757  0.24754589  0.39991769
  C -2.41212055  0.76737585 -0.19647426
  O -2.35578811  1.91382232 -0.56126892
  C -1.29364208 -0.28722206 -0.35349090
  C  0.09991786  0.13337823 -0.92095717
 Br  0.36831606  2.06439608 -1.10866364
  C  0.09112352 -0.53959583 -2.30539609
  C -1.03286322  0.04686707 -3.17251003
  C -2.31096483 -0.60239232 -2.60930018
  C -1.77807722 -1.34575586 -1.38072695
  C -0.47678492 -1.91254995 -1.94784540
  C  1.18675187 -0.46697615  0.06450478
  C  2.15987448 -1.47734802 -0.57863655
  C  2.58509668 -2.65615173  0.26533376
  O  2.68592365 -1.26921064 -1.64297704
  C  2.18418708  0.56372323  0.62120516
  C  3.17809329  1.11243991 -0.18153759
  C  4.06758142  2.03510887  0.33576177
  C  3.98347544  2.41976293  1.66225388
  C  2.99975818  1.87426650  2.46689713
  C  2.10865032  0.94856516  1.95385430
  N  0.43979834 -1.03897726  1.16568610
  C -0.98467705 -0.84788781  1.06662804
  C -1.70926323 -2.07285708  1.35583489
  N -2.26239381 -3.04901232  1.57663092
  C -1.36596870  0.13166364  2.09800658
  N -1.59825221  0.85832427  2.94780047
  H -5.49720574  0.79946198  0.00845636
  H -4.98375972  0.92422562  1.71004697
  H -4.39389179  2.10048074  0.50789888
  H -3.56014319 -0.72254002  0.66622329
  H  1.06235425 -0.51748983 -2.79028345
  H -1.07310247  1.13176337 -3.09852256
  H -0.87637851 -0.21199059 -4.21912608
  H -3.08161567  0.13106707 -2.38222796
  H -2.73547802 -1.32074230 -3.31320124
  H -2.47197374 -2.07681339 -0.96477119
  H -0.64369355 -2.53598235 -2.82485821
  H  0.11196983 -2.48278305 -1.23150031
  H  2.98814095 -2.29455320  1.21175210
  H  3.37197587 -3.18354799 -0.27027974
  H  1.77487106 -3.35562423  0.46594803
  H  3.26014179  0.82388122 -1.21812889
  H  4.82678179  2.45547912 -0.30617583
  H  4.67771198  3.14207157  2.06469881
  H  2.91569031  2.16953376  3.50211024
  H  1.34056241  0.54226960  2.59190315
  H  0.73318485 -1.95029981  1.47812533
