48
opt_min/./Product_1081_opt.xyz
  C  2.64052208  2.14974049  3.20391050
  N  2.26858225  1.25572336  2.12943451
  C  0.98952092  0.83025861  2.00349052
  O  0.15138680  1.08298935  2.84110853
  C  0.73953718  0.05069663  0.69739004
  C -0.65433395 -0.64956356  0.48449809
  C -1.59681035 -0.68674954  1.69339447
  C -0.22037690 -2.11619463  0.21822676
  C  0.49095259 -2.30847410 -1.12418708
  C  1.84465055 -1.61390509 -0.90142673
  C  1.74823418 -1.11619691  0.54691975
  C  0.95855072 -2.25565674  1.18698750
  C -1.29253070  0.12287207 -0.72368525
  C -2.15050416 -0.75053139 -1.64969599
  C -3.35419976 -1.44965646 -1.07115508
  O -1.89613223 -0.87681762 -2.82230095
  C -2.17268790  1.30015243 -0.24025926
  N -0.11141290  0.60557804 -1.44685593
  C -0.23064763  1.42305968 -2.63598791
  C  0.81470365  1.09896267 -0.44869259
  C  0.51997202  2.45521570  0.04289890
  N  0.37234255  3.53529994  0.38730917
  C  2.17124522  1.28172419 -0.94513412
  N  3.24527014  1.51203669 -1.26716164
  H  2.39047699  3.18479303  2.95531363
  H  2.08343033  1.86447803  4.09455699
  H  3.70851440  2.06617589  3.38859739
  H  2.91904832  1.17546971  1.36345121
  H -1.73448871  0.28306453  2.15317264
  H -1.19863852 -1.34402706  2.46018272
  H -2.56298263 -1.07728755  1.39321370
  H -1.03637532 -2.81975893  0.37624278
  H -0.04472451 -1.88576860 -1.96557998
  H  0.62204525 -3.37436428 -1.31411297
  H  2.67329655 -2.31828930 -0.97734220
  H  2.01893539 -0.82619026 -1.62842315
  H  2.72298508 -0.91419074  0.98856415
  H  1.46189147 -3.21666003  1.10402622
  H  0.71268597 -2.06738075  2.22944100
  H -3.89004761 -0.86648713 -0.33150849
  H -4.02382761 -1.70326253 -1.88987051
  H -3.02062915 -2.37883433 -0.61253837
  H -2.24715733  2.05041099 -1.02543217
  H -3.18105184  0.99060894  0.00541181
  H -1.73762754  1.77535941  0.63384338
  H -0.56350209  0.79534215 -3.45955430
  H  0.75454314  1.82158464 -2.87687982
  H -0.92101720  2.26967846 -2.53562974
