50
opt_min/./Product_5814_opt.xyz
  C -1.28469059  1.53194723  0.02419487
  O -2.49164837  1.67501751  0.10783544
  C -0.69171208  0.38246079 -0.78063832
  O -1.20818462  0.18351615 -2.06436066
  C -2.51846164  0.57598381 -2.42147123
  C  0.84367646  0.52674590 -0.99625181
  O  0.99247762  1.55338635 -1.93318621
  C  2.31277488  1.90755662 -2.32196602
  C  1.50731008  0.91105168  0.32959256
  O  2.42528546  0.29133898  0.81591741
  C  0.94249950  2.12648631  0.93189497
  C  1.84014555  2.91808292  1.81662800
  C -0.36844884  2.41711446  0.75448064
  C -0.99601329  3.60011974  1.41675352
  C  1.23724476 -0.94284272 -1.36937751
  C  1.00131017 -1.17912400 -2.79258778
  N  0.86032221 -1.40350636 -3.90349370
  C  2.74564113 -1.25710811 -1.15773733
  O  3.58395736 -0.69926599 -1.83141275
  N  3.02982775 -2.26683907 -0.31464991
  C  4.40039202 -2.64090702 -0.04527210
  N  0.28512198 -1.73468368 -0.61286197
  C -0.73772703 -0.95504354  0.03817614
  C -2.07839586 -1.75255435 -0.02970907
  N -3.15220716 -1.09691799  0.43962666
  C -4.44632414 -1.74907411  0.46627353
  O -2.09492498 -2.89090783 -0.42636157
  C -0.48221990 -0.69930319  1.44122611
  N -0.28951507 -0.57367837  2.56412939
  H -3.28002969  0.15895934 -1.76268384
  H -2.63899362  0.17045090 -3.42249722
  H -2.61551793  1.66411045 -2.45719025
  H  2.95196232  2.07694413 -1.45199397
  H  2.75779511  1.13989037 -2.95495426
  H  2.19047094  2.83049699 -2.88124599
  H  2.74385399  2.34837314  2.01562706
  H  2.11487118  3.85616645  1.33513156
  H  1.34446644  3.15469692  2.75573226
  H -1.97277693  3.79444767  0.98363451
  H -1.13083894  3.39807721  2.47925793
  H -0.36362507  4.47701544  1.31310598
  H  2.36069720 -2.56692200  0.37578399
  H  4.48833750 -3.72648328 -0.05733880
  H  5.02377965 -2.21057943 -0.82569503
  H  4.72930552 -2.25496590  0.92178432
  H  0.60118126 -2.56412174 -0.14004404
  H -3.11618799 -0.12187571  0.69394950
  H -5.22106751 -0.99994826  0.59805109
  H -4.60168960 -2.28810634 -0.46891565
  H -4.49053373 -2.46868947  1.28554213
