55
opt_min/./Product_5523_opt.xyz
  C  5.50322406 -2.64835592  0.07199773
  C  4.86513797 -1.32790444 -0.24501997
  C  5.78979251 -0.14560420 -0.31195056
  C  3.54062019 -1.22994797 -0.41373819
  C  2.82716901 -0.01287791 -0.70690690
  C  1.49727814  0.07139559 -0.67846160
  C  0.65725415  1.26124096 -1.04738323
  C  1.50625567  2.40862950 -1.60055656
  C -0.38412665  0.81506450 -2.09234926
  C -1.65449724  0.48033140 -1.29588748
  C -2.88524513  0.49552886 -2.20792514
  C -1.64324855 -0.89312851 -0.63635938
  C -2.27616271 -1.06519665  0.58788178
  C -2.31648476 -2.30382260  1.20184567
  C -1.73744143 -3.40091455  0.59002194
  C -1.14262172 -3.25130157 -0.65002185
  C -1.10328401 -2.01063418 -1.26188680
  N -1.67117976  1.50333198 -0.23408495
  C -2.47075820  2.68634669 -0.47789486
  C -0.26756086  1.75022847  0.13838685
  C  0.02513733  1.07955580  1.51706584
  N -0.99055867  1.26641160  2.37898337
  C -0.97434091  0.70548680  3.70816236
  O  1.05971110  0.52829136  1.80415981
  C -0.02541076  3.14060460  0.45169469
  N  0.15260867  4.23101864  0.75397486
  H  6.51332902 -2.69936761 -0.33014046
  H  5.56719136 -2.78200879  1.15303191
  H  4.92216377 -3.47388106 -0.33319247
  H  6.78528433 -0.41634725  0.03028782
  H  5.42286573  0.66728408  0.31184686
  H  5.87006899  0.22348933 -1.33506078
  H  2.93584320 -2.12267040 -0.31991188
  H  3.43013851  0.84593360 -0.95053860
  H  0.92780446 -0.80711343 -0.40742269
  H  2.18677821  2.79255943 -0.84417849
  H  0.87531658  3.23074884 -1.93626954
  H  2.08666010  2.05184617 -2.44874238
  H -0.60973235  1.64227535 -2.76981866
  H -0.01235158 -0.01235870 -2.69130664
  H -2.77742782 -0.30094082 -2.94100047
  H -3.79119327  0.30625076 -1.63625418
  H -2.98619959  1.43703703 -2.74209217
  H -2.74522923 -0.21609341  1.05940223
  H -2.80700988 -2.41375539  2.15832725
  H -1.75881944 -4.36789364  1.07038785
  H -0.70418147 -4.10385030 -1.14786655
  H -0.64398239 -1.92937294 -2.23550107
  H -2.14519973  3.28147407 -1.34276529
  H -2.43213432  3.33474754  0.39870667
  H -3.50723871  2.38831556 -0.62360407
  H -1.84626445  1.68014556  2.04550151
  H -1.48558375  1.37604863  4.39617769
  H  0.06560807  0.58667478  4.00832423
  H -1.45584709 -0.27623507  3.72761531
