37
opt_min/./Product_3755_opt.xyz
  C  0.20091100 -2.64038900  0.24826900
  C -0.39163124 -1.32886165 -0.25661988
  C  0.53718927 -0.54906859 -1.21119473
  C  1.42061236 -1.38934666 -2.12172003
  C  1.30711914  0.30804674 -0.19958856
  C  2.26063098  1.36188186 -0.73304714
  C  2.96088679  2.16992359  0.33436198
  O  2.51578777  1.48485917 -1.90431775
  N  0.29185800  0.80798182  0.71944782
  C -0.19789559  2.15489283  0.47715602
  C -0.68993133 -0.28065320  0.87472268
  C -2.14804983  0.16348332  0.71213215
  O -2.46457470  0.46161906 -0.55716862
  C -3.81595803  0.83069506 -0.79068367
  O -2.95169667  0.20592389  1.60359698
  C -0.54613688 -0.80477154  2.30679745
  H  0.41317777 -3.29321209 -0.59393580
  H  1.11985508 -2.48666297  0.80626670
  H -0.51177823 -3.15201857  0.88963708
  H -1.32473986 -1.57649194 -0.76836320
  H -0.07279277  0.11253436 -1.83331601
  H  2.13881178 -1.97194997 -1.55048307
  H  0.81213625 -2.06240898 -2.72184206
  H  1.97229329 -0.73361638 -2.78940453
  H  1.97059391 -0.36658520  0.36990944
  H  2.86051344  3.23134353  0.11833809
  H  4.02394809  1.93476258  0.29164006
  H  2.57428883  1.95038662  1.32310806
  H -1.21742728  2.18953742  0.09572353
  H -0.16813889  2.71694108  1.41544463
  H  0.42973275  2.66279906 -0.25176885
  H -3.86688396  1.15238926 -1.82731236
  H -4.11189835  1.63691811 -0.11695653
  H -4.47323251 -0.02447572 -0.62179772
  H  0.48752546 -1.06608126  2.50596309
  H -1.19004301 -1.65972389  2.48538482
  H -0.83900495 -0.01330610  2.99151283
