50
opt_min/./Product_5683_opt.xyz
  C -0.63056758 -0.84552474 -1.54868425
  O -0.48336109 -0.46947977 -2.68755000
  C  0.48411744 -0.76083532 -0.49649997
  O  0.89186394 -2.04905439 -0.09608147
  C  1.05317979 -2.99944529 -1.13798831
  C -0.06425384  0.03676934  0.71491354
  O  0.98262170  0.00321571  1.67079939
  C  0.75073947 -0.24134339  3.04244008
  C -1.41502094 -0.47771367  1.19506171
  O -1.83119846 -0.23632782  2.30719251
  C -2.18085634 -1.34144857  0.26394896
  C -3.44327548 -1.91194861  0.81215390
  C -1.84457428 -1.48344596 -1.03643753
  C -2.72463423 -2.17284641 -2.02971491
  C -0.12145522  1.46951309  0.06910013
  C  0.00665588  2.56534407  1.13356990
  C -1.46984359  1.70840734 -0.62684260
  C -1.42164909  2.59406819 -1.82891099
  O -2.48639191  1.22706949 -0.18728871
  N  0.96382366  1.51091610 -0.90236119
  C  1.60242522  0.20308930 -0.97153009
  C  2.87630102  0.24588504 -0.05319890
  N  3.42721026 -0.93694046  0.23799293
  C  4.56929616 -1.03257293  1.11794753
  O  3.33438076  1.32787552  0.24414656
  C  2.11254440 -0.09420033 -2.29139258
  N  2.63750107 -0.33271490 -3.28031639
  H  0.08823428 -3.30266469 -1.55326655
  H  1.68441642 -2.61391650 -1.94332327
  H  1.52874438 -3.86231971 -0.67379650
  H  1.73106196 -0.10633040  3.50019130
  H  0.40316651 -1.26433302  3.21457412
  H  0.04256879  0.45938350  3.48362340
  H -3.45900555 -1.79455081  1.89243668
  H -3.54455393 -2.96232371  0.54660366
  H -4.29431305 -1.37210142  0.39645061
  H -2.80982210 -3.23539175 -1.80186030
  H -3.72527598 -1.74479033 -2.00195231
  H -2.31131870 -2.05076096 -3.02820882
  H  0.96606832  2.46243908  1.63729383
  H -0.04540247  3.54544548  0.66593122
  H -0.79711165  2.47215471  1.86082617
  H -2.39105142  2.61065479 -2.31903639
  H -0.64947322  2.22700761 -2.50141288
  H -1.15158005  3.60413478 -1.52914959
  H  1.68109222  2.18962316 -0.63939152
  H  2.85009353 -1.76131276  0.15257090
  H  4.26472288 -1.29600850  2.13339999
  H  5.25445930 -1.78996715  0.73771706
  H  5.06562587 -0.06409786  1.13424474
