77
opt_min/./Product_3205_opt.xyz
  C -3.60388300 -1.89118400  2.97801100
  O -3.38224497 -1.20281829  1.75481904
  C -2.12122176 -1.13383034  1.33932805
  O -1.21882862 -1.67596957  1.92398555
  C -1.97438314 -0.36963919  0.01088736
  C -2.63818103  1.02723591  0.13681492
  O -2.74796546  1.78526216 -0.78771365
  O -3.20110725  1.22731687  1.32603010
  C -4.00662810  2.39001878  1.47377085
  C -0.47441104 -0.24565138 -0.24223302
  C  0.54772507 -1.07906622 -0.53969065
  C  0.70553974 -2.48820979 -1.05789847
  F  1.53107413 -3.17676869 -0.20862877
 Br  1.82457786 -2.41291386 -2.77745574
  C -0.39305502 -3.47265996 -1.48843301
  C -1.80875549 -3.30649847 -0.97166297
  C -2.49493076 -2.21580296 -1.80115535
  C -2.96174681 -1.02048990 -1.00082991
  C  1.88145254 -0.42143011 -0.08704700
  C  2.97055013 -0.33616859 -1.19572593
  N  4.00420088 -1.19511544 -1.05851654
  C  5.10289481 -1.20569391 -1.99116794
  O  2.90777449  0.49918726 -2.06734698
  C  2.46311238 -0.94208399  1.22474999
  C  3.67521401 -0.37666767  1.63179182
  C  4.28718387 -0.77023979  2.80500003
  C  3.70070164 -1.74002640  3.60255275
  C  2.47233128 -2.25776671  3.23981003
  C  1.85110027 -1.85856261  2.06655819
  N  1.52580420  0.96814051  0.17038936
  C  0.10303452  1.16975825 -0.05682736
  C  0.04237473  1.91631497 -1.39043879
  C -0.54537935  1.39694008 -2.53265009
  C -0.51537370  2.09896137 -3.72439133
  C  0.11028885  3.32939137 -3.79327912
  C  0.72725820  3.84126094 -2.66548804
  C  0.70394774  3.13608220 -1.47821056
  C -0.43990186  1.93988895  1.13224463
  C -0.91688230  3.24290431  1.05638802
  C -1.22066483  3.94690870  2.20975576
  C -1.06305269  3.36219905  3.45329601
  C -0.62019563  2.05220257  3.53864245
  C -0.29817015  1.35473751  2.39085679
  H -4.67944182 -2.02356123  3.06129265
  H -3.22656509 -1.29787725  3.81237005
  H -3.09439184 -2.85714867  2.96981488
  H -5.03760208  2.14721741  1.21000128
  H -3.64181000  3.18749034  0.82611575
  H -3.94213790  2.68371364  2.51874243
  H -0.48878845 -3.43540237 -2.57497560
  H  0.01312604 -4.46455995 -1.27178926
  H -1.82939342 -3.07156305  0.08847168
  H -2.31827629 -4.26373408 -1.09351990
  H -3.37815435 -2.61753020 -2.30341666
  H -1.82427731 -1.88179930 -2.59422587
  H -3.28123752 -0.24973851 -1.70702175
  H -3.84361690 -1.30085640 -0.41949468
  H  3.97279092 -1.91600902 -0.35530881
  H  6.03233060 -1.41343996 -1.46346093
  H  4.95031445 -1.95668407 -2.77185999
  H  5.14943911 -0.22416264 -2.45986328
  H  4.12696734  0.39683027  1.02728030
  H  5.22091870 -0.31408401  3.09910035
  H  4.19944660 -2.08589790  4.49573504
  H  1.98117803 -2.98174818  3.87250748
  H  0.86284630 -2.22520956  1.85487456
  H  1.82180666  1.26441845  1.09186424
  H -1.03154836  0.43445599 -2.50823411
  H -0.94817579  1.66224318 -4.61209926
  H  0.10718873  3.88957409 -4.71648974
  H  1.23234995  4.79567258 -2.71109188
  H  1.23877404  3.51061852 -0.61836346
  H -1.08204948  3.69517226  0.09064960
  H -1.58121746  4.96257215  2.13171848
  H -1.26614389  3.92676707  4.35144585
  H -0.52056176  1.57214481  4.50121027
  H  0.05280775  0.33515240  2.47030266
