47
opt_min/./Product_3032_opt.xyz
  N  0.57277449 -3.55212534 -0.70716934
  C -0.06090421 -2.63125316 -0.94545191
  C -0.95047147 -1.52589357 -1.21969946
 Br -0.93431906 -1.19531139 -3.24047456
  C -0.26560274 -0.25847218 -0.66317344
  C -0.62549949  0.85098559  0.02916519
  C -1.95486282  1.14409412  0.69441852
 Br -1.77833690  1.96295463  2.46873390
 Br -3.07959648  2.36609778 -0.38616872
  C -2.49385719 -0.25767660  0.66510631
  C -3.71713586 -1.10127620  0.91918229
  C -3.16604219 -2.40123113  0.26879642
  C -2.41742312 -2.16059450 -1.07141791
  C  0.56606212  1.76160472  0.24661183
  C  1.05587243  1.72477279  1.61663593
  N  1.63717819  1.64953838  2.60103380
  C  0.26590022  3.19746116 -0.29130884
  C  0.62535815  4.34854106  0.59605957
  O -0.19304761  3.31338415 -1.39089824
  N  1.57032300  1.16343281 -0.62179582
  C  2.93571533  1.63512120 -0.51967923
  C  1.27694709 -0.25885985 -0.71948056
  C  1.65040697 -0.93063029  0.63583338
  O  2.95304329 -1.08004901  0.78827241
  C  3.37805923 -1.55280797  2.06514563
  O  0.83086637 -1.20100472  1.48105056
  C  2.06392160 -0.87701660 -1.87456680
  H -1.69519899 -0.83127195  1.15216859
  H -2.45840988 -0.32458357 -0.41324508
  H -4.60286016 -0.73692359  0.39888064
  H -3.95092007 -1.25810939  1.97035040
  H -3.98313383 -3.08617013  0.03758439
  H -2.50239325 -2.90086733  0.97655162
  H -2.29109440 -3.14763470 -1.53056074
  H -3.09854553 -1.60308655 -1.72174972
  H  0.72213508  4.06239673  1.63949193
  H  1.57268744  4.76085304  0.24826258
  H -0.12723370  5.12826506  0.48823188
  H  3.63177719  0.80284902 -0.59124909
  H  3.12248813  2.13920664  0.43195033
  H  3.13383133  2.33804099 -1.33377529
  H  4.46412200 -1.54828560  2.04056708
  H  2.99454467 -2.56085919  2.23102688
  H  3.00207427 -0.89140633  2.84768874
  H  2.53636439 -0.08324716 -2.44759459
  H  1.45061960 -1.44564497 -2.56075822
  H  2.83163280 -1.54511186 -1.49377516
