46
opt_min/./Product_1408_opt.xyz
  C  5.64541800  1.36561600  0.58574400
  O  4.55784681  0.46461072  0.44797083
  C  3.32417683  0.99913875  0.31602172
  O  3.11355080  2.19138523  0.34448701
  C  2.28401203  0.01162996  0.10251645
  C  2.18158944 -1.33658528  0.16523200
  O  2.95528562 -2.34928305  0.50690224
  C  3.97727798 -2.18539596  1.48189738
  C  0.74187987 -1.62502805 -0.24872985
  C -0.05846100 -1.21737987  1.03446389
  C -0.05069342  0.31434781  0.88790760
  C  0.89875258  0.47136522 -0.33500552
  O  0.46608931 -0.58972128 -1.16206103
  C -1.49564577  0.59672855  0.52132525
  C -2.01645931  1.92720520  0.23836889
  C -1.19318661  3.04663157  0.11857905
  C -1.74019806  4.28750125 -0.15298479
  C -3.10908529  4.43470593 -0.30009409
  C -3.93755500  3.33056631 -0.17018458
  C -3.39826435  2.09033819  0.10130746
  N -2.25317950 -0.42742742  0.51244128
  C -1.55749128 -1.59584837  0.98059530
  C -1.84083364 -2.83989762  0.13599376
  N -2.49613145 -2.56949306 -1.00061500
  C -2.89405011 -3.58414333 -1.94112875
  O -1.46625263 -3.94619747  0.47102170
  H  5.27354429  2.36205488  0.83246564
  H  6.20300436  1.39568211 -0.35162316
  H  6.28539373  0.99334451  1.38575463
  H  4.94685682 -2.36319408  1.01519103
  H  3.96220001 -1.18965392  1.91890437
  H  3.79763865 -2.93445889  2.25605259
  H  0.52012234 -2.60115170 -0.66562159
  H  0.43649201 -1.62504239  1.91477477
  H  0.24540290  0.89929683  1.75834461
  H  0.88405725  1.42514241 -0.85166435
  H -0.12603594  2.96111630  0.25259492
  H -1.09423289  5.14837702 -0.24379734
  H -3.53107739  5.40682336 -0.51001451
  H -5.00763650  3.43999791 -0.27309916
  H -4.02899177  1.22148303  0.20990038
  H -1.91864242 -1.80347720  1.99659178
  H -2.78350414 -1.61200504 -1.15053149
  H -2.72837945 -3.23403310 -2.95987138
  H -2.29062122 -4.47183806 -1.75448066
  H -3.94884336 -3.84421223 -1.81973962
