48
opt_min/./Product_1521_opt.xyz
  C  2.62810900  2.20887500  1.48984900
  C  1.88411959  2.08921636  0.19110178
  O  1.34679113  3.03514943 -0.34197653
  C  1.89086592  0.77611506 -0.49849028
  C  2.57762222 -0.36957808 -0.36783586
  C  3.61364967 -0.78676596  0.61572178
  F  4.68843304  0.02907438  0.59891316
  F  4.09600060 -2.01340199  0.37069285
  F  3.18140575 -0.79689375  1.89077611
  C  2.25959760 -1.18414238 -1.61507667
  C  0.81681670 -1.76093741 -1.51168287
  C -0.00145982 -0.45875210 -1.58341810
  C  1.13083835  0.58826900 -1.80173145
  O  2.05601538 -0.16221236 -2.57293366
  C -0.83249490 -0.43288801 -0.27767560
  C -2.25275432 -0.98177640 -0.59177148
  C -0.94612436  0.97411319  0.26809633
  C -0.52475718  1.32836296  1.54166779
  C -0.69226159  2.62215119  2.00870234
  C -1.25323678  3.59035739  1.19944041
  C -1.64982565  3.25421199 -0.08415331
  C -1.50741580  1.95868080 -0.54012047
  N -0.07547382 -1.32895772  0.60580844
  C -0.72457317 -1.76128351  1.83323210
  C  0.35197261 -2.44316924 -0.22783799
  C  1.37745306 -3.33969754  0.46452488
  H  2.59077859  3.24367144  1.82075702
  H  3.66359069  1.90603148  1.37295178
  H  2.17030590  1.56916630  2.24026051
  H  3.02533495 -1.88468425 -1.93623317
  H  0.67239872 -2.40685918 -2.37867347
  H -0.64248456 -0.41420807 -2.46327815
  H  0.83929099  1.50966584 -2.29510427
  H -2.60500093 -1.61305284  0.21911363
  H -2.96166594 -0.16798127 -0.71188601
  H -2.25405565 -1.57655296 -1.50214426
  H -0.04856058  0.59680535  2.17243996
  H -0.36527364  2.87319346  3.00756503
  H -1.37087070  4.60163820  1.55781655
  H -2.07195914  4.00645425 -0.73368935
  H -1.82464474  1.71376310 -1.54307191
  H -0.00169225 -1.73427684  2.65180582
  H -1.10268136 -2.78691233  1.75152265
  H -1.55617279 -1.10869314  2.09012680
  H -0.52359878 -3.06716942 -0.50049682
  H  1.83517220 -2.81609391  1.29710917
  H  0.90628149 -4.23853017  0.85308431
  H  2.15706497 -3.64089596 -0.22900060
