58
opt_min/./Product_2806_opt.xyz
  C -2.23554000  3.14150600 -0.47359400
  C -1.56934384  2.35860899  0.61790611
  O -1.03184092  2.91241599  1.54244563
  C -1.61305191  0.80177143  0.56600417
  C -1.87532797  0.51594344  2.07903594
  C -0.67722664  0.33657768  2.96007176
  O -2.99984493  0.51030316  2.49717809
  C -0.20200605  0.28119726  0.18974306
  C  0.35981625 -0.95391443  0.02432558
  C -0.30455251 -2.32158230 -0.12315570
  F  0.22343315 -3.24925440  0.75300890
  C -0.12361045 -2.89075626 -1.54521761
  F -0.41157995 -1.94635469 -2.45413158
  F -0.98171325 -3.89588942 -1.76716387
  F  1.08917465 -3.35625244 -1.78616876
  C -1.73695187 -1.93489891  0.17093893
  C -3.13854994 -2.24695999 -0.31895056
  C -3.76705263 -0.88175283  0.06154938
  C -2.90251868  0.38053202 -0.28112857
  C  1.84625308 -0.76064814 -0.18264233
  C  2.81934529 -1.90536521  0.11429173
  N  2.76374925 -2.27899757  1.40483403
  C  3.59299413 -3.34127652  1.92028134
  O  3.57627625 -2.36707038 -0.70125550
  C  1.87482236 -0.11520617 -1.60804217
  O  2.25784348 -0.56251697 -2.63476510
  O  1.33976886  1.10162077 -1.42987876
  C  1.03410577  1.20861275  0.00968342
  C  1.13316177  2.69286343  0.37244795
  O  1.65655951  3.07842472  1.37895792
  O  0.70703371  3.45977086 -0.61331560
  C  0.88419415  4.86446501 -0.43230356
  N  2.05914000  0.42796691  0.65286206
  C  3.41758951  0.95194342  0.64355918
  H -2.06105477  2.70146821 -1.44927334
  H -1.84970398  4.15713619 -0.44382247
  H -3.30690780  3.20184318 -0.29149511
  H -0.47687745 -0.72898627  3.06953443
  H  0.20592369  0.82936637  2.56620139
  H -0.91355118  0.73258315  3.94516876
  H -1.66425891 -1.00175804 -0.34236933
  H -1.78472428 -1.78864138  1.25027799
  H -3.16961232 -2.45131366 -1.38760547
  H -3.63400166 -3.06395543  0.20074605
  H -3.93408508 -0.89944724  1.13852984
  H -4.75610137 -0.74002825 -0.37938087
  H -2.61413428  0.33772079 -1.33523123
  H -3.60912731  1.19864105 -0.16094879
  H  2.11667066 -1.82921989  2.03155105
  H  4.52493912 -2.94648050  2.33225176
  H  3.83187837 -4.01322287  1.09650493
  H  3.05384753 -3.88626434  2.69153518
  H  0.72479380  5.12307973  0.61622818
  H  1.89817314  5.14472509 -0.72392240
  H  0.15628335  5.35587483 -1.07268873
  H  3.67884706  1.44101207 -0.29914257
  H  4.10001331  0.12002351  0.80285712
  H  3.51713330  1.66072000  1.46208596
