47
opt_min/./Product_5573_opt.xyz
  C  1.20392451  0.47926255 -1.50095424
  C  1.24197562  1.07992282 -0.10039891
  C  0.68530703  0.08524134  0.93480893
  N  1.24175036 -1.22068164  0.83212572
  C  1.50179311 -1.95495108  2.04424130
  C  1.71925736 -1.66202048 -0.36593985
  C  1.72949466 -0.93292938 -1.49548201
  C  2.17208050 -1.41613193 -2.81301023
  N  2.62830156 -2.69852330 -2.90125750
  O  2.11756062 -0.71802785 -3.81075897
  C -0.85416320  0.23209107  0.69167450
  C -1.42779143 -0.75299310 -0.33902785
  N -2.28298809 -0.19185724 -1.20072537
  C -2.95214681 -0.94717336 -2.23197431
  O -1.17670086 -1.94666185 -0.29424654
  C -1.63784062  0.02600814  2.01221353
  O -2.01599901  0.96327925  2.67631888
  N -1.79922278 -1.26723643  2.33957279
  C -2.48468054 -1.67481069  3.54318752
  O -1.03091226  1.57635801  0.26442059
  C  0.23746282  2.22299076  0.10208994
  C  0.60320167  2.95274534  1.31322941
  N  0.92632438  3.53479054  2.24124988
  C  0.05636851  3.27867517 -1.01972520
  C -1.01494785  4.26974844 -0.68891181
  O  0.71298234  3.27838130 -2.02043146
  H  1.78803165  1.07549649 -2.20364939
  H  0.17594811  0.47619890 -1.87841842
  H  2.25885252  1.38101878  0.16252755
  H  0.87907912  0.47950312  1.94356320
  H  1.54566173 -3.02086754  1.82302337
  H  0.70166671 -1.78346817  2.76275379
  H  2.45047401 -1.64708889  2.50179226
  H  2.09955982 -2.67145701 -0.32774995
  H  2.78338919 -3.29104816 -2.10843654
  H  2.99850336 -2.98785127 -3.79118630
  H -2.41007019  0.80926851 -1.15934110
  H -3.96264566 -1.22016036 -1.91623574
  H -2.38178754 -1.85971547 -2.40809836
  H -3.00599431 -0.36268997 -3.14790538
  H -1.49742836 -1.98422400  1.69123770
  H -2.87281029 -0.77731953  4.02388227
  H -1.80264826 -2.18706704  4.22534858
  H -3.31188706 -2.34188215  3.29617250
  H -1.86031363  3.77143505 -0.22050777
  H -0.61287825  4.98582770  0.02856551
  H -1.32088682  4.80097242 -1.58841567
