48
opt_min/./Product_5479_opt.xyz
  C -0.51830700 -1.58162600 -1.70592200
  C -1.92863396 -2.08149725 -1.75273844
  C -2.82474606 -1.73621360 -0.82857222
  N -2.56436412 -0.90994924  0.22619287
  C -3.57258956 -0.67039244  1.22417258
  C -1.26994892 -0.33099915  0.37508081
  C -0.13795489 -1.14580692 -0.28100362
  C  0.14621442 -2.39010030  0.58114013
  N  1.25825146 -3.06476728  0.23163215
  O -0.59862688 -2.75262866  1.46031962
  C  1.01787292 -0.10459119 -0.31020204
  C  2.00170200 -0.34189649 -1.46877420
  C  2.27137009  0.82348834 -2.36475711
  O  2.53884470 -1.41482244 -1.62051022
  C  1.80480927 -0.20135197  1.00863643
  O  1.30462085 -0.30430564  2.09319352
  O  3.11790316 -0.08425641  0.79556315
  C  3.97401122 -0.14712828  1.93181607
  N  0.37533601  1.21193520 -0.43131558
  C  0.97015638  2.27923108  0.35139171
  C -1.07579654  1.04991535 -0.28707816
  C -1.75275255  2.17462972  0.48028351
  O -1.83781826  3.27612338 -0.27322155
  C -2.48364677  4.40570424  0.30251175
  O -2.20171623  2.08717673  1.59035550
  H -0.38949011 -0.73140217 -2.38920536
  H  0.16048243 -2.36713238 -2.04633100
  H -2.20092229 -2.74080038 -2.55850609
  H -3.83400456 -2.11835494 -0.86155956
  H -3.09930454 -0.35875455  2.15243914
  H -4.13693365 -1.58402619  1.41267081
  H -4.26698772  0.11957004  0.91380103
  H -1.04832081 -0.23482000  1.44486909
  H  1.90777942 -2.70826893 -0.45894466
  H  1.51626938 -3.86709889  0.77980858
  H  1.34853507  1.35345978 -2.58108650
  H  2.93413324  1.51317871 -1.84504200
  H  2.75943482  0.48372931 -3.27403432
  H  3.41866107  0.11985301  2.83191176
  H  4.78849276  0.55271533  1.75643561
  H  4.36553901 -1.16046075  2.02998015
  H  0.62711768  3.23126588 -0.05248017
  H  0.72144028  2.23198944  1.41935282
  H  2.05262494  2.24043878  0.24368912
  H -1.52872148  1.03835784 -1.29083770
  H -1.75217094  5.01968625  0.83205751
  H -2.92191392  4.96903842 -0.51802932
  H -3.25287869  4.07975338  1.00470215
