48
opt_min/./Product_1563_opt.xyz
  C  0.16669894 -0.55897404  3.45325300
  C -0.19598528  0.53509812  2.49360290
  O -0.12777875  1.69396396  2.81789590
  C -0.60297324  0.16068527  1.04874019
  C -1.54144057  1.22118511  0.39504456
 Cl -2.40049804  2.35721069  1.53375930
  C -2.68882266  0.39197816 -0.17769644
  C -2.23418125 -0.60584985 -1.25067677
  C -1.58947610 -1.73362850 -0.42966189
  C -1.49868905 -1.11871139  0.96937561
  C -2.91518727 -0.52635507  1.03088578
  C -0.64707813  2.12172809 -0.45789404
  C -1.27071078  2.58328815 -1.67770543
  N -1.75302573  2.97852272 -2.63591663
  N  0.60610686  1.41950069 -0.62193486
  C  1.44067245  1.74796206 -1.74895623
  C  0.74161348  0.24777566  0.21939697
  C  1.16127844 -1.06278053 -0.49121845
  N  1.05677312 -1.07087670 -1.84365494
  C  1.52858173 -2.18847190 -2.62711169
  O  1.58637490 -2.01075905  0.12199181
  C  1.95482417  0.52980694  1.19818151
  O  2.53925791 -0.33257926  1.80855297
  N  2.28459221  1.83067269  1.28761975
  C  3.35222616  2.28973674  2.14135980
  H  0.09555878 -1.55630726  3.04150441
  H  1.19922756 -0.39919438  3.75993112
  H -0.45549207 -0.46153428  4.34198129
  H -3.52933017  1.00722290 -0.49538915
  H -1.56605419 -0.14765809 -1.97916844
  H -3.10660388 -0.96723084 -1.79544105
  H -0.66402240 -2.11387596 -0.82850054
  H -2.26550960 -2.58919294 -0.37348927
  H -1.27623875 -1.85135081  1.73733409
  H -3.13507212  0.00243784  1.95394615
  H -3.68461595 -1.27338757  0.84957869
  H -0.44940362  3.03064571  0.14971886
  H  2.33248015  1.12576099 -1.73572238
  H  0.93065310  1.65217139 -2.71671799
  H  1.76339877  2.79480263 -1.66549815
  H  0.63358488 -0.30948289 -2.34009177
  H  1.64065505 -3.04375636 -1.96168280
  H  2.49904287 -1.96734890 -3.07779685
  H  0.81097242 -2.42088415 -3.41286858
  H  1.78174476  2.53447469  0.77290098
  H  3.66522778  1.45554863  2.76752357
  H  4.20596653  2.62808877  1.54910123
  H  2.99892735  3.10741452  2.76913367
