48
opt_min/./Product_5097_opt.xyz
  N -0.68724583  0.15302223  1.35428920
  C  0.53344678 -0.60576528  1.14447005
  N  1.55726138 -0.06057498  2.01140150
  N  0.35467323 -2.01525304  1.44862286
  C -0.85163752 -2.68989181  1.00635567
  C  1.01385832 -0.38910465 -0.36157602
  C  1.72081065 -1.67682584 -0.81586794
  C  1.96698997  0.81175652 -0.44959587
  C  3.12113013  0.76649602 -1.22943219
  C  3.92343216  1.88243999 -1.39615154
  C  3.59136774  3.07903829 -0.79087658
  C  2.45079863  3.14180553 -0.01015370
  C  1.65266297  2.02627846  0.15394749
  N -0.14993108 -0.17782150 -1.21829599
  C  0.12364357 -0.04037172 -2.64207256
  C -1.26802520  0.58088449 -0.78783329
  C -1.19960208  1.97493617 -0.78285899
  N -1.15051756  3.12627258 -0.87969663
  C -2.57328914 -0.00653255 -0.91408128
  C -3.70297997  0.68473896 -0.43470244
  C -4.95809010  0.12410341 -0.50911015
  C -5.13173558 -1.13696954 -1.06563142
  C -4.03182113 -1.82281237 -1.56329138
  C -2.77057094 -1.27252005 -1.49026257
  H -1.45053192 -0.37279935  1.75509902
  H -0.50632268  1.00434107  1.87023017
  H  1.40436648 -0.33217209  2.97692287
  H  2.48241327 -0.35405239  1.73084695
  H  0.52305004 -2.18571530  2.43346630
  H -0.62841559 -3.75344444  0.90474580
  H -1.69834481 -2.58265458  1.69899095
  H -1.14889260 -2.28905507  0.04242420
  H  1.91418372 -1.66554861 -1.88219011
  H  2.66399942 -1.77744175 -0.28445017
  H  1.11022100 -2.53962818 -0.58627856
  H  3.41321301 -0.14778900 -1.72083823
  H  4.80846706  1.80837086 -2.01236182
  H  4.21361956  3.95233612 -0.92171044
  H  2.17012038  4.06735261  0.46944611
  H  0.77798483  2.10406356  0.77173429
  H  0.22830029 -1.02089705 -3.11590550
  H -0.71152278  0.47263995 -3.11679537
  H  1.02877255  0.54597317 -2.83450088
  H -3.56678670  1.66576993 -0.00284645
  H -5.81149085  0.66896376 -0.13095225
  H -6.11449056 -1.57945703 -1.12593993
  H -4.16397441 -2.79460262 -2.01729789
  H -1.92919944 -1.79320270 -1.92241995
