42
opt_min/./Product_1800_opt.xyz
  C -0.53639121  2.90891208 -1.64054641
  C -0.04953209  2.55953575 -0.26183603
  O  0.61614170  3.30861877  0.39910592
  C -0.53337711  1.20434109  0.30310181
 Cl  0.31027042  1.01536440  1.90243349
  C -0.04331685  0.03622592 -0.50212039
  C -0.30357416 -1.27872065 -0.45379352
  C -1.42581588 -2.03202374  0.18314647
 Cl -1.08508131 -2.23381917  1.93061706
 Cl -1.48278824 -3.71374409 -0.47774584
  C -2.81216526 -1.42593204 -0.10252720
  C -3.49330297 -0.63777995  1.01574221
  C -2.70379978  0.53353344  1.59214988
  C -2.04327123  1.41621686  0.53056261
  C  0.76046116 -2.01953042 -1.27307931
  C  1.54485247 -3.06581523 -0.46897960
  C  0.15612152 -2.58095804 -2.47958577
  N -0.29860626 -2.92767040 -3.46813199
  O  1.67971233 -1.01068459 -1.67817763
  C  1.12031752  0.25622024 -1.45544189
  C  2.23014526  1.20113189 -0.96854307
  O  2.71371314  0.81873026  0.19340624
  C  3.69433545  1.67744379  0.77150468
  O  2.59089764  2.15399487 -1.60421971
  H  0.34026949  3.00624165 -2.28287464
  H -1.21928174  2.17777623 -2.05715692
  H -1.00245321  3.89184886 -1.60794864
  H -3.48827482 -2.24506829 -0.35668578
  H -2.71285220 -0.80695499 -0.99708802
  H -3.74556083 -1.31498250  1.83277471
  H -4.43555148 -0.27126163  0.59840944
  H -3.39858869  1.14525939  2.17225395
  H -1.94799916  0.16916035  2.28250881
  H -2.15651443  2.45928283  0.83580409
  H -2.56129961  1.30041439 -0.42255580
  H  1.09807728 -4.05269471 -0.52781043
  H  1.60702565 -2.75303366  0.56974019
  H  2.54906433 -3.10413271 -0.88530925
  H  0.73591077  0.67115118 -2.40730236
  H  3.25503344  2.66217421  0.94433377
  H  3.98259482  1.21354474  1.71093872
  H  4.55200919  1.77701026  0.10527057
