35
opt_min/./Product_3904_opt.xyz
  C -5.03747343 -0.98930251  0.37231473
  C -1.07404510 -44.19570972  12.38642304
  C  6.98210845 -23.93034555  26.90044577
  C  10.28838207 -32.83960958  1.67121145
  C -44.31447473 -103.07176022  4.11275407
  C  7.92960077  0.05192794  17.25827549
  C -27.16874278 -10.35056762  25.11185718
  C  36.97348925  17.48439778 -4.11130670
  C -9.57511752 -4.30661591 -14.15449847
  N -9.12658528 -20.56506522  3.50486519
  N -4.25298262 -41.04235966 -27.42309568
  C -7.92628909 -7.80244643 -23.54332411
  C -10.33874635 -63.09319184  2.68094782
  O -2.27110068 -3.18057070  3.02074929
  C -4.48216972  19.89538322  1.74343421
  O  0.32991987 -10.28430399 -8.15069023
  C  33.67332290  23.15830589 -18.40854678
  N  26.42852454  7.07836000  4.24675079
  H  2.16241389 -15.29210491  3.06905641
  H  3.09745507 -19.75442688  11.48261334
  H  3.18502909 -18.21507405  7.91703113
  H -17.53659390 -18.29958804  20.61907215
  H -15.14040638  3.29565778 -9.86864200
  H  3.51999266  15.52471682 -37.15301560
  H  33.71649877  58.53495548  31.26721814
  H  7.22316213 -45.33266094 -12.68816560
  H -8.02742142  7.06657093 -20.62156908
  H  1.48232342  6.51288237  19.14012441
  H  6.94706443 -0.26931416  1.35338035
  H  39.75129346  2.73641874 -7.08027382
  H  2.55852243  9.87547041 -1.30399579
  H  21.14902630  25.42424200 -11.61479823
  H  16.10730645 -9.68163019  8.21538286
  H  5.66615461 -9.33721813 -2.96801895
  H  8.89366837  26.03759108  12.17786988
