35
opt_min/./Product_3903_opt.xyz
  C -0.70438816  2.95596516  1.38432309
  C -0.71508431  2.02295880  0.17048347
  C  0.10169600  2.62709328 -0.96898649
  C -0.30723244  0.57027118  0.57953457
  C  0.64565683 -0.11170538 -0.34056719
  C  1.72934798 -0.76104292  0.08389278
  C  2.65040011 -1.50287400 -0.76564283
  C  2.42487755 -1.47599023 -2.24809824
  C  3.65179227 -2.19261660 -0.22037574
  C -1.70407757 -0.14047761  0.55461644
  C -1.64916246 -1.43475278 -0.26665835
  O -1.22911741 -2.42944113  0.50626783
  C -1.02407934 -3.69780115 -0.10677532
  O -1.89683309 -1.50948725 -1.43515983
  C -2.16454223 -0.41166272  1.89449229
  N -2.50437213 -0.57061256  2.97422472
  N -2.61372512  0.83815930 -0.07154149
  N -2.09763502  1.90949352 -0.26210143
  H -1.26803366  2.52045915  2.20892928
  H  0.32012363  3.12694560  1.70558530
  H -1.16005623  3.90729460  1.12180098
  H -0.07213395  2.09004644 -1.89789073
  H -0.19891045  3.66119860 -1.11614076
  H  1.16099910  2.59471476 -0.72643834
  H  0.09147837  0.56071609  1.59785394
  H  0.38256008 -0.09953241 -1.38756061
  H  1.95725593 -0.77441762  1.14291467
  H  1.44182680 -1.87641275 -2.49282991
  H  3.17705649 -2.07012741 -2.76046561
  H  2.47567662 -0.45304477 -2.61741218
  H  3.81263306 -2.21410228  0.84449209
  H  4.34280912 -2.76106825 -0.81895646
  H  0.04074536 -3.82285586 -0.31134838
  H -1.36076212 -4.45203917  0.60128134
  H -1.59090533 -3.76054727 -1.03703863
