65
opt_min/./Product_2838_opt.xyz
  C  1.81318700  2.64026600 -0.38040400
  C  1.74529718  1.30967948  0.40556627
  C  1.62965042  1.67289389  1.90351508
  C  0.50030722  0.50780385  0.03222368
  C  0.25601647 -0.79552809 -0.24850841
  C  1.11831808 -1.98403514 -0.65266144
  F  0.36440149 -3.13319877 -0.47122890
  C  1.33543836 -1.97080911 -2.19037377
  F  1.89979849 -3.10433022 -2.60541590
  F  0.21126522 -1.81455921 -2.89102444
  F  2.15028778 -0.97437652 -2.58357330
  C  2.47508912 -2.27493863  0.00304891
  C  2.64724603 -1.64610782  1.38044631
  C  3.53643531 -0.41374310  1.27919249
  C  3.08576339  0.56886195  0.19401051
  C -1.22636677 -1.10933644 -0.07389153
  C -1.39682317 -1.98286570  1.23139351
  N -0.97785731 -1.29174948  2.31959178
  C -1.01669360 -1.85894319  3.64515367
  O -1.88356062 -3.07749986  1.28510669
  C -1.91618780 -1.82068607 -1.26355507
  O -2.17669631 -2.98285219 -1.34252558
  O -2.25771695 -0.90028937 -2.17604468
  C -3.00205632 -1.34018103 -3.30333875
  N -1.80481886  0.18026546  0.20895486
  C -3.23319229  0.37495318  0.10103123
  C -0.84277120  1.24536725 -0.02792882
  C -1.20521853  1.81576656 -1.43993301
  C -0.39969534  1.46363715 -2.65741869
  O -2.22957419  2.44282911 -1.53282428
  C -1.08224793  2.40893645  0.96416228
  O -0.80224311  3.55873454  0.70937610
  N -1.61117855  2.02583710  2.14530892
  C -1.95897341  2.97681828  3.17376309
  H  1.30429653  2.57799813 -1.33101102
  H  1.35331410  3.44903197  0.17737536
  H  2.84435829  2.91567507 -0.57710480
  H  0.87108082  2.42579423  2.07167484
  H  2.57731163  2.09489685  2.22874525
  H  1.40386497  0.80716262  2.52189177
  H  2.56801097 -3.36630928  0.04321874
  H  3.28028805 -1.94334447 -0.65386946
  H  1.67502777 -1.37322625  1.78403946
  H  3.08395785 -2.37245867  2.06778876
  H  3.58236102  0.07811886  2.24779545
  H  4.55730759 -0.72334311  1.04542053
  H  3.87618303  1.31560872  0.11314761
  H  3.04402346  0.07631346 -0.77286735
  H -0.45719796 -0.43908772  2.17918593
  H -1.45409563 -1.15026255  4.34808499
  H -0.01608019 -2.13381798  3.98836638
  H -1.63123968 -2.75551131  3.59765773
  H -3.95027158 -0.80660719 -3.31639941
  H -3.16612237 -2.41628533 -3.23673226
  H -2.42615291 -1.10932738 -4.20007983
  H -3.59211763  1.00801632  0.91439648
  H -3.71475633 -0.59766482  0.18313648
  H -3.53512116  0.83932805 -0.84246306
  H -0.06740719  2.39245138 -3.11838128
  H  0.44956327  0.82367311 -2.45663535
  H -1.06277905  0.98054691 -3.37243691
  H -1.90564154  1.07337566  2.27436898
  H -1.50905237  3.93175823  2.91288126
  H -1.57848082  2.64045045  4.13853805
  H -3.04160202  3.10684434  3.23867043
