50
opt_min/./Product_2105_opt.xyz
  C  3.49327500 -1.71956900  1.88176900
  C  2.17975488 -0.99167004  1.87311942
  O  1.83088170 -0.31076153  2.80425603
  C  1.13718319 -1.28430271  0.75850458
 Br  2.05648948 -1.82441670 -0.92918553
  C  0.32389331 -0.06569794  0.48067840
  C -0.90505942  0.18693759 -0.03754309
  C -1.83723533 -0.59801513 -0.92446925
  C -3.27105416 -0.58408418 -0.34718520
  C -1.75527481  0.13907132 -2.29767591
  C -1.44905721 -2.05875526 -1.24223782
  C -1.55908754 -3.14136256 -0.16338395
  C -0.26554732 -3.52664688  0.54137068
  C  0.36444145 -2.45054414  1.41319945
  N -1.20669935  1.54971885  0.19010382
  C -2.34326221  2.33769069  0.01524418
  N -2.35522480  3.41266310  0.84720208
  C -3.43200660  4.37082280  0.78107967
  O -3.19162392  2.15834710 -0.82954165
  N -0.18702877  2.09775014  1.05339922
  N  0.87241110  1.17628853  0.96352068
  C  2.07341163  1.70056564  0.57143450
  O  2.26692899  2.89578211  0.52251219
  O  2.98846236  0.75099583  0.30639930
  C  4.29781146  1.19688782 -0.02146584
  H  4.26574328 -1.03503267  2.22260678
  H  3.76876350 -2.14016605  0.92254720
  H  3.43118490 -2.51791674  2.62190627
  H -3.33791558  0.00909847  0.56007728
  H -3.97217049 -0.16378232 -1.05975968
  H -3.60860846 -1.58743811 -0.10803408
  H -0.87626671  0.77868148 -2.34920812
  H -1.68466986 -0.57356431 -3.11424278
  H -2.62179531  0.77064021 -2.45391431
  H -0.45850613 -2.09301087 -1.68622826
  H -2.15837618 -2.33908460 -2.02523499
  H -1.90381414 -4.05179658 -0.66320375
  H -2.30985055 -2.88852530  0.58460346
  H -0.50369221 -4.35857009  1.21087654
  H  0.45917557 -3.89549861 -0.18709835
  H  1.06667837 -2.96248374  2.07679859
  H -0.39901817 -1.99293443  2.04700218
  H -1.73887241  3.43421239  1.64380121
  H -3.08127082  5.33392687  1.14472078
  H -4.29127678  4.04940292  1.37739846
  H -3.75075151  4.46151416 -0.25586920
  H  0.16710330  2.98744190  0.65893383
  H  4.95535406  1.06314564  0.83883516
  H  4.64174710  0.59017700 -0.85814188
  H  4.27080140  2.25233325 -0.29602749
