41
opt_min/./Product_4029_opt.xyz
  C  4.70031200  1.54659900  0.32358800
  C  3.39225706  0.83053580  0.49647096
  C  3.04950440  0.37100752  1.88167640
  C  2.57249195  0.66286045 -0.55071211
  C  1.28641179  0.02482340 -0.51100546
  C  0.46283302 -0.04322796 -1.56110683
  C -0.87227556 -0.73508375 -1.52673119
  C -1.84885052 -0.20573911 -2.58249597
  C -0.66823493 -2.27501288 -1.61969667
  C -1.32546086 -2.76020778 -0.34641633
  C -1.48688486 -4.19513415  0.00154990
  N -1.72989862 -1.80337419  0.39259154
  N -1.47521304 -0.61371425 -0.17859228
  C -1.74455230  0.56146057  0.48505964
  C -2.38904240  0.50118666  1.72982808
  C -2.66838897  1.65856636  2.42495315
  C -2.31868421  2.89747384  1.91243533
  C -1.67608312  2.96006578  0.68748530
  C -1.38780226  1.81351654 -0.02486758
  H  4.56710962  2.61434904  0.50243897
  H  5.06919644  1.43727430 -0.69305763
  H  5.44728336  1.17748330  1.01896040
  H  2.11000210  0.80762298  2.21664735
  H  2.94421932 -0.71189820  1.91535430
  H  3.82374954  0.66028279  2.58627289
  H  2.88044003  1.03360768 -1.52077268
  H  0.97407497 -0.39734080  0.43394772
  H  0.76068316  0.37750893 -2.51273625
  H -2.43152248 -1.01379698 -3.01783331
  H -2.55032419  0.48922802 -2.12707531
  H -1.32731539  0.31323691 -3.38037710
  H  0.38896058 -2.53756025 -1.63547963
  H -1.13308306 -2.71087900 -2.50319664
  H -0.81685641 -4.80157458 -0.60467375
  H -1.27379358 -4.36935482  1.05183744
  H -2.50790732 -4.52285403 -0.19001393
  H -2.65729114 -0.46452391  2.12413554
  H -3.16634424  1.59232943  3.38075614
  H -2.53932611  3.79951409  2.46037490
  H -1.39001460  3.91776518  0.27668542
  H -0.86614005  1.88760765 -0.96546770
