44
opt_min/./Product_4474_opt.xyz
  C -0.39273900  0.95165100 -1.62421200
  C -0.31690088  0.60553012 -0.13980091
  C -0.16788850  1.89352392  0.67980192
  C  0.86221208 -0.35250112  0.16862388
  C  2.22779770  0.23931995  0.13292754
  C  3.14648440 -0.11850834 -0.76252272
  C  4.50136782  0.39863656 -0.86403532
  C  4.93558652  1.50824518  0.04847107
  C  5.35019118 -0.13568239 -1.74340021
  O  0.56387619 -0.76829986  1.48748498
  N -0.84047512 -1.01032829  1.55593846
  C -1.05636172 -2.44090572  1.63060604
  C -1.48264697 -0.25905917  0.46072808
  C -2.57680572  0.64293319  1.09029360
  N -3.30277842  1.31182894  0.16607782
  C -4.35631850  2.22868944  0.53391619
  O -2.77995484  0.71951035  2.27683195
  C -2.19133897 -1.18896448 -0.53615689
  C -3.51251155 -1.76166855 -0.08040103
  O -1.74701107 -1.45011688 -1.62697080
  H  0.32680156  1.73846431 -1.83901885
  H -1.37957872  1.30835915 -1.91102718
  H -0.15593332  0.09151304 -2.24377505
  H -0.10392562  1.66231532  1.74072783
  H -1.01686397  2.55442926  0.51917599
  H  0.73069082  2.42269188  0.37340040
  H  0.80602603 -1.20587475 -0.53076917
  H  2.43928335  0.95239957  0.91285308
  H  2.89124266 -0.86762231 -1.50301302
  H  4.12450196  2.20637132  0.23651129
  H  5.25974649  1.09733720  1.00403367
  H  5.76772947  2.05390349 -0.39018762
  H  5.06215968 -0.94527878 -2.39273743
  H  6.36275589  0.21619500 -1.84089577
  H -0.30788427 -2.82126151  2.32344038
  H -2.04074948 -2.62324074  2.05578285
  H -0.95306666 -2.97062441  0.67401466
  H -3.08889119  1.21695669 -0.81300794
  H -4.22144615  3.18726606  0.03216295
  H -4.30333876  2.37037564  1.61255878
  H -5.33525278  1.82001765  0.27396364
  H -3.83923224 -1.36079741  0.87244538
  H -4.25625610 -1.55715659 -0.84989129
  H -3.42426181 -2.84462495 -0.01011813
