43
opt_min/./Product_5042_opt.xyz
  C  1.37353000 -2.44357600 -0.04006000
  C  0.49367674 -1.26537360 -0.48587161
  C  0.86104054 -0.84294710 -1.91400008
  C -1.01316313 -1.64444703 -0.43369130
  C -1.29386868 -2.68839990  0.62103866
  O -1.69648091 -3.79445273  0.40705088
  C -1.65816652 -0.32315010  0.02445338
  C -1.94031278  0.62492718 -1.17938353
  N -1.67941146  1.90565044 -0.88192050
  C -1.84661711  2.97735776 -1.83215419
  O -2.35454889  0.21718146 -2.23884682
  C -3.00329877 -0.54581834  0.71068354
  O -3.91512635 -1.14335361  0.21071413
  O -3.03994469  0.02806038  1.90783108
  C -4.25783333 -0.11575598  2.62991905
  O -0.72660493  0.21850121  0.92753101
  N  0.57390584 -0.15657718  0.45907009
  C  1.56553321  0.77473585  0.64071963
  C  1.28133064  1.97164314  1.30994664
  C  2.26684853  2.91284990  1.52687877
  C  3.56317682  2.69128600  1.09493584
  C  3.86046268  1.49759143  0.46018692
  C  2.88474187  0.54653596  0.23635157
  H  2.39573345 -2.31880550 -0.38495930
  H  1.38645460 -2.52625170  1.04306136
  H  0.99110466 -3.37010060 -0.45956298
  H  0.84460480 -1.71722069 -2.55804765
  H  1.85350402 -0.40444267 -1.94642509
  H  0.15518756 -0.11701750 -2.30588034
  H -1.40146121 -1.96786796 -1.40033370
  H -1.08262722 -2.33577143  1.64944863
  H -1.29828268  2.12384369  0.02797377
  H -0.87991599  3.40826841 -2.09978020
  H -2.31618305  2.56219197 -2.72130572
  H -2.48353413  3.75643443 -1.41284884
  H -5.10060952  0.21916850  2.02276873
  H -4.15066082  0.49871732  3.51932272
  H -4.41198341 -1.16155586  2.90089677
  H  0.28360312  2.14557892  1.68081864
  H  2.01756287  3.82854576  2.04340950
  H  4.33163578  3.42952856  1.26286649
  H  4.87043521  1.29627804  0.13466628
  H  3.16138054 -0.38011309 -0.23643175
