58
opt_min/./Product_2444_opt.xyz
  C -0.76370281  4.58633197  1.82142122
  O  0.61328556  4.25724528  1.85992861
  C  0.95366009  2.97438001  1.88958371
  C  2.19958263  2.44946183  1.94482570
  C  3.44334585  3.06440180  2.05065746
  N  4.48513241  3.53638957  2.15791004
  C  1.98358936  0.94823016  1.78136745
  C  1.63817345  0.73962361  0.28470991
  C  0.24211234  1.39003984  0.21914593
  C  0.03436810  1.77353030  1.70531215
  O  0.72538145  0.76338332  2.41490773
  C -0.70729111  0.33227773 -0.37393811
  C -0.99418993  0.74089172 -1.85769426
  C -1.62775322 -0.25935662 -2.77762626
  O -0.86239391  1.89289501 -2.19014199
  C -2.05798882  0.38149835  0.32632119
  C -2.39880899 -0.55603726  1.29461562
  C -3.60762222 -0.47379215  1.96328486
  C -4.49545441  0.55073140  1.68178677
  C -4.15643337  1.50016680  0.73362261
  C -2.94684044  1.41934078  0.06520858
  N -0.01610341 -0.91514330 -0.12386830
  C -0.47465770 -2.17549989 -0.65953221
  C  1.42594626 -0.71991230 -0.17982705
  C  2.09308923 -1.74269359  0.75872746
  N  1.40899405 -1.93029004  1.89166385
  C  1.87321393 -2.79625235  2.94583142
  O  3.12363408 -2.34668637  0.49893050
  C  1.86092056 -0.76392405 -1.67251468
  O  1.32090585  0.00731639 -2.44945012
  N  2.73311190 -1.70780949 -2.03230712
  C  3.27106934 -1.78254001 -3.37064925
  H -0.79871595  5.67009953  1.72517344
  H -1.26612158  4.28851934  2.74742311
  H -1.26568895  4.12334017  0.96959888
  H  2.75192629  0.30948369  2.20733318
  H  2.37265000  1.23323703 -0.35089073
  H  0.21831171  2.27251335 -0.42412521
  H -0.98905386  1.86871511  2.05720195
  H -2.02862205  0.27772888 -3.63443336
  H -0.87161373 -0.95484758 -3.12927637
  H -2.42021612 -0.81035249 -2.27749983
  H -1.71090146 -1.34960924  1.54082182
  H -3.85126178 -1.21083116  2.71431746
  H -5.43811378  0.60854835  2.20468255
  H -4.83302360  2.31132992  0.50818307
  H -2.70294125  2.17864953 -0.66318462
  H -0.09950087 -2.97856093 -0.01927057
  H -1.56111130 -2.21042973 -0.64457213
  H -0.12400565 -2.37572103 -1.67873519
  H  0.63759286 -1.30650332  2.09552796
  H  1.09039493 -3.50496645  3.22002007
  H  2.74402974 -3.33833075  2.57903892
  H  2.15138909 -2.21962264  3.82981095
  H  3.22161846 -2.19600793 -1.28213189
  H  2.75323667 -1.05063741 -3.98954494
  H  4.33986629 -1.56329555 -3.37098062
  H  3.11273185 -2.78306498 -3.77678200
