36
opt_min/./Product_586_opt.xyz
  C -2.79753000 -2.26163600  1.83914100
  O -1.90890633 -1.45567527  1.07655807
  C -2.45830349 -0.45432465  0.40561904
  O -3.63009884 -0.19624998  0.38363381
  C -1.39613862  0.29104103 -0.40671282
  C -1.01850690 -0.65088124 -1.59568150
  C -0.78237272  0.03600887 -2.91239277
  O -1.11019845 -1.84178721 -1.47217764
  C -0.19210211  0.78442786  0.45394768
  C  1.15953751  0.32734812 -0.07523681
  O  1.29054685 -0.33528960 -1.07276016
  O  2.14457443  0.81806534  0.64581970
  C  3.46416357  0.50213642  0.22594086
  C -0.35656828  0.45546955  1.94722875
  O -1.25175993  0.88386664  2.62172318
  O  0.57796427 -0.38102553  2.36111806
  C  0.50568492 -0.80309035  3.71658032
  N -0.24629623  2.24710746  0.30573892
  N -1.19689782  2.57907483 -0.39865755
  N -1.89694794  1.58356085 -0.87339427
  C -3.14016492  1.80793966 -1.55261850
  H -3.16115010 -1.69334375  2.69866777
  H -2.22180011 -3.12648514  2.15803829
  H -3.64687297 -2.56637631  1.22594700
  H -0.08684049 -0.56960302 -3.48914854
  H -0.38845552  1.03869343 -2.79246230
  H -1.72761939  0.08083415 -3.45416134
  H  3.52431310  0.50362494 -0.86338826
  H  3.74008138 -0.48608674  0.60067341
  H  4.11139930  1.26504043  0.65152237
  H  1.00367798 -1.76841234  3.76630727
  H -0.53710842 -0.88589225  4.02883395
  H  1.01712035 -0.07648065  4.35142818
  H -2.97035653  2.45978816 -2.41232519
  H -3.54762684  0.85587016 -1.88193389
  H -3.85801274  2.27954842 -0.88046694
