30
opt_min/./Product_336_opt.xyz
  C  4.64061991 -0.00444270 -0.22119765
  N  3.24041606  0.18099589  0.07966985
  C  2.41198140 -0.85914251  0.10693952
  O  2.72659012 -2.01591402 -0.10730000
  C  0.97081691 -0.56190537  0.44231178
  C  0.16846226  0.54470468  0.50606328
  C  0.49408270  1.95309143  0.30583897
  C -0.58919628  2.95900446  0.54552249
  O  1.61504694  2.30548214 -0.02815984
  C -1.24291184  0.00417148  0.77933936
  C -2.07846102  0.02098613 -0.54888370
  O -2.56540167 -1.17582058 -0.77811072
  C -3.35115215 -1.37277641 -1.95260760
  O -2.21087139  0.99895389 -1.23153810
  C -2.02988822  0.67819485  1.79569643
  N -2.68780854  1.16740460  2.59016018
  O -1.02999557 -1.33214631  1.21349230
  N  0.26716525 -1.68284437  0.77994200
  C  0.45491782 -2.94560559  0.42162269
  N  0.48677272 -4.05681651  0.14715344
  H  5.10828692  0.96786638 -0.33813917
  H  4.74749599 -0.58075172 -1.14149879
  H  5.13319237 -0.56006096  0.57993019
  H  2.88091668  1.11553007  0.27043514
  H -1.46554862  2.73443228 -0.05776059
  H -0.21193236  3.94452118  0.28521060
  H -0.88202617  2.95140979  1.59385609
  H -4.23797884 -1.92764066 -1.65263432
  H -2.76884535 -1.95698349 -2.66541791
  H -3.62316400 -0.41028533 -2.38796796
