45
opt_min/./Product_4388_opt.xyz
  C  5.55967333  1.46393328  1.64247851
  C  4.56939089  0.89690327  0.67580343
  C  5.15761284  0.16807851 -0.49863877
  C  3.25193970  1.03154403  0.86260538
  C  2.22197262  0.50799086 -0.00588478
  C  0.92148769  0.66432808  0.24119517
  C -0.20309637  0.11375911 -0.58205963
  C  0.12982936  0.13115370 -2.07766365
  C -1.50559240  0.90230854 -0.37434943
  C -2.60798639 -0.12627339 -0.69325722
  C -3.82858851 -0.00113251  0.25121033
  N -4.44200090  1.19584753  0.20726852
  C -5.63154278  1.48167888  0.97347770
  O -4.16524252 -0.91576840  0.97067072
  C -3.13133233  0.06072837 -2.03702619
  N -3.58822994  0.24554365 -3.06972969
  N -1.99575370 -1.43967585 -0.58602375
  C -0.62352947 -1.31451760 -0.09022881
  C  0.22282259 -2.44436860 -0.67442735
  C -0.57268288 -1.42248115  1.43928480
  H  5.06449824  1.95169270  2.48002676
  H  6.19850795  0.66994226  2.03394959
  H  6.20451116  2.18753530  1.14224553
  H  4.76490081  0.55727216 -1.43782164
  H  4.92190966 -0.89605440 -0.44992201
  H  6.24118752  0.27432611 -0.51206264
  H  2.89467808  1.56873854  1.73314500
  H  2.55818345 -0.02889584 -0.87745482
  H  0.62480600  1.20908150  1.13107529
  H -0.71360906 -0.22462617 -2.66477502
  H  0.36198843  1.15309576 -2.38182069
  H  0.99326840 -0.48503247 -2.30462376
  H -1.60532171  1.22550754  0.66601311
  H -1.56873225  1.78403977 -1.01341824
  H -4.15432834  1.87620500 -0.47911169
  H -5.86871861  0.59676429  1.56092514
  H -6.46498453  1.71891754  0.30906987
  H -5.46255663  2.32464207  1.64779324
  H -2.56170970 -2.02335973  0.02672686
  H  0.09868344 -2.50656727 -1.75122114
  H  1.27096220 -2.28329059 -0.43069497
  H -0.09615619 -3.38873847 -0.23803013
  H -0.95819323 -2.39751104  1.73878460
  H -1.17571143 -0.66298016  1.93364073
  H  0.45288205 -1.33151023  1.79048353
