48
opt_min/./Product_5139_opt.xyz
  C -1.60185698  0.35595895  1.74218103
  C -2.72693871  1.28240920  1.39871762
  C -2.97065898  1.61807087  0.13400782
  N -2.23743890  1.16961641 -0.93226245
  C -2.34904383  1.85030721 -2.19658447
  C -1.05929312  0.38781200 -0.70347656
  C -0.47546861  0.51153831  0.71771268
  C  0.25061167  1.86047345  0.80870801
  N  0.50930677  2.32951667  2.05292351
  O  0.64717479  2.44575070 -0.17647698
  C  0.53732557 -0.67965313  0.75065006
  C  0.72474519 -1.24956465  2.16810261
  C  1.88586481 -0.23104358  0.19085195
  C  2.18299637 -0.31467519 -1.16267505
  C  3.40020505  0.11300704 -1.66219591
  C  4.35422122  0.64320459 -0.81517163
  C  4.07349242  0.73898503  0.53479829
  C  2.85735702  0.30716777  1.03088151
  N -0.14674582 -1.69387780 -0.05040439
  C  0.54303306 -2.89913322 -0.42462626
  C -1.19420492 -1.15032753 -0.90320521
  C -1.15692577 -1.55436219 -2.38433821
  C -2.47486091 -1.63593522 -0.39341493
  N -3.47206539 -2.06162697 -0.02893663
  H -1.25563003  0.53168760  2.76394984
  H -1.96342657 -0.67550689  1.71285133
  H -3.37624832  1.61760891  2.18954487
  H -3.78542643  2.27735026 -0.12534954
  H -1.71265163  2.74451817 -2.23020668
  H -3.38534729  2.14822038 -2.35962056
  H -2.05051009  1.18667961 -3.00782099
  H -0.28359523  0.73873430 -1.39845275
  H  0.90678782  3.25540725  2.10922427
  H -0.00779704  2.00049955  2.84976837
  H  1.59615302 -1.90022591  2.19462769
  H  0.86461822 -0.45965472  2.89978529
  H -0.14561481 -1.83948160  2.44503828
  H  1.46668324 -0.72003253 -1.85592616
  H  3.59672429  0.03507665 -2.72233490
  H  5.30383179  0.98309002 -1.20145166
  H  4.80518722  1.15746806  1.21184240
  H  2.67143294  0.41171504  2.08763850
  H  1.31749250 -3.09705604  0.31264091
  H -0.16184974 -3.73743137 -0.41081034
  H  1.02119440 -2.86397400 -1.41087627
  H -0.28709716 -1.13807339 -2.88882872
  H -2.05531536 -1.18094565 -2.87310733
  H -1.14298703 -2.63771152 -2.48632362
