53
opt_min/./Product_1847_opt.xyz
  C  0.87773919 -2.02592405  0.64842599
  C  0.16562405 -1.13975986 -0.36754404
  C  0.58286522  0.37366422 -0.36336440
  C  1.41978808  0.78614119  0.82634012
  C  2.80916152  0.83494954  0.77898378
  C  3.54358197  1.20250170  1.89326429
  C  2.90591976  1.52602304  3.07710113
  C  1.52386392  1.48215025  3.13593112
  C  0.78898350  1.11766266  2.02312376
  C  1.29326648  0.53870947 -1.73455730
  C  0.25188177  0.60081864 -2.85724690
  C -0.31633127 -0.83171490 -2.86434766
  C  0.52951391 -1.56312638 -1.80913426
  C  1.87351748 -0.85452110 -1.98782364
  C -0.77713524  1.05759263 -0.34769307
  C -0.95596925  2.50170240 -0.43454160
  C -2.25078543  3.01492928 -0.53751048
  C -2.45924957  4.37696176 -0.61607854
  C -1.38122413  5.24816635 -0.58827066
  C -0.09390072  4.74805676 -0.48245727
  C  0.12284662  3.38490918 -0.40777778
  N -1.78546181  0.28400163 -0.27941680
  C -1.37568736 -1.08673947 -0.08611808
  C -1.71940789 -1.44754018  1.37928259
  O -1.86214008 -2.76036253  1.52216243
  C -2.19913607 -3.24346577  2.81818604
  O -1.83949538 -0.64165334  2.25813472
  C -2.14842487 -2.00785894 -0.89491981
  N -2.79815702 -2.75361665 -1.46828378
  H  1.94612596 -2.06628434  0.45420886
  H  0.47960450 -3.03819438  0.59511552
  H  0.74554493 -1.64960687  1.66215857
  H  3.33871040  0.59680915 -0.12992903
  H  4.62193953  1.23471145  1.83152687
  H  3.48178751  1.81004550  3.94540895
  H  1.01137172  1.73236310  4.05299020
  H -0.28766914  1.08205518  2.09172772
  H  1.99285066  1.37248936 -1.76241258
  H  0.74353174  0.83415580 -3.80266825
  H -0.51444934  1.35595848 -2.68956720
  H -1.38275880 -0.84686864 -2.65346216
  H -0.17318845 -1.31053254 -3.83395814
  H  0.53068446 -2.64558051 -1.93671939
  H  2.63401582 -1.16496510 -1.27777094
  H  2.26793103 -0.95977616 -2.99785009
  H -3.07498322  2.31948822 -0.55361640
  H -3.46411497  4.76450845 -0.69722398
  H -1.54480679  6.31417163 -0.64659827
  H  0.74801313  5.42424359 -0.45657710
  H  1.13090345  3.01312948 -0.31554748
  H -3.28215365 -3.35536373  2.89104649
  H -1.85306009 -2.54582104  3.58285930
  H -1.71598699 -4.21193363  2.93063354
