39
opt_min/./Product_4295_opt.xyz
  N -0.03285813 -0.23479998 -1.15662193
  C -1.04801521 -0.29565626 -0.12485136
  N -2.36720982 -0.45777507 -0.74697574
  N -0.81755629 -1.31580764  0.85942843
  C -0.04137168 -2.48699259  0.51078434
  C -1.07503618  1.14417115  0.52416891
  C -2.11241861  1.23483581  1.67165956
  C -3.01765209  2.43060283  1.62181789
  O -2.13400095  0.42387914  2.55805400
  C -1.43370068  2.04405549 -0.56242593
  N -1.70536366  2.76105401 -1.41217433
  O  0.16453980  1.45759005  1.15654559
  C  1.32761211  1.33479372  0.43933222
  C  1.59432320  2.32951229 -0.64772015
  C  2.29133857  0.41976286  0.89828162
  C  2.11899229 -0.29886083  2.10630681
  C  3.05305154 -1.21046495  2.53181368
  C  4.19984566 -1.45304924  1.78187203
  C  4.40009284 -0.75183912  0.59823683
  C  3.47679776  0.16860968  0.16382692
  H -0.43069152  0.16028206 -2.00190297
  H  0.36184159 -1.14211637 -1.37106613
  H -2.42719434 -1.39049937 -1.14871384
  H -3.09942533 -0.39502495 -0.04716715
  H -0.49651773 -0.93127890  1.73886326
  H -0.18756369 -3.20744245  1.31749924
  H -0.43042213 -2.92457467 -0.41243342
  H  1.03650345 -2.30317251  0.40606024
  H -3.66240148  2.44063543  2.49895069
  H -2.41317020  3.33718359  1.59681028
  H -3.62321218  2.40961063  0.71730477
  H  2.59775753  2.73948606 -0.53429503
  H  1.52367139  1.88164084 -1.64021883
  H  0.87573036  3.14649453 -0.59139678
  H  1.24389892 -0.09144839  2.70664727
  H  2.89875768 -1.74065042  3.45973747
  H  4.92897257 -2.17254975  2.11627267
  H  5.29027012 -0.93587629  0.01374092
  H  3.63949143  0.69203143 -0.76548204
