26
opt_min/./Product_392_opt.xyz
  N -4.89456912  1.87550971 -0.18106516
  C -4.19064009  0.97362697 -0.28548820
  C -3.35522292 -0.13892563 -0.33822995
  C -2.34692692 -0.48358441 -1.15587318
 Br -1.63027070  0.42420116 -2.60625444
  C -1.77726456 -1.77005547 -0.58327407
  C -0.98631236 -1.34131876  0.70674978
  C -2.14519067 -0.96144265  1.64309075
  C -3.37568882 -1.24975253  0.70802739
  O -2.92746363 -2.36751306 -0.02862715
  N -1.87210207  0.43427413  1.92175045
  N -0.84795920  0.91863092  1.21879638
  C -0.26376158 -0.02784015  0.57100176
  C  0.90888055  0.13928871 -0.30256405
  N  1.39674762  1.39654594 -0.32858689
  C  2.49737695  1.77917672 -1.17390584
  O  1.37015572 -0.79365954 -0.93770470
  H -1.24111777 -2.41575880 -1.26921427
  H -0.36601682 -2.17426695  1.03260585
  H -2.21710691 -1.53019791  2.57353944
  H -4.32257549 -1.44892935  1.20399866
  H -2.53122956  1.07990190  2.32019776
  H  0.91789293  2.10142685  0.20940508
  H  2.14726375  2.34327474 -2.04346943
  H  2.97788083  0.86462480 -1.52082054
  H  3.20949907  2.38559730 -0.61415967
