40
opt_min/./Product_4266_opt.xyz
  C -1.44723300 -2.38549000 -1.05350100
  C -0.66771750 -1.35425327 -0.25163186
  C  0.80229697 -1.19475295 -0.65663534
  C  1.66629327 -2.41854162 -0.41884352
  C  1.17891693  0.07709475  0.14341367
  C  1.59515026 -0.23784289  1.59083548
  C  0.66631283  0.25349411  2.67781736
  O  2.63576739 -0.78361910  1.84912857
  C  2.41549918  0.77121703 -0.44921075
  O  3.31373433  0.21946944 -1.01922626
  O  2.35363767  2.08100399 -0.20380103
  C  3.43220656  2.88899839 -0.66767118
  N  0.00918953  0.90764313 -0.02930081
  C -1.17254065  0.10674190 -0.33954608
  C -2.32465549  0.32655689  0.64068721
  O -2.26208296  1.53231668  1.22401384
  C -3.31593395  1.87422710  2.11552735
  O -3.20781783 -0.46469358  0.84650488
  C -1.69201987  0.52974152 -1.73139058
  H -1.16678766 -2.36515025 -2.10469714
  H -2.51331142 -2.18899421 -0.96632578
  H -1.24643293 -3.38256459 -0.66992004
  H -0.69748939 -1.65140007  0.80304138
  H  0.84812306 -0.92392042 -1.71733852
  H  1.30734447 -3.24270950 -1.02965923
  H  1.64856631 -2.71755585  0.62623982
  H  2.69670881 -2.19299560 -0.68247725
  H -0.37959093  0.10240942  2.42980470
  H  0.84228820  1.32051839  2.82268779
  H  0.90823078 -0.26335936  3.60456666
  H  3.00497781  3.73936982 -1.19771162
  H  4.06894510  2.30426702 -1.33436762
  H  4.01161403  3.23433564  0.19031910
  H -0.12247172  1.60456473  0.68767591
  H -4.24956089  1.41065350  1.78911828
  H -3.39590480  2.95907889  2.10391258
  H -3.07872188  1.52666603  3.12361149
  H -1.06053919  1.33656506 -2.09404849
  H -2.71555719  0.89682601 -1.68000869
  H -1.66806978 -0.29093757 -2.43856299
