47
opt_min/./Product_5118_opt.xyz
  C -0.40298814 -0.42331476  2.69371474
  C -0.33182771 -0.43713792  1.16405054
  C  0.32982478 -1.74306281  0.71465499
  C  0.45732284  0.80450674  0.63505558
  C  1.26678779  0.48900528 -0.58250516
  C  2.59681306  0.48823219 -0.60835300
  C  3.42238162  0.18316543 -1.76599407
  C  2.74045555 -0.10781857 -3.07160018
  C  4.75317179  0.20936128 -1.66139327
  C -0.70241571  1.75158587  0.22682687
  C -0.37316391  2.89062890 -0.75556921
  O  0.92988720  3.14403124 -0.77284941
  C  1.35659597  4.20749828 -1.62094494
  O -1.20104436  3.48660908 -1.37879175
  C -1.23614583  2.42505073  1.40519807
  N -1.63351758  2.95443863  2.33717536
  O -1.65096383  0.88577414 -0.35466435
  C -1.75451303 -0.22608509  0.52626437
  C -2.30016790 -1.42611079 -0.19502659
  C -2.26077625 -1.52957661 -1.57558868
  C -2.75793653 -2.66077562 -2.20268058
  C -3.29202013 -3.69401299 -1.45500675
  C -3.33966265 -3.59151768 -0.07354999
  C -2.85304757 -2.46086844  0.55364438
  H -1.14421353  0.28385041  3.05912416
  H -0.65838134 -1.41131315  3.06920345
  H  0.55850321 -0.14660635  3.12021703
  H -0.15078958 -2.59623465  1.18826314
  H  0.26088886 -1.87753705 -0.36078753
  H  1.38087248 -1.73789045  0.99624509
  H  1.09158753  1.24523604  1.40641291
  H  0.68464087  0.25542217 -1.46193559
  H  3.14417639  0.73190213  0.29454265
  H  3.47401005 -0.31275920 -3.84666860
  H  2.08207712 -0.96998710 -2.98077818
  H  2.13670117  0.74711843 -3.37860834
  H  5.23191582  0.45356058 -0.72738296
  H  5.40232448 -0.02464382 -2.48890940
  H  2.43327963  4.09882855 -1.72111265
  H  0.86456867  4.13630061 -2.59192726
  H  1.10800510  5.16809156 -1.16637091
  H -2.45835169  0.04292387  1.33139040
  H -1.85078179 -0.71519363 -2.15379546
  H -2.72936407 -2.72984423 -3.27988445
  H -3.67571453 -4.57514639 -1.94672110
  H -3.76300735 -4.39299475  0.51414903
  H -2.89804738 -2.37394829  1.63078560
