50
opt_min/./Product_1433_opt.xyz
  C -3.17983905  2.24690592 -2.29856731
  C -2.15200211  1.22274725 -1.93901764
  O -1.65303887  0.48395910 -2.75261688
  C -1.82504826  0.98488978 -0.44486760
  C -2.07412386  2.13206901  0.53719689
  C -1.49057005  1.91428668  1.91703943
  O -2.72919554  3.10821359  0.29014542
  C -0.31545713  0.60137077 -0.39516901
  C  0.61735067 -0.32570116  0.02309776
  C  0.54406058 -1.64006410  0.85261234
  C  1.90762055 -2.21101906  1.25034137
  C -0.27519796 -2.82802355  0.23344358
  C -1.80770870 -2.72566229  0.45481358
  C -1.93743534 -1.26846908  0.07815999
  C -2.90604838 -0.13301032 -0.09258470
  N  1.87559366  0.10720335 -0.40370757
  C  3.22027310 -0.31368802 -0.34099661
  C  4.00875834 -0.00170077  0.76247364
  C  5.35414763 -0.32062940  0.75667197
  C  5.92338907 -0.91905370 -0.35613656
  C  5.14677586 -1.18980562 -1.47313543
  C  3.80136662 -0.87864019 -1.47343155
  N  1.78087256  1.31676059 -1.17836608
  N  0.39900916  1.64143250 -1.07524134
  C -0.03356446  2.79851613 -1.48746141
  N -0.35821371  3.84666772 -1.84445432
  H -4.08357574  2.11618086 -1.70993715
  H -3.39747202  2.17150289 -3.36112184
  H -2.79044650  3.23870315 -2.07995303
  H -2.24236554  1.43458228  2.54273604
  H -0.59902033  1.29583068  1.89849211
  H -1.26442157  2.88212212  2.35951962
  H  0.07422271 -1.36740780  1.80786237
  H  2.52474959 -2.43881893  0.38906746
  H  1.74475278 -3.14004440  1.79538940
  H  2.44213210 -1.54051271  1.91637058
  H  0.10800705 -3.76347709  0.63778386
  H -0.09634859 -2.83377758 -0.84230511
  H -2.33788639 -3.43173390 -0.18065878
  H -2.06993221 -2.91480933  1.49580285
  H -1.35148016 -0.82433379  0.86859198
  H -1.41454110 -1.23961785 -0.87883907
  H -3.45691741  0.13736480  0.80830508
  H -3.61957763 -0.24839481 -0.90915071
  H  3.56969132  0.49183347  1.62027451
  H  5.96370882 -0.08941381  1.61967808
  H  6.97551565 -1.15965363 -0.35859475
  H  5.59525049 -1.63890014 -2.34826577
  H  3.18220451 -1.07553509 -2.33690263
  H  2.33968844  2.05390309 -0.70832785
