26
opt_min/./Product_181_opt.xyz
  C  4.02485812  0.32923616  0.32657453
  C  3.17554729  1.35973740 -0.35420626
  O  3.60446099  2.38182879 -0.82677449
  C  1.71252077  1.07774273 -0.40551176
  C  1.01567966 -0.06814605 -0.61355346
  C  1.50921351 -1.44861344 -0.88458554
  F  2.02817320 -2.02807610  0.20851170
  F  2.48788925 -1.46052926 -1.81113508
  F  0.54914463 -2.25696321 -1.33893102
  C -0.44230176  0.29380589 -0.62007516
  C -1.00825992  0.05312063 -1.93336500
  N -1.46239324 -0.13208135 -2.96377694
  C -1.43000728 -0.46525007  0.35528482
  O -1.07816882 -1.37685168  1.04983187
  N -2.64622454  0.07241738  0.24480952
  C -3.76239063 -0.37349086  1.04402161
  N -0.48868850  1.68648697 -0.28475721
  C  0.70991640  2.12516937 -0.23973584
  H  4.25656360 -0.46242918 -0.38584316
  H  3.51365988 -0.11582228  1.17621619
  H  4.96344415  0.78035125  0.63916061
  H -2.76981428  0.88208849 -0.35256929
  H -4.62389731 -0.55426659  0.40139194
  H -4.02536490  0.37128623  1.79721729
  H -3.47791823 -1.30104265  1.53718512
  H  0.92636354  3.15460014 -0.01968719
