42
opt_min/./Product_4822_opt.xyz
  C -2.15510693 -0.64948931  1.42388530
  C -1.50920538 -1.28434237  0.19291531
  C -2.30249775 -2.51351986 -0.23912330
  C -0.03195034 -1.65659506  0.46529564
  C  0.11149493 -2.40669070  1.76520936
  O -0.00498332 -3.59820922  1.83762606
  C  0.74781341 -0.33727520  0.27943464
  C  2.08565104 -0.66570312 -0.42149803
  O  3.00762847  0.25168609 -0.15532558
  C  4.27966667  0.06093655 -0.76653286
  O  2.24821776 -1.60185461 -1.15269807
  C  1.10169355  0.41502944  1.58155874
  C  0.68850844  1.85314101  1.66646807
  O  1.73863947 -0.13401635  2.44535954
  N -0.10396623  0.47820106 -0.57822192
  C  0.51373193  1.27380993 -1.61573364
  C -1.32205495 -0.23387405 -0.94884660
  C -1.16464654 -0.89001344 -2.23134849
  N -0.97640394 -1.33184887 -3.26999187
  C -2.48140736  0.78996210 -0.98357612
  C -3.72978854  0.34875500 -1.68843172
  O -2.36753347  1.85343381 -0.43768065
  H -1.60930458  0.23288544  1.74724861
  H -2.17868053 -1.36655918  2.24216911
  H -3.18099872 -0.35214816  1.20801887
  H -3.35368168 -2.27365038 -0.38447055
  H -2.23159284 -3.27619724  0.53501516
  H -1.90878111 -2.93467437 -1.16239763
  H  0.29021655 -2.33369854 -0.33833317
  H  0.28899639 -1.79671121  2.66328495
  H  4.70823042 -0.88996398 -0.44500018
  H  4.90101104  0.89183731 -0.44042832
  H  4.17905030  0.05365939 -1.85344174
  H  0.51729602  2.11644741  2.70955549
  H -0.19033691  2.06706174  1.06591157
  H  1.52116719  2.45927227  1.30811566
  H  1.33580159  1.83987533 -1.18043094
  H  0.89270206  0.68301459 -2.46066286
  H -0.22556354  1.98490057 -1.98752527
  H -3.50480089 -0.20460548 -2.59632737
  H -4.34332904  1.21859876 -1.91737263
  H -4.30156789 -0.30349862 -1.02692918
