43
opt_min/./Product_976_opt.xyz
  C  2.12563600  1.47702800 -3.48098600
  N  1.51556742  1.27793714 -2.18738603
  C  1.69005042  0.14815289 -1.47511420
  O  2.35245597 -0.78660357 -1.85717275
  C  0.94997368  0.17119316 -0.11711461
  C -0.01382541 -1.01965984  0.17651769
  F  0.08963916 -2.04257024 -0.71899100
  C  0.41880319 -1.47627812  1.58564853
  C  1.74190193 -2.23006020  1.45902590
  C  2.73759589 -1.12182107  1.06025927
  C  1.88737609  0.15660659  1.11135369
  C  0.88971132 -0.16966997  2.22355374
  C -1.40021819 -0.31107562  0.11567190
  C -2.21441672 -0.70857808 -1.16523681
  N -2.68986390  0.37167681 -1.81794384
  C -3.50897660  0.25070187 -3.00204740
  O -2.41090735 -1.84525960 -1.48986097
  C -2.35648440 -0.63889384  1.27719607
  O -2.63686957 -1.76741114  1.59326026
  N -2.83201983  0.46582481  1.88486850
  C -3.80085873  0.39749497  2.95355476
  N -1.08898614  1.08935111  0.05371286
  N  0.10952585  1.33771094 -0.07456133
  H  1.35836847  1.58559987 -4.25073437
  H  2.72120946  0.59026593 -3.70174116
  H  2.76421392  2.36034443 -3.47612307
  H  0.98955777  2.03705064 -1.77452133
  H -0.36195606 -2.02149316  2.11000211
  H  2.00045331 -2.66280892  2.42755793
  H  1.70291707 -3.03463039  0.72906909
  H  3.12057557 -1.28918000  0.05608722
  H  3.58388923 -1.05571882  1.74321960
  H  2.45827699  1.07846393  1.20860435
  H  0.11059739  0.58126143  2.35464957
  H  1.37561290 -0.34061452  3.18321725
  H -2.50121974  1.29452608 -1.45116597
  H -2.97197445  0.62009214 -3.87880620
  H -3.73421035 -0.80608974 -3.14039885
  H -4.43474494  0.81469888 -2.88242395
  H -2.52779236  1.37717563  1.57204104
  H -3.94349947 -0.65352581  3.20276107
  H -4.75674615  0.82251828  2.64040158
  H -3.43602881  0.93562186  3.83009011
