51
opt_min/./Product_1982_opt.xyz
  C -0.39775300  3.79964800 -1.69898700
  C  0.29630221  3.20581563 -0.53108905
  C  1.53284086  2.71005092 -0.44117467
 Cl  2.73628638  2.62056781 -1.63723806
  C  1.77655115  2.41621940  1.02608084
  C  0.93350911  1.20088648  1.51126670
  C -0.48778017  1.79615346  1.46160037
  C -0.18440185  3.21980291  0.91100433
  O  1.03000451  3.47246445  1.62189384
  C -1.37609682  0.76636814  0.73290921
  C -2.46385088  0.37490160  1.77102496
  N -2.06102416 -0.54378934  2.64850124
  C -2.88084679 -0.98734631  3.74861439
  O -3.56057622  0.91656259  1.82771055
  C -1.99166104  1.31830972 -0.57201091
  O -1.53036022  1.02390256 -1.66376903
  N -3.01846783  2.16170286 -0.40232383
  C -3.76563236  2.67886691 -1.52691049
  N -0.49969937 -0.35438065  0.47100049
  C -1.01472207 -1.49259781 -0.24778041
  C  0.90091751 -0.14460430  0.75313247
  C  1.88812644 -0.14152089 -0.42692697
  C  1.33159850 -0.23057311 -1.80835894
  O  3.07437286 -0.12836042 -0.18857785
  C  1.25403297 -1.26567123  1.78418271
  C  2.04961970 -2.45666294  1.34304563
  O  0.74376174 -1.21953099  2.88027619
  H  0.25963814  4.52361625 -2.17877748
  H -1.31312885  4.29431214 -1.38995849
  H -0.63808084  3.03080637 -2.43149907
  H  2.81587381  2.41082378  1.34195132
  H  1.23190368  1.02005109  2.54654864
  H -0.87698530  1.94915785  2.47122974
  H -0.93738111  3.96660293  1.14965862
  H -1.10468020 -0.88018152  2.61045930
  H -2.93517810 -2.07601950  3.75902308
  H -2.46419436 -0.64350054  4.69669988
  H -3.87833121 -0.57050119  3.61925646
  H -3.51718091  2.08166692  0.48421329
  H -3.22490681  2.44520673 -2.44231691
  H -4.75799086  2.22714621 -1.57112609
  H -3.87378669  3.75985032 -1.43113181
  H -0.21864449 -2.21081715 -0.42009077
  H -1.43489573 -1.21106767 -1.21645168
  H -1.79995698 -1.98533937  0.33827644
  H  2.03260298  0.20044702 -2.51813909
  H  0.35787851  0.24415690 -1.88831493
  H  1.22170938 -1.28597099 -2.06160068
  H  2.91871156 -2.16275610  0.76353182
  H  1.42570443 -3.10658124  0.73184867
  H  2.36685085 -3.01467892  2.22205652
