55
opt_min/./Product_5869_opt.xyz
  C  1.07863795  1.53025005  0.34212494
  O  0.35360123  2.49835558  0.37836626
  C  0.54328954  0.08675603  0.33978556
  O  0.62332315 -0.41176910  1.65076735
  C  0.29593777  0.47366304  2.70680538
  C  1.45041743 -0.78434904 -0.57832825
  O  0.94035118 -2.07999978 -0.49084143
  C  1.40005668 -3.09154269 -1.37103582
  C  2.91327117 -0.68614408 -0.17647510
  O  3.64487197 -1.64590213 -0.12585539
  C  3.39821266  0.66304191  0.18822789
  C  4.88533377  0.76232975  0.28202260
  C  2.55309098  1.68527419  0.42596049
  C  3.02180798  3.06455225  0.77757882
  C  1.11084553 -0.05086952 -1.91295219
  C  1.56421974 -0.65248034 -3.14843086
  N  1.94733478 -1.01947566 -4.16113180
  N -0.32501898  0.01128461 -1.84119395
  C -0.82187054 -0.01957094 -0.45947552
  C -1.84542412  1.07241885 -0.16196693
  C -1.98943534  2.20371213 -0.95878199
  C -2.95900067  3.15148924 -0.68205428
  C -3.80711983  2.99189710  0.39688700
  C -3.67308077  1.87479248  1.19903138
  C -2.70965559  0.92212400  0.91975039
  C -1.57310899 -1.34704912 -0.29966071
  C -1.57431797 -2.13438967  0.84430742
  C -2.32597874 -3.29605535  0.89615368
  C -3.09484034 -3.68818389 -0.18439594
  C -3.10408552 -2.91046693 -1.32703217
  C -2.35301937 -1.75015948 -1.38034433
  H  1.07669696  1.22693259  2.86359394
  H -0.65261720  0.98686915  2.53000119
  H  0.22434595 -0.16145929  3.58897098
  H  1.21130617 -2.82200957 -2.41301723
  H  0.79885991 -3.96023780 -1.10286422
  H  2.45938143 -3.30559105 -1.22939189
  H  5.25076206 -0.04307040  0.91848338
  H  5.32067665  0.60309553 -0.70670285
  H  5.21405537  1.72087048  0.66778016
  H  3.57320383  3.05993017  1.71737681
  H  3.67979293  3.45471963 -0.00109691
  H  2.16173966  3.72557021  0.86718073
  H  1.61893291  0.94352615 -1.87611920
  H -0.75732913  0.67522420 -2.46183277
  H -1.32315152  2.38789544 -1.78840986
  H -3.04643508  4.02195490 -1.31701674
  H -4.56270284  3.73409484  0.61223769
  H -4.32620781  1.73366810  2.04791244
  H -2.63640361  0.04584494  1.54503289
  H -0.96212036 -1.87294173  1.68761867
  H -2.30537325 -3.89774042  1.79311420
  H -3.67920793 -4.59728842 -0.13862255
  H -3.69875458 -3.20415605 -2.18059778
  H -2.36683568 -1.15602166 -2.28110276
