37
opt_min/./Product_3833_opt.xyz
  C -1.30275100 -1.92720000  1.07986500
  C -0.79917910 -1.14774113 -0.13999974
  C -1.71196547 -1.48883935 -1.32295095
  C  0.74023803 -1.29414529 -0.42788204
  C  1.07769126 -1.71980546 -1.85727856
  C  1.47950921 -2.21013437  0.54804165
  N  1.21376392  0.09523524 -0.22815036
  C  2.52872766  0.51705187 -0.35750377
  O  3.43503584 -0.23570301 -0.64912469
  N  2.68926951  1.83482217 -0.09147265
  C  3.96982084  2.48195621 -0.22148010
  N  0.23221696  0.95043627  0.08825432
  C -0.89464794  0.33810487  0.15054247
  C -2.14892221  1.04493541  0.48238245
  N -1.97217100  2.36438380  0.72270333
  C -3.07490182  3.23684100  1.04062761
  O -3.23408633  0.49569929  0.55924292
  H -1.21340027 -2.99808436  0.91777756
  H -2.35210935 -1.68219020  1.23009841
  H -0.76293093 -1.65696119  1.98399359
  H -1.65009230 -2.54711731 -1.56555622
  H -1.46341552 -0.90702970 -2.20708895
  H -2.73610378 -1.25240224 -1.04407387
  H  2.15827540 -1.75844896 -1.96734174
  H  0.66603847 -2.70320814 -2.06671093
  H  0.68704617 -1.01005234 -2.58321060
  H  2.53710378 -2.21281887  0.29824977
  H  1.09584924 -3.22424440  0.47811172
  H  1.37429766 -1.86092253  1.57273410
  H  1.86845519  2.37928298  0.11851864
  H  4.14286457  2.81958661 -1.24842469
  H  4.01704770  3.33659801  0.45007137
  H  4.74974121  1.76646148  0.03921062
  H -1.04482870  2.74416909  0.62671208
  H -3.56529035  3.59833097  0.13169937
  H -3.80839497  2.67227709  1.61715595
  H -2.71936465  4.08478564  1.62072488
