38
opt_min/./Product_3930_opt.xyz
  C -1.52317461 -1.85708635 -1.90606799
  C -0.68490178 -1.35568706 -0.72731385
  C  0.45994865 -2.33734809 -0.47950889
  C -0.23760476  0.12638874 -0.92331647
  C  1.24497538  0.34238513 -0.81462230
  C  1.90392616  0.37560176  0.34212943
  C  3.33113090  0.58852526  0.50299746
  C  4.15767213  0.83121769 -0.72347812
  C  3.87264503  0.58013876  1.72119417
  N -0.94578877  0.84205126  0.14092149
  C -0.69391875  2.13690734  0.46409641
  C -1.42484558  2.64274041  1.68401439
  O  0.05140466  2.81775343 -0.20621278
  N -1.93154632  0.05883161  0.76263206
  C -3.26750625  0.30816627  0.21815980
  N -1.46304599 -1.25021074  0.51611110
  C -2.09453761 -2.28396443  1.01768902
  N -2.60230864 -3.20951250  1.46943382
  H -0.87397857 -2.03246751 -2.76059115
  H -2.00917502 -2.79436339 -1.64005897
  H -2.28994038 -1.14492334 -2.20365613
  H  0.06060916 -3.34656665 -0.40402846
  H  0.98111965 -2.10216508  0.44399748
  H  1.17186670 -2.30375523 -1.30010948
  H -0.57535949  0.49207731 -1.90097995
  H  1.75435236  0.46842869 -1.75649692
  H  1.35397185  0.25277374  1.26767287
  H  3.78412640  1.70439708 -1.25513713
  H  4.10814471 -0.02621438 -1.39335578
  H  5.19661402  1.00522785 -0.45695220
  H  4.92642321  0.73813775  1.87023480
  H  3.27979496  0.40900991  2.60342125
  H -2.25349371  3.27644931  1.37286095
  H -1.79346790  1.82525605  2.29553529
  H -0.73760952  3.26141769  2.25628179
  H -3.94633506 -0.41732736  0.66296896
  H -3.32130941  0.23863831 -0.87223420
  H -3.56095425  1.30932643  0.52355049
