39
opt_min/./Product_4769_opt.xyz
  C -1.32700545 -1.07741028 -1.17624221
  C -2.72245595 -0.93832674 -0.65094511
  C -3.05391292  0.15007676  0.04235256
  N -2.17216637  1.16304854  0.32498912
  C -2.59016315  2.25465340  1.17354456
  C -0.75077521  0.94564377  0.25171899
  C -0.31603332 -0.46927226 -0.19252366
  C -0.10936126 -1.27723559  1.09486670
  N -0.87320719 -2.37853221  1.23740829
  O  0.67228896 -0.91903618  1.94993918
  C  1.00648007 -0.16663383 -0.98721047
  C  1.21998619 -1.16511335 -2.03005613
  N  1.44395776 -1.96080005 -2.81844484
  C  2.29665334 -0.17504206 -0.17675396
  C  3.01336996  0.98421039  0.07164506
  C  4.19279200  0.93258510  0.79544323
  C  4.67238233 -0.27613999  1.26148908
  C  3.98140916 -1.44383836  0.98135733
  C  2.80632181 -1.39674811  0.25868438
  O  0.72960599  1.06955143 -1.63425330
  C -0.01847547  1.88970069 -0.76387037
  C -0.92759181  2.72276044 -1.52519007
  N -1.62758574  3.40443124 -2.11639290
  H -1.07098543 -2.11916700 -1.38196633
  H -1.24226317 -0.53586613 -2.12780081
  H -3.45766646 -1.68051187 -0.90829542
  H -4.06130495  0.31576407  0.39116083
  H -2.59702169  3.19331098  0.61189586
  H -1.91635159  2.36754028  2.02847147
  H -3.59402320  2.07149280  1.55064007
  H -0.32281583  1.14271426  1.24776763
  H -0.82148594 -2.86249571  2.11737477
  H -1.66516403 -2.54948028  0.64117886
  H  2.67622637  1.93130179 -0.31991004
  H  4.73671673  1.84515053  0.98950452
  H  5.58818168 -0.31212087  1.83254657
  H  4.36118371 -2.39394007  1.32480902
  H  2.27290201 -2.30919283  0.03568653
  H  0.65289840  2.56189543 -0.20352587
