59
opt_min/./Product_2508_opt.xyz
  C -1.89902600 -1.25345500 -2.25761200
  C -0.47413586 -1.09753275 -1.76227800
  O  0.41226389 -1.75798032 -2.22578896
  C -0.21864018 -0.11876989 -0.59983645
  C  1.15331512  0.63331807 -0.76137066
  F  1.66426872  0.47732633 -2.02808082
  C  0.79050955  2.11796906 -0.55139133
  C  0.07624964  2.61830240 -1.80787037
  C -1.24809325  1.83714435 -1.77405053
  C -1.18839930  1.06516050 -0.43969184
  C -0.36931790  2.02443097  0.43254886
  C  2.11699322 -0.00696161  0.27675387
  C  2.68230676  0.97692928  1.33155915
  O  3.16080976  2.05849096  1.03821890
  N  2.65290355  0.49014206  2.57412558
  C  3.19996355  1.20470420  3.69867901
  C  3.32971944 -0.62854095 -0.41009085
  C  4.30518423  0.19284700 -0.96246792
  C  5.39919624 -0.36557969 -1.59586941
  C  5.52457002 -1.74191291 -1.68698773
  C  4.54709245 -2.55686861 -1.14569833
  C  3.44876678 -2.00596852 -0.50816749
  O  1.37814187 -1.02436347  0.94204459
  C  0.00275736 -1.00330134  0.67401141
  C -0.39090143 -2.51024275  0.47278156
  N -1.71899829 -2.73614349  0.43134567
  C -2.26323138 -4.06551300  0.28609441
  O  0.44471800 -3.37269498  0.42604637
  C -0.69553307 -0.55353133  1.96467301
  O -0.10622862 -0.42755156  3.00552809
  O -2.02587479 -0.40907781  1.85263324
  C -2.73480294 -0.05274397  3.03979938
  H -2.22046576 -2.27168964 -2.05120019
  H -1.89487356 -1.14738430 -3.34181324
  H -2.60400243 -0.55703738 -1.82157604
  H  1.65334588  2.71692518 -0.27561861
  H  0.65268351  2.42953081 -2.71015480
  H -0.09043171  3.69217363 -1.72635322
  H -1.32478569  1.17200021 -2.63008938
  H -2.10891653  2.50630573 -1.78719151
  H -2.16746976  0.79761204 -0.04779742
  H -0.07551058  1.60835147  1.39385525
  H -0.86619904  2.98021635  0.58719832
  H  2.16399383 -0.38124145  2.72839778
  H  4.20136047  0.83950860  3.94024037
  H  2.55130677  1.07697888  4.56318302
  H  3.26938902  2.26052145  3.43654880
  H  4.20647066  1.26476821 -0.89042170
  H  6.15507951  0.27687547 -2.02334033
  H  6.38042199 -2.17458641 -2.18517610
  H  4.63062286 -3.63095805 -1.22257380
  H  2.67965255 -2.64283558 -0.10205058
  H -2.34795579 -1.95166532  0.48959493
  H -1.43109979 -4.76571951  0.33412159
  H -2.96710490 -4.27370280  1.09240175
  H -2.77256872 -4.18545808 -0.67286406
  H -2.20644903 -0.42982302  3.91599906
  H -3.72347304 -0.49957263  2.96263761
  H -2.81404249  1.03358402  3.09978199
