38
opt_min/./Product_3932_opt.xyz
  C  2.41422901 -0.39033498 -0.33865391
  C  1.81326774  0.55574265 -1.33076118
  C  2.77664211  1.05379736 -2.36518381
  C  0.54219709  0.94970353 -1.33670922
  C -0.55833732  0.53399267 -0.39002786
  C -0.89823764 -0.96449598 -0.53439984
  C -2.24832980 -1.28841676 -1.14529354
  C -2.26451061 -2.56776084 -1.92364627
  C -3.33965317 -0.56934538 -0.93961949
  N -0.82812720 -1.45275084  0.83122886
  C -0.91054783 -2.71023796  1.16031472
  N -0.97172721 -3.82986994  1.42367339
  N -0.74509683 -0.39790487  1.79511246
  C  0.12459480 -0.77226465  2.89902760
  N -0.23971145  0.71191552  1.02611044
  C -0.14496018  1.92959444  1.63362461
  C  0.11726355  3.09331373  0.70698060
  O -0.19795523  2.06261842  2.83976083
  H  3.31862640  0.04117465  0.08553286
  H  2.69734143 -1.31705934 -0.83712214
  H  1.73396478 -0.62678043  0.46909909
  H  3.25174147  0.21293347 -2.86745463
  H  2.28200474  1.67177521 -3.10801647
  H  3.56350495  1.63931070 -1.89179729
  H  0.21573680  1.62852971 -2.11129553
  H -1.44840212  1.12562446 -0.63475030
  H -0.12019310 -1.46021617 -1.13206841
  H -2.00915389 -3.40134763 -1.26880139
  H -3.24564533 -2.75050372 -2.35060521
  H -1.52876020 -2.54113621 -2.72649878
  H -4.28481351 -0.86724933 -1.35649467
  H -3.35875829  0.32435113 -0.33868610
  H  0.15310021  0.07402444  3.57920080
  H -0.33104498 -1.62535840  3.39610282
  H  1.14030352 -1.03267500  2.58081853
  H -0.72265988  3.23952489  0.03147661
  H  1.01369846  2.92276620  0.11886049
  H  0.24344410  3.98332106  1.31618271
