63
opt_min/./Product_2469_opt.xyz
  C -0.00218000  0.34651000 -0.92298200
  C -1.20092233  0.43504685  0.06016162
  C -2.03688301 -0.82094600  0.18529609
  C -3.35266847 -0.71898441  0.63413033
  C -4.14827942 -1.84001765  0.77802920
  C -3.64236493 -3.09612375  0.48877116
  C -2.32997690 -3.21449195  0.07145399
  C -1.53449260 -2.08964920 -0.07444662
  C -1.99395917  1.62458670 -0.53455044
  C -2.58587630  1.18231268 -1.88331902
  C -1.36368440  1.15149826 -2.82051746
  C -0.21404590  1.52666632 -1.88331364
  C -0.87690815  2.56466926 -0.98057255
  C -0.52721317  0.77243490  1.43144976
  C -1.04987560  2.04698794  2.10886813
  O -2.33669580  1.93204550  2.46376049
  C -2.90253526  3.01975209  3.18285318
  O -0.36978468  3.00075825  2.37392008
  C -0.66540549 -0.32644453  2.50440232
  O  0.83769320  1.01021033  1.17911583
  C  1.26511217  0.43020395 -0.04512697
  C  1.89816513 -0.93834386  0.22791005
  C  2.42425081 -1.18793438  1.48840005
  C  3.02446572 -2.39869418  1.78158307
  C  3.12133708 -3.38037243  0.81135844
  C  2.62222958 -3.13399569 -0.45567707
  C  2.01822331 -1.92332201 -0.74666941
  C  2.37176505  1.30285806 -0.62169555
  C  2.98784355  0.98490860 -1.82616458
  C  4.00718351  1.77563762 -2.32431156
  C  4.42947612  2.89349187 -1.62585708
  C  3.81998970  3.21716073 -0.42708282
  C  2.79923930  2.42830541  0.07257198
  H -0.02221797 -0.57599600 -1.49375662
  H -3.75895175  0.24915463  0.88132936
  H -5.16779131 -1.73126233  1.11949098
  H -4.26374914 -3.97291732  0.59581653
  H -1.91300072 -4.18883934 -0.13947597
  H -0.50909945 -2.22740852 -0.37892284
  H -2.73781121  2.04866846  0.13194398
  H -3.07557709  0.21215074 -1.81261160
  H -3.32634539  1.90761933 -2.22240016
  H -1.22074468  0.17644881 -3.28645805
  H -1.45926972  1.88977403 -3.61766180
  H  0.69192446  1.84816449 -2.39054413
  H -0.22911521  2.89904612 -0.17490080
  H -1.24422536  3.42911792 -1.52868302
  H -2.13653811  3.50005175  3.79387457
  H -3.31588883  3.75000484  2.48379276
  H -3.69328802  2.60687245  3.80522169
  H -0.09915506 -0.01828227  3.38148786
  H -0.25677374 -1.26503571  2.13793395
  H -1.70531924 -0.47356732  2.78008656
  H  2.35823212 -0.41806104  2.24176617
  H  3.41879768 -2.57384491  2.77221898
  H  3.58626946 -4.32871122  1.03689633
  H  2.70279523 -3.88837309 -1.22532549
  H  1.64164596 -1.76247758 -1.74657066
  H  2.67374426  0.12032748 -2.38907698
  H  4.47289202  1.51526375 -3.26379032
  H  5.22779874  3.50793358 -2.01685263
  H  4.13954143  4.08929149  0.12492046
  H  2.31611633  2.68306653  1.00207898
