29
opt_min/./Product_258_opt.xyz
  C  4.58929834 -0.45940338  0.55882508
  N  3.14726185 -0.49414392  0.51732087
  C  2.43920651  0.33797032 -0.27787746
  O  2.94246338  1.18856508 -0.98438899
  C  0.96282346  0.16733360 -0.22439167
  C  0.18681223 -0.90139573 -0.05043219
 Br  0.72239240 -2.66656751  0.29045565
  C -1.28825679 -0.56833779 -0.11015864
  C -1.83304677 -0.54886352  1.33124685
  C -2.08603466 -1.54422976 -0.97101035
  N -1.23710409  0.74126586 -0.75675249
  C -2.34966699  1.63808829 -0.57494512
  C  0.06127993  1.35120622 -0.50431407
  C  0.46052256  2.14158366 -1.65741605
  N  0.65324028  2.81701849 -2.55820965
  H  4.92122049  0.27309982 -0.17519149
  H  5.00061857 -1.43943733  0.30979572
  H  4.93985568 -0.16317813  1.54939365
  H  2.68136074 -1.15572460  1.11668973
  H -1.31159385  0.19746928  1.92854497
  H -2.89527672 -0.31755832  1.32795631
  H -1.69291520 -1.52375143  1.79227193
  H -1.64905427 -1.60443195 -1.96525903
  H -2.09096747 -2.53357710 -0.51988197
  H -3.11332748 -1.20509194 -1.06737355
  H -2.40929245  2.05911120  0.44042345
  H -3.27771316  1.10932940 -0.79501523
  H -2.24383759  2.46047655 -1.28209729
  H  0.05530154  2.03262508  0.37480352
