89
opt_min/./Product_3209_opt.xyz
  C -1.46222600  2.70576800 -2.98157600
  O -0.17231338  2.47301856 -2.45242699
  C  0.10950528  2.15231445 -1.09876826
  C -0.44911581  3.33080166 -0.25078334
  F -1.77559273  3.35758337 -0.02499713
  F -0.19728155  4.49008451 -0.87954958
  F  0.12306755  3.43955411  0.95671292
  C -0.35950092  0.75735526 -0.63450779
  C  0.29024208 -0.43260835 -0.57901827
  C  1.77800579 -0.81032780 -0.70211369
  C  2.59019303 -0.21551107  0.46434840
  C  2.02147180  0.46502650  1.53365461
  C  2.79718708  0.96584619  2.56705923
  C  4.16682626  0.78790181  2.56685631
  C  4.74932404  0.08652094  1.52483513
  C  3.97300919 -0.41210517  0.49649616
  C  1.99687797 -2.34185543 -0.60350727
  C  2.55296387 -2.92612266  0.53308877
  C  2.89481764 -4.26573318  0.56875162
  C  2.67217939 -5.07812215 -0.52704774
  C  2.07601395 -4.53027266 -1.64709968
  C  1.74986689 -3.18574606 -1.68389665
  C  2.48752141 -0.41633392 -2.04744942
  C  2.02919665  0.75447610 -2.90520782
  C  2.36523046  2.11658372 -2.32247794
  C  1.64867406  2.37786780 -1.00366729
  C -0.72528773 -1.55650290 -0.25823327
  C -1.17211313 -2.25774794 -1.54487191
  C -2.05178142 -3.33635313 -1.50234561
  C -2.52468147 -3.92022532 -2.66500233
  C -2.13956192 -3.43524688 -3.90066829
  C -1.28844124 -2.34717272 -3.95935360
  C -0.82125909 -1.76330574 -2.79632079
  C -0.33156042 -2.51591612  0.86397127
  C -0.20149092 -1.98388473  2.14306021
  C  0.06458496 -2.79195683  3.23231642
  C  0.17649556 -4.16117355  3.06988648
  C  0.03353485 -4.70510269  1.80639854
  C -0.21262974 -3.89246531  0.71401019
  N -1.84078711 -0.78974205  0.30058253
  C -3.11315097 -1.41791208  0.53759453
  C -1.81501894  0.58874120 -0.16810574
  C -2.13002119  1.25264389  1.18340658
  O -1.02932651  1.36236640  1.92491808
  C -1.19122330  1.77976837  3.27801841
  O -3.23633163  1.45810625  1.60854168
  C -2.89226157  0.73767118 -1.26296892
  C -4.13472286  1.52891483 -0.98898292
  O -2.76180656  0.11747262 -2.29183695
  H -1.89148814  1.78913869 -3.39007577
  H -1.29843075  3.41383505 -3.79579429
  H -2.15643205  3.15094041 -2.27038667
  H  0.96210098  0.64081057  1.55514223
  H  2.32027936  1.50593916  3.37135313
  H  4.77300196  1.18063464  3.36915647
  H  5.81613303 -0.08206583  1.51323690
  H  4.45958403 -0.99575749 -0.27093490
  H  2.71555120 -2.34597976  1.42684207
  H  3.33736956 -4.67197685  1.46608062
  H  2.94778862 -6.12183615 -0.50453272
  H  1.86552006 -5.14557088 -2.50995826
  H  1.28300138 -2.81623255 -2.58271778
  H  2.46903587 -1.28715530 -2.69873713
  H  3.53610581 -0.22988996 -1.81849511
  H  2.56039863  0.66022875 -3.85711609
  H  0.96677169  0.70744815 -3.12479569
  H  2.08372571  2.88404000 -3.04279805
  H  3.44050777  2.19286805 -2.14554883
  H  2.05722286  1.75315165 -0.22140597
  H  1.83754352  3.41653650 -0.72897779
  H -2.38203899 -3.73706238 -0.55704392
  H -3.20559721 -4.75663607 -2.59765680
  H -2.50906162 -3.89194595 -4.80705362
  H -0.99105079 -1.94052798 -4.91499342
  H -0.18300051 -0.89987988 -2.87099841
  H -0.32526839 -0.92451618  2.28522108
  H  0.17343750 -2.35148440  4.21286098
  H  0.37131532 -4.79734881  3.92063328
  H  0.11787951 -5.77215250  1.66237303
  H -0.27672062 -4.34420470 -0.26217684
  H -3.72395345 -0.74960785  1.14556122
  H -3.66715902 -1.66546152 -0.37815654
  H -2.94425837 -2.32979792  1.10962211
  H -2.19999458  1.54512904  3.62053180
  H -1.01773363  2.85420282  3.34296480
  H -0.44904027  1.24260887  3.86536482
  H -3.92303790  2.49352357 -0.54197887
  H -4.75004895  0.97835849 -0.27986280
  H -4.68426475  1.64513532 -1.92114771
