51
opt_min/./Product_1660_opt.xyz
  C -2.65777900  2.75038200  0.71938900
  C -1.62329000  2.74242937 -0.37970789
  O -1.19454547  3.77700539 -0.85308556
  C -1.21224856  1.45551328 -0.93889494
  C -1.20950344  0.16719286 -0.53776484
  C -1.62984149 -0.42272944  0.72081458
  C -1.31296037  0.16241022  1.94446088
  C -1.79385431 -0.36971633  3.12480056
  C -2.59085440 -1.50158038  3.10614697
  C -2.89833298 -2.10273169  1.89670961
  C -2.42271433 -1.57165311  0.71390241
  C -0.78192026 -0.62051061 -1.76964951
  C  0.73048178 -0.43375903 -2.07829579
  C  0.76534463  1.07292797 -2.39975642
  C -0.74732434  1.39961105 -2.39230097
  O -1.32571350  0.17444673 -2.81622988
  C  1.65696730  1.64335724 -1.29179811
  N  2.63228145  0.59452520 -1.01924986
  C  1.87516625 -0.66552203 -1.06194272
  C  2.78305447 -1.82472264 -1.48807209
  C  4.18961544 -1.75896651 -0.96750618
  O  2.36920540 -2.74007922 -2.15391650
  C  1.46408374 -1.11948358  0.32422703
  C  1.85638623 -0.40159734  1.44688004
  C  1.59250293 -0.88929836  2.71440373
  C  0.97037435 -2.11480949  2.87487647
  C  0.59189007 -2.84195720  1.75986080
  C  0.82937173 -2.34521058  0.49202873
  H -3.22505106  3.67602914  0.65643762
  H -2.15962009  2.73152173  1.68602894
  H -3.31858823  1.89153068  0.65044075
  H -0.66064462  1.02215927  1.96127884
  H -1.54337188  0.09884050  4.06511506
  H -2.96833867 -1.91416094  4.02970829
  H -3.51593607 -2.98840775  1.87380142
  H -2.69207977 -2.03133503 -0.22473096
  H -1.11855728 -1.65062018 -1.83284430
  H  0.92280819 -1.04233938 -2.96560796
  H  1.18705441  1.27637170 -3.38589536
  H -1.05258826  2.23763594 -3.01026380
  H  2.14886723  2.57632018 -1.56241292
  H  1.08280974  1.81001051 -0.37872015
  H  3.31319541  0.58937295 -1.77144868
  H  4.81949623 -1.29330415 -1.72441183
  H  4.23996434 -1.17031513 -0.05723197
  H  4.56122120 -2.76708533 -0.80038581
  H  2.37778361  0.53368462  1.31723345
  H  1.89302943 -0.31649274  3.57965867
  H  0.79049968 -2.50628322  3.86502632
  H  0.11996404 -3.80610439  1.87473217
  H  0.54653968 -2.92270027 -0.37553000
