33
opt_min/./Product_4552_opt.xyz
  O  0.35790449  3.13387370  0.01009723
  C -0.54690011  2.90324244 -0.65357248
  O -1.44801285  2.69787434 -1.32452303
  C -0.79201340  0.17756902  0.38572983
  C -2.05945167 -0.14672465  0.13439959
  C -2.86098989 -0.17442930  3.21445049
  O -3.12082466 -1.28543036  3.18052257
  O -2.61479947  0.94436328  3.23808253
  N -2.14096657 -1.17076280 -0.79617746
  C -3.07400515 -2.10112567 -0.75554771
  N -3.91122483 -2.88698760 -0.78552479
  N -0.81016777 -1.46165093 -1.22209866
  C -0.58698964 -2.79346321 -1.70892601
  C  0.11485184 -0.82549435 -0.28577133
  C  1.25923518 -0.17767553 -1.09298680
  N  2.07737104  0.57375347 -0.32854059
  C  3.16316976  1.34360966 -0.88971800
  O  1.42353504 -0.37375208 -2.27460179
  C  0.69610071 -1.79104013  0.79012259
  C  1.89256809 -2.60618879  0.39410899
  O  0.17413251 -1.86280269  1.87414108
  H -0.45449427  0.84072084  1.15647300
  H -2.96068699  0.35553162  0.43244881
  H  0.38525618 -2.80615715 -2.19563691
  H -0.63257931 -3.56903895 -0.93094669
  H -1.34621096 -3.00829674 -2.46090781
  H  1.82663200  0.77153075  0.62708275
  H  4.08601259  1.14187093 -0.34515875
  H  2.94589346  2.41211041 -0.84407859
  H  3.27795113  1.04165983 -1.92897621
  H  2.75697850 -2.21433465  0.93041060
  H  1.75601672 -3.63764954  0.71438817
  H  2.09115634 -2.56145758 -0.67117839
