29
opt_min/./Product_166_opt.xyz
  C -3.85252763  1.97890739  0.57572652
  O -2.74282102  1.09702082  0.47960415
  C -1.88144288  1.31542960 -0.52024193
  O -2.00055940  2.17822320 -1.35230554
  C -0.74662479  0.37407523 -0.45586006
  C  0.49498030  0.61086167 -0.97366427
  C  0.94760745  1.74271142 -1.65118235
  N  1.39773259  2.65091894 -2.19176163
  C  1.36776120 -0.54321124 -0.57017730
  C  2.60432810 -0.05741672  0.26944644
  N  3.46077404  0.66191500 -0.47228887
  C  4.63671652  1.24943780  0.13810497
  O  2.74892319 -0.31369470  1.43131474
  N  0.51671189 -1.42186308  0.15313877
  C -0.65999667 -0.90992735  0.22427830
  C -1.79926227 -1.64102867  0.86635692
  C -2.89077905 -1.99333383 -0.11190140
  O -1.80359005 -1.95083623  2.02427841
  H -3.55736489  2.98549073  0.27642655
  H -4.17578800  1.95779620  1.61320678
  H -4.66236650  1.63633242 -0.07224128
  H  1.78664010 -1.08962218 -1.42060569
  H  3.26091018  0.89119522 -1.43180186
  H  4.35076922  1.98927768  0.88813326
  H  5.23548049  1.72463663 -0.63145616
  H  5.21626236  0.47061840  0.63425679
  H -3.63295833 -2.61864981  0.37391248
  H -3.36490535 -1.08157150 -0.46776266
  H -2.46860381 -2.51290395 -0.96897935
