43
opt_min/./Product_5256_opt.xyz
  C  1.00294868  0.97139657  0.08590176
  C  0.22000988 -0.24669362  0.59287216
  C  0.84418889 -1.53942121  0.02104028
  N  2.24875770 -1.54253460 -0.21428075
  C  2.89013428 -2.83255978 -0.32522054
  C  3.00997398 -0.43413285  0.00015735
  C  2.48621231  0.78545710  0.21662297
  C  3.26724471  1.99740458  0.48191772
  N  4.63689877  1.85322626  0.59948296
  O  2.75291496  3.09865687  0.55730036
  C -0.13721137 -1.78936075 -1.21849342
  C  0.48318430 -2.40388568 -2.35958005
  N  1.06098536 -2.85748951 -3.23441486
  N -0.74076268 -0.50722720 -1.45142106
  C -1.71555024 -0.46114164 -2.52177715
  C -1.19576958 -0.32053739 -0.05784099
  C -2.24412480  0.72106090  0.22009046
  C -3.55683499  0.44403564 -0.16126595
  C -4.57641718  1.34550822  0.07676592
  C -4.31002457  2.54453449  0.71339209
  C -3.01636283  2.82128402  1.11468650
  C -1.99262790  1.92014158  0.87478603
  C -1.75069111 -1.73449821  0.26608163
  O -2.52126387 -2.05955842  1.11484185
  O -1.17665801 -2.59325582 -0.60503328
  H  0.74012166  1.88452165  0.61492675
  H  0.76631120  1.12745373 -0.97058334
  H  0.18779473 -0.26371877  1.68278964
  H  0.62514131 -2.38462023  0.69441760
  H  3.79297459 -2.74057563 -0.92642287
  H  3.15670363 -3.22929234  0.66175026
  H  2.22522802 -3.53990279 -0.81645460
  H  4.07396449 -0.61517719 -0.00152222
  H  4.98932710  1.00966511  1.02111339
  H  5.08998134  2.69151099  0.93935112
  H -2.14600462  0.53863655 -2.53957657
  H -2.51754268 -1.20215075 -2.42181371
  H -1.19155342 -0.63866547 -3.46106864
  H -3.79663052 -0.49069507 -0.64466573
  H -5.58293412  1.10485372 -0.23081865
  H -5.10518112  3.24944806  0.90572946
  H -2.79413639  3.74685132  1.62450029
  H -1.00731450  2.16454515  1.22662951
