48
opt_min/./Product_5334_opt.xyz
  C -0.09803400  1.13771700 -1.29897600
  O  0.41532751  1.70486723 -2.24198990
  C  0.22235530 -0.28929640 -0.93373150
  O  0.93692593 -0.91303362 -1.99388399
  C  2.30106055 -0.58263202 -2.13189201
  C -1.05309857 -1.14001426 -0.66523216
  O -1.70377748 -1.38444760 -1.88468369
  C -2.83561423 -2.23074894 -1.85531376
  C -2.02644543 -0.37383046  0.25219547
  O -2.84852740 -0.95851297  0.92712604
  C -2.02634713  1.10198684  0.21671974
  C -3.11878461  1.76336170  0.99620912
  C -1.09952988  1.81363236 -0.45204246
  C -1.09363488  3.30650772 -0.48545181
  C -0.40692333 -2.36141843  0.10286899
  C -1.30572770 -3.13756341  1.06919051
  C  0.26246524 -3.32732273 -0.89683065
  N  0.59921171 -1.69156657  0.89701098
  C  0.92623965 -0.56272309  0.41607129
  C  1.89605325  0.29303719  1.08457061
  C  2.32743007  1.51576882  0.57340253
  C  3.24331096  2.28044621  1.27291986
  C  3.74235940  1.83998753  2.48695456
  C  3.32475428  0.62245050  3.00196881
  C  2.41079335 -0.14470264  2.31036974
  H  2.87326966 -0.80939839 -1.22447350
  H  2.44002122  0.46787933 -2.39643241
  H  2.65450446 -1.20720847 -2.94909646
  H -3.26963958 -2.15069474 -2.84963071
  H -3.57198734 -1.90975446 -1.11324443
  H -2.55311287 -3.26870146 -1.66227298
  H -2.73209453  2.11820243  1.95270834
  H -3.90799362  1.04524397  1.20305070
  H -3.52367604  2.61321877  0.45388271
  H -1.86084491  3.66200459 -1.17462249
  H -0.13435847  3.66432447 -0.85054833
  H -1.29463293  3.71877043  0.49945993
  H -2.30000691 -3.29334615  0.66639693
  H -1.39788974 -2.59225822  2.00389104
  H -0.85357156 -4.10237687  1.28404863
  H  1.32213416 -3.10792165 -0.97609637
  H  0.14723194 -4.35689710 -0.57173938
  H -0.17711066 -3.19893855 -1.88098466
  H  1.96491853  1.86751266 -0.37631911
  H  3.57007937  3.22515832  0.86436774
  H  4.45689238  2.44409003  3.02626468
  H  3.71470621  0.27305317  3.94641057
  H  2.07131116 -1.09461025  2.69078269
