50
opt_min/./Product_5346_opt.xyz
  C  6.02559801 -0.27533768  0.63331399
  C  4.68941153 -0.92277196  0.44335654
  C  4.69145818 -2.42163677  0.51085353
  C  3.58520679 -0.18421120  0.27494554
  C  2.23795118 -0.67802296  0.12969211
  C  1.18374200  0.12585548 -0.01773327
  C -0.22753378 -0.36647543 -0.16541290
  C -0.45201615 -0.96831077 -1.56608810
  C -0.60966184 -1.39212476  0.92312908
  C -2.05328397 -1.00015103  1.31787941
  C -2.18290282 -1.01812271  2.76523527
  N -2.26431631 -1.02587950  3.90478278
  C -3.21380225 -1.81063538  0.75577877
  C -4.49248930 -1.38639351  1.10153635
  C -5.60461668 -2.04623620  0.61471003
  C -5.45610784 -3.13768675 -0.22316880
  C -4.18602961 -3.56264043 -0.57070153
  C -3.06840828 -2.90331521 -0.08509476
  N -2.22225810  0.36869983  0.85691730
  C -1.26803378  0.71829449  0.09534288
  C -1.23970115  2.07660632 -0.43921922
  C -0.43156154  2.46914374 -1.50397423
  C -0.44626861  3.77916502 -1.94556192
  C -1.26039852  4.71879565 -1.33633519
  C -2.06938645  4.33859689 -0.27580373
  C -2.05833575  3.03205312  0.16784031
  H  6.37163391 -0.43560687  1.65636392
  H  6.76644164 -0.71117531 -0.03658415
  H  5.97653964  0.79608854  0.45306382
  H  4.47140756 -2.75123520  1.52797327
  H  3.94487150 -2.85522440 -0.15038723
  H  5.66820328 -2.81454350  0.23600448
  H  3.68348989  0.89399943  0.24656452
  H  2.09550670 -1.74913391  0.16023357
  H  1.32737461  1.19805433 -0.02913493
  H -0.06737709 -0.31483386 -2.34388140
  H -1.51449194 -1.13296417 -1.74509941
  H  0.07181304 -1.92010950 -1.64437058
  H -0.53032782 -2.42383576  0.59493059
  H  0.04052210 -1.26176333  1.79424141
  H -4.60555936 -0.52987075  1.75051776
  H -6.59093984 -1.70550939  0.89385347
  H -6.32301071 -3.65635031 -0.60430606
  H -4.05954583 -4.41294684 -1.22519001
  H -2.09301854 -3.26164038 -0.37174990
  H  0.21224000  1.75903006 -2.00109838
  H  0.18616218  4.06707581 -2.77336592
  H -1.26431707  5.74077703 -1.68329825
  H -2.70634801  5.06649784  0.20498630
  H -2.67732223  2.71929588  0.99338152
