45
opt_min/./Product_1057_opt.xyz
  C  1.76237764 -1.95192801 -0.99345138
  C  1.49554931 -0.47114917 -0.75183818
  C  0.42892426 -0.08099851  0.32116863
  C -0.07236014 -1.11599567  1.17818410
  N -0.45870005 -1.87633020  1.94413847
  C  1.22223522  0.93776451  1.19721942
  C  2.27638000  0.17144010  2.01197020
  C  3.32719619 -0.22347065  0.95430632
  C  2.73758083  0.35198983 -0.33903659
  C  2.10132437  1.64599401  0.16912481
  C -0.74235155  0.56019964 -0.52404365
  C -1.17783152  1.89007840  0.12541112
  N -1.88203981  1.68518732  1.26191878
  C -2.45144892  2.77714657  2.01474984
  O -0.87903535  2.98094424 -0.29497891
  C -1.99026494 -0.29015174 -0.76826338
  C -1.95763031 -1.67608303 -0.82296192
  C -3.10807888 -2.39612788 -1.10217158
  C -4.29484786 -1.74081068 -1.36915485
  C -4.32334812 -0.35533677 -1.37447079
  C -3.18042615  0.36364308 -1.08276127
  N -0.22721885  0.75041868 -1.84918675
  C  0.89264026  0.17622851 -1.99068738
  C  1.59556047  0.13125566 -3.21331920
  N  2.22338572  0.05741989 -4.16861767
  H  2.64815685 -2.06672387 -1.61562006
  H  1.91897506 -2.48599159 -0.05966441
  H  0.92751337 -2.41541147 -1.51657456
  H  0.58553416  1.56524653  1.81539685
  H  2.70437695  0.83764770  2.75980545
  H  1.85951929 -0.68910335  2.53238278
  H  4.29031555  0.24051527  1.16128354
  H  3.48482564 -1.29822482  0.90100226
  H  3.45949710  0.45179196 -1.14925863
  H  2.82287410  2.31200512  0.63736906
  H  1.54109326  2.20326495 -0.57845397
  H -2.15677609  0.74956029  1.51877709
  H -3.52618271  2.86222398  1.83804158
  H -1.96763147  3.69489136  1.68559639
  H -2.27701052  2.62392099  3.07917560
  H -1.04480745 -2.21956235 -0.64063225
  H -3.06629462 -3.47492014 -1.11869626
  H -5.18882136 -2.30570674 -1.58709766
  H -5.23629109  0.16796222 -1.61328897
  H -3.20393026  1.44202140 -1.11270510
