57
opt_min/./Product_2626_opt.xyz
  F  1.42232000 -0.03619500  2.62556300
  C  1.00262385 -0.63485231  1.46688451
  C -0.53576433 -0.79971511  1.33080480
  C -1.44715028 -0.53384369  2.53216182
  F -0.94768587 -0.96273177  3.70482327
  F -1.81699497  0.72296635  2.78122563
  F -2.60731380 -1.20618301  2.37059991
  C -0.57982346 -2.37098682  1.07832067
  C -0.28179617 -3.03064191  2.41093200
  C  1.01765662 -2.85212840  2.60076191
  C  1.49301090 -2.12212674  1.36632571
  O  0.61498956 -2.59777926  0.36588806
  C -0.90071293  0.01528407  0.03681251
  C -2.03689769 -0.67397413 -0.69506259
  C -3.35869822 -0.43393332 -0.33627801
  C -4.38947622 -1.09123875 -0.98445052
  C -4.11473497 -1.99291896 -1.99822610
  C -2.80018355 -2.24531101 -2.35200768
  C -1.76586757 -1.59541380 -1.70152501
  C -1.18772858  1.50658983  0.24619626
  C -0.53941549  2.28335049  1.20254129
  C -0.71246221  3.65791159  1.23872142
  C -1.51666712  4.29440426  0.31329498
  C -2.14240744  3.53894276 -0.66316018
  C -1.97012429  2.16775314 -0.70079032
  N  0.36146432 -0.09052362 -0.72121025
  C  0.45681527  0.70547236 -1.92446826
  C  1.43612167  0.16732975  0.21669516
  C  2.79409608 -0.20899805 -0.31520342
  C  2.94182552 -1.24146275 -1.23565635
  C  4.19715199 -1.57397388 -1.71180192
  C  5.31518564 -0.88595703 -1.26856915
  C  5.17344931  0.13513956 -0.34480338
  C  3.91750448  0.47578714  0.12740788
  H -1.45475064 -2.71584417  0.53834539
  H -1.01825970 -3.49132191  3.03784950
  H  1.64213122 -3.10894671  3.43121958
  H  2.53594363 -2.23410829  1.09148851
  H -3.58552216  0.26995865  0.45041956
  H -5.41013449 -0.89384285 -0.69285811
  H -4.92107879 -2.50136494 -2.50579592
  H -2.57358133 -2.95482244 -3.13412605
  H -0.73956487 -1.80990411 -1.95122339
  H  0.08841542  1.84621923  1.96243014
  H -0.20687863  4.22725540  2.00471739
  H -1.65194347  5.36508216  0.34811923
  H -2.76310202  4.01343580 -1.40894156
  H -2.45664322  1.60734727 -1.48445819
  H  1.34089323  0.38747175 -2.47405970
  H  0.54085338  1.78254125 -1.72257529
  H -0.42231097  0.53004357 -2.54010283
  H  1.47943020  1.23517769  0.50929630
  H  2.06762979 -1.78713386 -1.55383020
  H  4.30495385 -2.37493394 -2.42812192
  H  6.29537429 -1.14629807 -1.63982242
  H  6.04230608  0.67177191  0.00665583
  H  3.80830019  1.27472006  0.84677537
