56
opt_min/./Product_3062_opt.xyz
  N  1.97318855  3.22285588 -0.03183127
  C  1.70317459  2.16198500  0.29716835
  C  1.43879199  0.79136547  0.71836644
  C  2.38418968 -0.00547799 -0.17537815
  C  3.75509281  0.02549000  0.06383495
  C  4.62780181 -0.66510420 -0.75691352
  C  4.14680978 -1.38443382 -1.84000462
  C  2.79145841 -1.37415530 -2.11529715
  C  1.91786564 -0.67725913 -1.29920231
  C -0.02325974  0.49060153  0.47945421
  C -0.76039768 -0.62300986  0.62183156
  C -0.41410226 -2.00282583  1.03691386
 Br -1.81106541 -2.72532794  2.22975729
 Br -0.43509215 -3.18609496 -0.60606522
  C  0.93661417 -2.28684283  1.66545940
  C  1.19183340 -1.56774209  2.99203105
  C  2.27475020 -0.50446480  2.87416147
  C  1.80256330  0.79465281  2.23693739
  C -2.21453175 -0.29024310  0.24481130
  C -2.98047048 -1.36287269 -0.57318188
  N -2.61909037 -1.35382325 -1.86724356
  C -3.19949960 -2.25433315 -2.83131576
  O -3.80534724 -2.09735363 -0.08631308
  C -2.93317242  0.04396861  1.46787686
  N -3.47355110  0.47179642  2.38039912
  N -2.03971261  0.91318992 -0.56142648
  C -3.22507676  1.62101628 -0.98819156
  C -0.92735342  1.62753912  0.02877914
  C -1.27113175  2.51354019  1.25107283
  O -0.70298862  2.45078073  2.30922596
  O -2.25281391  3.35612797  0.98043803
  C -2.69668896  4.19366772  2.04675987
  H  4.14839256  0.60011628  0.88847854
  H  5.68659672 -0.63627586 -0.54797368
  H  4.82400920 -1.93364030 -2.47575735
  H  2.40557008 -1.90966276 -2.96877447
  H  0.86680297 -0.65329972 -1.54457816
  H  1.72030289 -2.04157471  0.94566128
  H  0.97886705 -3.36714168  1.82901594
  H  0.27258665 -1.11851063  3.37344352
  H  1.51698827 -2.30400629  3.72904449
  H  3.12674787 -0.92182941  2.33298009
  H  2.62140021 -0.25169331  3.87893552
  H  0.92163233  1.15193551  2.77119214
  H  2.58116095  1.54800946  2.38382811
  H -1.95591503 -0.66302577 -2.18451761
  H -2.40999704 -2.76663603 -3.38041272
  H -3.84310546 -1.71767903 -3.53149174
  H -3.79383426 -2.98483170 -2.28528842
  H -3.80175631  2.06540066 -0.17122726
  H -2.91293654  2.41178642 -1.66933846
  H -3.87191502  0.92619750 -1.52310286
  H -0.46586137  2.27921305 -0.72283654
  H -3.41614744  3.64517164  2.65724255
  H -1.84912420  4.49238809  2.66472813
  H -3.16595619  5.05765931  1.58335818
