57
opt_min/./Product_5693_opt.xyz
  C -0.64467300 -0.55501500  2.39141000
  C  0.01763032 -0.71279695  1.00851276
  C  0.46775458 -2.16649976  0.89676360
  C  1.19105537  0.30398596  0.91036841
  C  2.43308108 -0.15328411  0.19732612
  C  2.49729722 -0.64634949 -1.03828480
  C  3.71618355 -1.00185028 -1.74528681
  C  5.03577693 -0.70618431 -1.09918832
  C  3.63869433 -1.54832906 -2.95958709
  C  0.55149264  1.56061304  0.25313783
  C  0.35422953  2.70692169  1.25568997
  C  1.46406937  2.11379842 -0.86189270
  O  2.50452759  2.68547671 -0.60267172
  N  1.01948555  1.91214329 -2.11088463
  C  1.77262782  2.32722015 -3.26798886
  O -0.71803502  1.16840461 -0.25967146
  C -0.97455577 -0.22876859 -0.09080384
  C -0.89430469 -0.88202557 -1.49393402
  N -1.45586222 -0.06902717 -2.42045817
  C -1.64414796 -0.50695105 -3.78356081
  O -0.43261726 -1.96451359 -1.78054219
  C -2.43196829 -0.43513984  0.29318544
  C -2.99654761 -1.70346859  0.19957960
  C -4.31999467 -1.90562668  0.54549860
  C -5.09835347 -0.84458799  0.97495059
  C -4.54645970  0.42189868  1.05306798
  C -3.22263475  0.62714448  0.71135611
  H  0.09263962 -0.74115558  3.16874066
  H -1.45495619 -1.27002980  2.51646735
  H -1.05465992  0.44210051  2.53022517
  H  1.17253534 -2.37704094  1.69784620
  H -0.38687569 -2.82726851  1.01024501
  H  0.94580073 -2.38694511 -0.04920687
  H  1.48698712  0.57676753  1.92337027
  H  3.34222315 -0.01573497  0.76513548
  H  1.59212157 -0.81663246 -1.60066872
  H  5.85358274 -0.97904471 -1.75815301
  H  5.13733266 -1.26171067 -0.16975148
  H  5.10632087  0.35657137 -0.87123546
  H  2.68947176 -1.76142737 -3.41866020
  H  4.51690552 -1.81212363 -3.52257120
  H -0.22321816  3.50082686  0.78538209
  H  1.32652159  3.10032408  1.53715420
  H -0.17515857  2.36775409  2.14211505
  H  0.12185189  1.47710346 -2.24885792
  H  2.83035917  2.31214339 -3.00863277
  H  1.58656174  1.64079112 -4.09136447
  H  1.50417023  3.34282453 -3.57260783
  H -1.93755467  0.75665398 -2.10199885
  H -2.40819083 -1.28712189 -3.83922561
  H -1.94338051  0.33735811 -4.39839171
  H -0.70946421 -0.92423124 -4.15882659
  H -2.40003721 -2.53222166 -0.14984795
  H -4.74489602 -2.89646957  0.47562807
  H -6.13159870 -1.00405692  1.24454503
  H -5.14886316  1.25606573  1.38251959
  H -2.79409218  1.61595235  0.76216935
