47
opt_min/./Product_4749_opt.xyz
  N  0.93419600  0.83006700  0.91855100
  C  0.16275495  1.30922432 -0.18925584
  N  1.08385465  1.80328181 -1.18611616
  N -0.81413655  2.28519037  0.32022299
  C -0.41637621  3.67431721  0.38310716
  C -0.62895130  0.09318558 -0.83867569
  C -1.22837931  0.58409878 -2.17352869
  C -1.73364930 -0.35899677  0.11735485
  C -1.45150275 -1.20021561  1.18766742
  C -2.44287529 -1.61387719  2.05924666
  C -3.74991643 -1.19776503  1.88416578
  C -4.04927095 -0.36104838  0.82595082
  C -3.05412613  0.04926889 -0.04545163
  N  0.34127979 -0.94925440 -1.15052243
  C  0.06741697 -1.84126266 -2.25717389
  C  1.45511932 -1.22970086 -0.38055549
  C  2.74669658 -1.29015371 -0.91213798
  C  3.08345275 -0.78046900 -2.19345479
  C  4.37361030 -0.82864921 -2.65932038
  C  5.39250956 -1.37904966 -1.88813554
  C  5.09420867 -1.86183385 -0.61735898
  C  3.81037967 -1.81960286 -0.13450181
  H  0.40597802  0.80742577  1.77636119
  H  1.82311715  1.28993679  1.03354674
  H  1.81183531  2.36745979 -0.76807336
  H  0.60716071  2.35441207 -1.88734210
  H -1.72486088  2.17912406 -0.09891921
  H  0.42139252  3.78121604  1.07456800
  H -0.11653810  4.10491047 -0.58490577
  H -1.25181197  4.25374174  0.76825855
  H -1.97767158 -0.10623734 -2.54809867
  H -0.43719181  0.67095470 -2.91077942
  H -1.68866233  1.56191844 -2.06062573
  H -0.44730672 -1.54642608  1.34638794
  H -2.18784960 -2.26696388  2.88123932
  H -4.52596607 -1.52419140  2.56096009
  H -5.06434357 -0.02530005  0.66899490
  H -3.34384372  0.69866829 -0.85702793
  H  0.30597068 -1.41973854 -3.23792823
  H  0.66500303 -2.74054930 -2.12658699
  H -0.98601156 -2.13276805 -2.25089119
  H  1.33473087 -1.53486193  0.64881880
  H  2.31154676 -0.30864715 -2.77751084
  H  4.60399856 -0.42777592 -3.63797942
  H  6.40361640 -1.41970795 -2.26425751
  H  5.88659170 -2.27512809 -0.00630043
  H  3.59110239 -2.19944242  0.85395680
