35
opt_min/./Product_3776_opt.xyz
  C -1.87084577 -2.20782529 -0.56726654
  C -1.16824720 -0.89298655 -0.22503692
  C -0.91979669 -0.78639308  1.27818554
  C  0.14037620 -0.73751966 -1.08747521
  C  1.42108647 -0.65354071 -0.31296755
  C  1.91926754  0.46405262  0.21356192
  C  3.16527157  0.56750641  0.95609271
  C  3.98297189 -0.67172354  1.16318076
  C  3.55563555  1.75019496  1.43027730
  N -0.11634523  0.45808572 -1.86384123
  C  0.75344055  1.28859030 -2.36159371
  N  1.48929343  2.02831938 -2.84698223
  N -1.52428823  0.67222444 -1.95199758
  N -1.98918634  0.23786270 -0.67499690
  C -3.19225793  0.56125142 -0.14300980
  C -3.89511508  1.73935398 -0.77971475
  O -3.66958715 -0.06268630  0.78358268
  H -2.82280197 -2.24863978 -0.04469660
  H -2.05707046 -2.27478871 -1.63774163
  H -1.25906168 -3.05036007 -0.25570875
  H -1.73895153 -1.24963403  1.81875376
  H  0.01213316 -1.27467736  1.54889920
  H -0.86132087  0.25574234  1.58458570
  H  0.20062958 -1.60017326 -1.76803749
  H  1.93776309 -1.59565904 -0.20776335
  H  1.38417906  1.39796575  0.10163376
  H  3.40698004 -1.42343209  1.70179250
  H  4.87715047 -0.44530218  1.73695744
  H  4.28195224 -1.09215508  0.20423158
  H  4.47280441  1.86684882  1.98132566
  H  2.97232327  2.64286547  1.27910017
  H -1.69540531  1.67907426 -2.06188854
  H -4.63833403  2.10555394 -0.07685156
  H -3.21779731  2.54839537 -1.04393763
  H -4.40767758  1.40183707 -1.67956947
