30
opt_min/./Product_3814_opt.xyz
  C -0.93840159  1.34962017 -1.27363339
  C -0.24183610  0.96138942  0.03640279
  C -0.09272621  2.20758188  0.89987603
  C -1.03696645 -0.14411162  0.77760996
  C -2.51851075  0.11514490  0.94052347
  O -2.98376323  1.12835111  1.36985543
  C -0.69823456 -1.42910733 -0.01425980
  C -1.65195023 -1.70479242 -1.08404545
  N -2.33411369 -1.93715123 -1.97069449
  C -0.68565321 -2.59195198  0.87138236
  N -0.66073381 -3.49469778  1.56869399
  N  0.64999160 -1.20599994 -0.52941627
  C  1.06962140  0.17712645 -0.29723456
  C  2.20919509  0.19443645  0.77860516
  C  3.04644358 -1.04717725  0.79890715
  O  2.43384767  1.15908305  1.45093752
  C  1.74049339  0.71324282 -1.46795891
  N  2.29759680  1.07175820 -2.39872687
  H -1.00891647  0.51848523 -1.97418290
  H -1.94521800  1.71194680 -1.07118931
  H -0.38511547  2.15082129 -1.76237202
  H  0.32078582  1.97932044  1.87740814
  H  0.56641758  2.92595299  0.41404337
  H -1.07429861  2.65809415  1.02949668
  H -0.62242082 -0.23872783  1.79429273
  H -3.16202404 -0.72749927  0.62129490
  H  0.79131949 -1.53742343 -1.47689550
  H  2.45914808 -1.94237752  0.62034607
  H  3.79283357 -0.95579653  0.00870692
  H  3.57450442 -1.11028607  1.74859596
