46
opt_min/./Product_1101_opt.xyz
  C -3.06455900  1.98973000 -1.41617900
  C -2.37195489  1.12077646 -0.43874163
  C -2.82357284  0.20047109  0.41833714
  C -4.18476251 -0.33491947  0.64628785
  F -4.28083700 -1.63467760  0.28019952
  F -4.55063988 -0.30021950  1.94118013
  F -5.13782649  0.31543924 -0.03623691
  C -1.58492699 -0.40139069  1.06629994
  C -0.96994261 -1.30147575 -0.05218220
  C -0.39981270 -0.21640268 -0.98929083
  C -0.86407012  1.07746617 -0.25364210
  O -0.71396277  0.71221042  1.10607258
  C  1.13206402 -0.42126511 -1.00673956
  C  1.82990751  0.89544995 -0.58003112
  N  2.27161966  0.89493190  0.68344095
  C  2.82244850  2.06235418  1.31986954
  O  1.94762042  1.83226981 -1.34866411
  C  1.60242478 -0.74117329 -2.43379248
  N  1.39202434 -1.45738078 -0.02383356
  C  2.65143253 -2.15359631 -0.12438635
  C  0.20467474 -2.21933207  0.34733984
  C  0.25332767 -2.51436900  1.85185671
  C  0.07322028 -3.54713560 -0.41959384
  H -3.73966315  2.66885158 -0.89794021
  H -3.66924295  1.39824031 -2.10195787
  H -2.34048341  2.57006417 -1.98062432
  H -1.72189059 -0.84262510  2.04642429
  H -1.76146470 -1.89227448 -0.51062838
  H -0.80797069 -0.25942126 -1.99758048
  H -0.32418863  1.98465869 -0.49832958
  H  1.98886391  0.10616828  1.24912611
  H  3.71069499  1.79281784  1.89177528
  H  3.09009454  2.77211285  0.53871496
  H  2.09036822  2.52517963  1.98627714
  H  1.36664820  0.10489047 -3.07409479
  H  1.10594092 -1.63045165 -2.81672940
  H  2.67724259 -0.89265607 -2.46306492
  H  3.45704619 -1.41962598 -0.15767577
  H  2.79199017 -2.76827447  0.76270480
  H  2.73379320 -2.79909154 -1.00816593
  H  1.07400212 -3.19130552  2.07276142
  H  0.40388290 -1.59689705  2.41322610
  H -0.66965632 -2.98862316  2.17492418
  H  0.07965602 -3.36638467 -1.49181243
  H  0.89288966 -4.21727732 -0.17571109
  H -0.85903682 -4.03837545 -0.15478139
