64
opt_min/./Product_2893_opt.xyz
  C -2.31200300 -2.26005700  1.57574100
  O -1.14528183 -1.46329023  1.65208539
  C -0.30554945 -1.44660838  0.51645924
  C  1.09856540 -0.87182472  0.89790451
 Cl  0.95204398 -0.07935273  2.46659866
  C  1.93822969 -2.17247945  0.99224189
  C  1.37331888 -3.09500946  2.04205920
  C  0.27959718 -3.61039655  1.50279077
  C  0.13585607 -2.92358201  0.15404677
  O  1.50097366 -2.79013458 -0.21764716
  C  1.56764105 -0.03306377 -0.33676964
  C  2.44711244 -0.89935885 -1.30957128
  O  3.67363408 -1.12902751 -0.83131405
  C  4.56575283 -1.80339178 -1.71143639
  O  2.12215933 -1.14193678 -2.43987060
  C  2.49802668  1.18024440 -0.17216828
  C  3.00470290  1.66822835  1.02509453
  C  3.87295535  2.74941402  1.04587402
  C  4.27625048  3.36053577 -0.12440984
  C  3.82669752  2.85175644 -1.32994427
  C  2.96443386  1.77210310 -1.35046332
  N  0.33417438  0.25370263 -1.02465376
  C  0.17181534  1.22697987 -2.07316466
  C -0.85331972 -0.42606820 -0.55319588
  C -1.53703217 -1.03929861 -1.77375957
  C -2.75687243 -0.59525867 -2.27431744
  C -3.31325651 -1.16435228 -3.40855505
  C -2.65202634 -2.16858688 -4.08933303
  C -1.39616783 -2.55527513 -3.65500799
  C -0.84053028 -1.98689656 -2.52340440
  C -1.72056318  0.58334441  0.22589287
  C -1.10747687  1.72126625  0.74018630
  C -1.81879065  2.65866824  1.46767915
  C -3.17012595  2.48523972  1.69947634
  C -3.79250034  1.35376322  1.20605253
  C -3.07746575  0.41278504  0.48508853
  H -3.10467126 -1.70031864  2.07279284
  H -2.59389113 -2.48168645  0.54697037
  H -2.17136402 -3.19837561  2.12142144
  H  3.01156552 -2.01659788  1.02393149
  H  1.81739426 -3.26130205  3.00222538
  H -0.38378026 -4.34975605  1.90443601
  H -0.44640763 -3.44328120 -0.59875586
  H  4.52449112 -1.35210861 -2.70409198
  H  4.28730145 -2.85625784 -1.78598034
  H  5.55663659 -1.69850452 -1.27692049
  H  2.74484583  1.21918397  1.96431266
  H  4.23772069  3.10580327  1.99787657
  H  4.94861978  4.20552372 -0.10224692
  H  4.15523386  3.28650577 -2.26241867
  H  2.67314100  1.37276455 -2.30824823
  H -0.89361784  1.35093845 -2.25309246
  H  0.63487242  0.88812162 -3.00539049
  H  0.57794571  2.20246355 -1.79329743
  H -3.28040978  0.22567646 -1.81209944
  H -4.26732533 -0.80321844 -3.76498186
  H -3.09229646 -2.61707805 -4.96758999
  H -0.83251977 -3.29243712 -4.20730209
  H  0.16980862 -2.24435918 -2.25864793
  H -0.05376126  1.89035848  0.58873014
  H -1.30586636  3.52557863  1.85790363
  H -3.72913919  3.21777835  2.26278417
  H -4.84634916  1.19154365  1.38337649
  H -3.60393734 -0.46041503  0.13761961
