42
opt_min/./Product_5269_opt.xyz
  O  1.36426550 -2.15891919  2.76011801
  C  0.26154603 -2.45947547  2.75752126
  O -0.83298505 -2.79349719  2.73400032
  C -0.20169243 -1.20709092 -0.12901092
  C -1.39456611 -1.00517189 -0.66533495
  C -1.00510041 -3.74871586 -2.73324882
  O  0.09954712 -3.75657141 -2.43650146
  O -2.10925497 -3.73602078 -3.02898592
  C -1.59219146  0.43637131 -1.04267441
  C -2.63659331  1.18066460 -0.16507995
  N -3.53792450  0.40109916  0.46202991
  C -4.53637904  0.97859650  1.33671074
  O -2.63298749  2.38732304 -0.07930053
  C -2.05250159  0.56317508 -2.50019482
  N -0.29699105  1.03623237 -0.74850985
  C  0.27828728  2.04823135 -1.58379375
  C  0.52412750  0.11319091  0.02526986
  C  0.33882761  0.46800394  1.43473262
  N  0.07078940  0.72755188  2.51673496
  C  1.98761726  0.07053185 -0.34743890
  C  2.89079679  0.93675693  0.25732899
  C  4.22713931  0.90106700 -0.09716836
  C  4.67021148  0.00028703 -1.05323869
  C  3.77230253 -0.86080001 -1.65987732
  C  2.43398824 -0.82543260 -1.30896039
  H  0.20234105 -2.12693218  0.24997151
  H -2.08776242 -1.77460809 -0.95901974
  H -3.45391522 -0.60051813  0.42669082
  H -5.29527615  1.50162543  0.75097926
  H -4.06259726  1.70180772  2.00188342
  H -5.00476630  0.19290357  1.92217558
  H -2.99350721  0.03276038 -2.62817333
  H -1.31168086  0.13250648 -3.17115922
  H -2.20418045  1.60719868 -2.75859619
  H  1.15654328  2.45990547 -1.08983402
  H  0.58407501  1.67872841 -2.57487556
  H -0.44717464  2.85153166 -1.70423232
  H  2.54235030  1.63052914  1.00910408
  H  4.92633237  1.57565646  0.37392624
  H  5.71598283 -0.03083939 -1.32096959
  H  4.11172799 -1.56412354 -2.40551122
  H  1.73221797 -1.49302514 -1.78929569
