52
opt_min/./Product_5673_opt.xyz
  C  0.54550700  2.07570500  0.64186700
  C -0.34322150  3.27156973  0.81771550
  C -1.66419888  3.11838050  0.72933073
  N -2.26867452  1.93565663  0.40585388
  C -3.68848081  1.76443848  0.54076279
  C -1.50397714  0.81987419 -0.03861789
  C -0.06138731  1.17328692 -0.44110841
  C -0.15713046  1.95642948 -1.77417637
  N  0.95454518  2.63969133 -2.12434238
  O -1.19745581  2.07304518 -2.37663976
  C  0.61654579 -0.23704796 -0.50121070
  C  0.61087002 -0.81110853 -1.93272421
  C  0.90016387 -2.27506650 -2.11412063
  O  0.47309855 -0.09676161 -2.89386019
  C  2.10291039 -0.14838661 -0.12850935
  C  2.51305761 -0.34482519  1.18547090
  C  3.84923797 -0.24389730  1.53331875
  C  4.80118289  0.05474150  0.57453783
  C  4.40232361  0.26269008 -0.73383998
  C  3.06580625  0.16247059 -1.08255684
  N -0.12363729 -0.99041005  0.49156554
  C  0.08282020 -2.37354768  0.81462190
  C -1.31134004 -0.34165245  0.96662262
  C -2.53591661 -1.23176573  0.98047777
  O -2.69749136 -1.88062445 -0.17521028
  C -3.84512731 -2.70854218 -0.27757387
  O -3.28682693 -1.33847900  1.91629919
  H  1.56853087  2.36937647  0.40967185
  H  0.58191903  1.50830887  1.57949753
  H  0.09648990  4.23412635  1.00074380
  H -2.34305641  3.94648138  0.87417755
  H -4.17915268  2.73658012  0.50532229
  H -4.06545782  1.15777905 -0.28587231
  H -3.95071699  1.26985005  1.48501046
  H -1.98467361  0.39606478 -0.93751898
  H  1.85133497  2.42585343 -1.72659106
  H  0.93280001  3.10955605 -3.01443016
  H -0.03812801 -2.82490635 -2.06019824
  H  1.58669800 -2.65306235 -1.36391432
  H  1.31523200 -2.42152848 -3.11140341
  H  1.78619513 -0.56139817  1.95195514
  H  4.14339214 -0.39621337  2.56116067
  H  5.84419391  0.12951083  0.84489748
  H  5.13415085  0.50200992 -1.49243282
  H  2.78219654  0.33006171 -2.11062329
  H -0.39977995 -2.56659056  1.77570794
  H  1.14824422 -2.58776523  0.92815575
  H -0.34625960 -3.07101727  0.08501814
  H -1.18458333  0.04182058  1.99543490
  H -3.93918469 -3.33473962  0.61249554
  H -4.74311883 -2.09487349 -0.37298948
  H -3.70717432 -3.31761439 -1.16807076
