26
opt_min/./Product_3281_opt.xyz
  C  1.36214800 -1.32626500  0.66995900
  C  0.63063622 -1.31784871 -0.67348154
  N  0.10616472  0.03505803 -0.78092870
  C -1.22839205  0.31509145 -0.49271686
  C -1.57727809  1.55313353  0.05396644
  C -2.90062862  1.88956922  0.25164352
  C -3.91152314  1.00954112 -0.09833837
  C -3.57534399 -0.21120280 -0.65461907
  C -2.25367839 -0.55895861 -0.85678676
  N  1.04837838  0.89868877 -0.15291630
  C  1.84966715  0.13091669  0.80769914
  C  3.34696473  0.28139592  0.55596593
  H  2.17468835 -2.04831277  0.71160837
  H  0.66670606 -1.57686833  1.47303344
  H  1.32167945 -1.49585707 -1.50835791
  H -0.15679146 -2.06435076 -0.72690019
  H -0.78559846  2.22889737  0.33108003
  H -3.14134782  2.85127612  0.68318000
  H -4.94748338  1.27440006  0.05392675
  H -4.35236895 -0.90875512 -0.93953742
  H -2.02710132 -1.51019736 -1.31422037
  H  1.63612688  1.30714414 -0.87676003
  H  1.61730403  0.52415913  1.80656834
  H  3.68158365  1.27822103  0.83513109
  H  3.57443757  0.11672667 -0.49827638
  H  3.90229394 -0.44578212  1.14391011
