31
opt_min/./Product_3616_opt.xyz
  C -2.03993600 -1.08873300 -0.61629000
  C -1.22206859 -0.21249474  0.33322992
  C -2.08874355  0.15011184  1.53955848
  C  0.12220667 -0.86877060  0.79062045
  C  0.41871365 -2.21227630  0.17598656
  O  0.53732162 -2.38560606 -1.00833129
  C  1.16975040  0.15104140  0.21494287
  C  2.58104016 -0.37765138  0.15293282
  C  3.55718190  0.50128599 -0.57201698
  O  2.86907505 -1.42538477  0.67372213
  N  0.57979718  0.64675197 -1.01515638
  C -0.67000940  1.06496986 -0.41043805
  C -1.60064776  1.82550419 -1.32757738
  O -0.18823770  1.94338008  0.62330107
  C  0.94376038  1.40760628  1.08388316
  O  1.58680991  1.82084773  1.99732175
  H -2.96051089 -0.58043609 -0.88957858
  H -1.49821226 -1.33676420 -1.52514038
  H -2.30582459 -2.01733305 -0.11795537
  H -2.43249790 -0.75694665  2.02815219
  H -1.54120191  0.75234151  2.25833949
  H -2.95943653  0.71550387  1.21819447
  H  0.19621240 -0.92234063  1.87699715
  H  0.49117029 -3.05349894  0.88447657
  H  4.31749644  0.82723624  0.13310997
  H  3.06784819  1.35858703 -1.01996912
  H  4.05656452 -0.08643909 -1.33935398
  H  0.46938206 -0.08788831 -1.70721192
  H -1.06556266  2.67361046 -1.74180572
  H -2.45207756  2.19093487 -0.76337505
  H -1.94066235  1.19286877 -2.14161607
