48
opt_min/./Product_1135_opt.xyz
  C  0.62923200  0.77677800  1.10979300
  C -0.75360464  0.84772516  0.43079288
  C -0.78411526  2.00713938 -0.53580813
  O -0.04508371  2.18215576 -1.46844917
  O -1.74566422  2.87331890 -0.17915624
  C -1.90020710  4.05193640 -0.95884660
  C -0.88593419 -0.56123348 -0.26664556
  C -1.62958721 -0.51848371 -1.60262559
  C -2.91672832  0.27495675 -1.59123859
  O -1.30144649 -1.15370023 -2.56877144
  C -1.71432573 -1.53915324  0.57832027
  C -2.28317678 -2.65399227 -0.02794501
  C -3.00043184 -3.58227877  0.70639268
  C -3.16079104 -3.42545661  2.07094247
  C -2.58440583 -2.33196988  2.69099630
  C -1.87250181 -1.40029310  1.95455074
  N  0.46158232 -1.09959902 -0.34432558
  C  1.22974204 -0.76105510 -1.53809725
  C  1.07242279 -0.69244441  0.91509838
  C  2.55178152 -0.97253614  0.99418216
  C  3.46966414 -0.06563142  1.50266168
  C  4.81043742 -0.40404641  1.60669141
  C  5.24767673 -1.65307067  1.20999101
  C  4.33421714 -2.57100612  0.71529686
  C  2.99811400 -2.23648660  0.61656549
  H  1.32839235  1.44101081  0.60141939
  H  0.57200819  1.05711009  2.16151756
  H -1.55602827  1.01033847  1.14914503
  H -1.94894006  4.89857299 -0.27475568
  H -1.05490563  4.15809489 -1.64161999
  H -2.83017888  3.98272190 -1.52573433
  H -2.74203844  1.22329288 -2.09719188
  H -3.28789235  0.46206546 -0.58886081
  H -3.66153954 -0.26510229 -2.17425393
  H -2.14741919 -2.82964754 -1.08327062
  H -3.43359154 -4.43381895  0.20297450
  H -3.72118918 -4.14831271  2.64570704
  H -2.68448830 -2.19859239  3.75894582
  H -1.45084773 -0.56094695  2.48449346
  H  1.20193360 -1.60306281 -2.23043580
  H  0.84891195  0.12366419 -2.05018081
  H  2.26523424 -0.56565332 -1.26856578
  H  0.61902533 -1.31142617  1.70544428
  H  3.15538269  0.91568382  1.82621848
  H  5.51212502  0.31622264  2.00251315
  H  6.29269880 -1.91396004  1.28880983
  H  4.66578633 -3.55210598  0.40953765
  H  2.28255492 -2.94652353  0.23180462
