37
opt_min/./Product_3926_opt.xyz
  N  0.50310600 -0.08803200 -1.21142900
  C -1.04515032  0.27136033 -0.90525898
  N -1.84391561 -0.17384423 -1.97457264
  N -1.15921166  1.63900707 -0.70035457
  C -0.67021959  2.27786511  0.50491788
  N -1.24254664 -0.55278052  0.27148996
  C -2.42042321 -0.66781553  0.97312035
  C -3.61559277  0.06041968  0.39569573
  O -2.49535701 -1.34361505  1.98209886
  N  0.01275357 -0.88825674  0.85924080
  C  0.26438709 -0.79675135  2.26624168
  C  1.01659238 -1.09851291 -0.14928151
  C  2.40534086 -0.63388043  0.20311895
  O  2.37219858  0.85630405  0.23192864
  C  3.26699113  1.43830272  1.14335816
  O  3.19752437 -1.27015447  0.94234161
  C  1.01638699 -2.51938250 -0.69237790
  H  0.65980994 -0.40099624 -2.16784342
  H  1.10204898  0.72723018 -0.98798552
  H -1.60353997 -1.07371714 -2.35447649
  H -2.07916551  0.51443889 -2.67040208
  H -1.49266501  2.21961933 -1.44671376
  H  0.24487883  1.79351711  0.84379664
  H -0.44514897  3.31954278  0.29255430
  H -1.40906581  2.23775931  1.30996553
  H -3.46287722  1.13588402  0.39339734
  H -4.47010647 -0.17709674  1.02330932
  H -3.81184566 -0.26786898 -0.61969978
  H -0.02535469  0.18037074  2.67131753
  H -0.28005684 -1.56564050  2.81655344
  H  1.33238832 -0.94070686  2.40920835
  H  2.71517080  2.01949556  1.88889366
  H  3.82572672  0.63888083  1.63960095
  H  3.96485235  2.08914674  0.60982121
  H  1.51441597 -3.13951159  0.04600896
  H  0.00069757 -2.87667496 -0.84683325
  H  1.58111312 -2.58481160 -1.61945749
