45
opt_min/./Product_1589_opt.xyz
  C -3.95108000  3.37095500  0.25954200
  N -3.16870793  2.18171949  0.50395640
  C -1.99437865  1.96094474 -0.12567070
  O -1.51995442  2.75279538 -0.91376615
  C -1.35987476  0.58941736  0.13447557
  C  0.11341286  0.58928443 -0.14296295
  C  0.95506999 -0.45451317 -0.38935487
  C  0.72967884 -1.92813748 -0.43465630
 Cl  0.18604707 -2.33039603 -2.11895450
 Cl  2.29977838 -2.77665142 -0.17033389
  C -0.23117571 -2.57571547  0.57487711
  C -1.73113669 -2.34078157  0.36376709
  C -2.35249835 -1.39938762  1.39482240
  C -1.63355427 -0.05464632  1.50587759
  C  2.30162126  0.14974802 -0.71676628
  C  2.75866701 -0.19069240 -2.16389254
  C  2.67789662  0.96807524 -3.10337159
  O  3.11449765 -1.28787731 -2.47154818
  C  3.47975903 -0.22967449  0.24316343
  O  4.60991317 -0.36057670 -0.14292060
  N  3.09761289 -0.27770305  1.52952460
  C  4.02997105 -0.57290109  2.59048306
  N  2.14786549  1.55953478 -0.52311487
  C  0.93119478  1.78513606 -0.19715562
  H -3.45359075  3.93986840 -0.52380015
  H -4.95698474  3.10693853 -0.07078269
  H -4.01862646  3.97571813  1.16221476
  H -3.60515451  1.45195740  1.04063755
  H -1.83441076 -0.01864746 -0.64724557
  H -0.03512111 -3.64536419  0.53473240
  H  0.07281193 -2.23650749  1.56664793
  H -2.25311955 -3.29518034  0.41273941
  H -1.89128956 -1.95938320 -0.64329154
  H -3.39891510 -1.23745584  1.12368240
  H -2.33899679 -1.88095433  2.37554639
  H -2.21768462  0.60519097  2.15029687
  H -0.67888376 -0.19516037  2.01676467
  H  3.18038861  1.82673538 -2.66516068
  H  3.11734456  0.69954085 -4.06065570
  H  1.62938372  1.23164790 -3.24110047
  H  2.13128858 -0.13982115  1.77133634
  H  5.03476502 -0.42306129  2.20149789
  H  3.85681206  0.09441272  3.43363260
  H  3.92812040 -1.60972767  2.92077975
  H  0.59793592  2.78216005  0.01099007
