33
opt_min/./Product_3554_opt.xyz
  C -0.74443900 -1.85118800 -1.71398000
  C -0.65941892 -1.27068797 -0.29006617
  C -2.00465954 -0.85343805  0.34786705
  C -3.21645744 -1.76731887  0.24013564
  C -2.19456494  0.55365598 -0.26941198
  C -3.06344088  1.46459419  0.57886772
  C -2.40820938  1.97088265  1.83866808
  O -4.19994906  1.72262062  0.27961986
  N -0.85441825  1.06330533 -0.43068406
  C -0.01669171  0.10317449 -0.39794409
  C  1.41608411  0.33661193 -0.51618192
  C  1.90078859  1.64406452 -0.44117456
  C  3.25432923  1.89652980 -0.53718777
  C  4.14686276  0.84880309 -0.70488818
  C  3.67668198 -0.45038663 -0.78216752
  C  2.32172773 -0.70981285 -0.68457467
  H -0.72062478 -1.05010277 -2.45271298
  H -1.65389910 -2.42416216 -1.86277894
  H  0.09921198 -2.50852800 -1.90971506
  H -0.10616906 -1.95360489  0.35630036
  H -1.78934628 -0.69146991  1.41500253
  H -3.20847679 -2.34773953 -0.67789154
  H -4.12603859 -1.16905903  0.23931916
  H -3.25701582 -2.45375586  1.08244795
  H -2.66715933  0.46680000 -1.25920796
  H -2.70816521  1.32846023  2.66719489
  H -1.32707755  1.96080269  1.74688327
  H -2.76678133  2.97649732  2.04852844
  H  1.18894309  2.44451082 -0.31415178
  H  3.62139202  2.91069739 -0.47885310
  H  5.20555328  1.05069327 -0.77704305
  H  4.36902528 -1.26948226 -0.91384850
  H  1.97079774 -1.72695331 -0.75308510
