52
opt_min/./Product_1137_opt.xyz
  C -3.42818548  0.33786853  0.93860524
  C -2.00591889  0.89477543  1.12832540
  C -1.87771225  1.33269507  2.59705068
  C -1.00001887 -0.20817628  0.85331298
  C  0.12938016 -0.33856307  0.14477714
  C  1.02220868  0.54085551 -0.72318076
  C  0.74621884  0.15528642 -2.09628173
  N  0.48631886 -0.06081141 -3.18943712
  C  2.48476670  0.26731992 -0.36886345
  C  2.87034973  0.23691111  0.96855083
  C  4.19898766  0.07000035  1.30944775
  C  5.15277678 -0.07211429  0.31205019
  C  4.77628275 -0.04074719 -1.01608045
  C  3.44510852  0.13238583 -1.35994000
  C  0.90187654  2.09225412 -0.75726455
  C  0.54180601  2.74291526  0.57623640
  C -0.91544846  3.19478749  0.58228601
  C -1.88746730  2.09057741  0.16935315
  C  0.62854370 -1.78445831  0.26240903
  C  0.20113329 -2.62163654 -0.95364745
  N  0.03199961 -2.18929734  1.52195541
  C  0.08839324 -3.58075594  1.89172373
  C -1.26011590 -1.53249766  1.58151732
  C -2.30007126 -2.32621597  0.94926856
  N -3.05948104 -3.02314885  0.45029884
  H -3.62914346 -0.52037411  1.57150081
  H -4.15294069  1.10723543  1.19300701
  H -3.58957839  0.04090640 -0.09482790
  H -2.21823938  0.54327903  3.26282749
  H -2.50131434  2.20235746  2.78053003
  H -0.85200519  1.57688563  2.85877860
  H  2.12429054  0.31709967  1.74488864
  H  4.49039274  0.04361776  2.34821926
  H  6.19095045 -0.20806964  0.57478795
  H  5.51836818 -0.15674644 -1.79086720
  H  3.15779755  0.16471703 -2.40045213
  H  0.18136187  2.39870125 -1.51594409
  H  1.87484076  2.45220169 -1.09841535
  H  1.17421096  3.61621838  0.74136525
  H  0.73000322  2.04496671  1.38852678
  H -1.02701353  4.02097343 -0.12650437
  H -1.17039972  3.58520682  1.56650031
  H -1.61809273  1.70537834 -0.81340905
  H -2.87326020  2.54417398  0.06547087
  H  1.71333460 -1.87168183  0.36528153
  H -0.86664550 -2.53161822 -1.13520875
  H  0.44391957 -3.66747081 -0.78460980
  H  0.73042533 -2.29349157 -1.84252410
  H -0.53921026 -4.24006658  1.27670307
  H -0.23136573 -3.67270701  2.92988481
  H  1.12248180 -3.90998977  1.81812597
  H -1.54015290 -1.37020912  2.63134790
