29
opt_min/./Product_114_opt.xyz
  F -1.50043796  3.01900376  1.20298003
  C -1.80340732  1.83272157  0.68537249
  C -2.02403700  0.66980287  1.28067702
  C -2.41218510 -0.24480391  0.13704581
  C -1.16351285 -0.60531243 -0.72581789
  C -0.86113102  0.76185302 -1.37657254
  C -2.02787896  1.62227349 -0.79919213
  O -3.06360726  0.65282940 -0.76153231
  C  0.61860604  1.03971092 -1.02764970
  C  0.89968557  2.12239918  0.03027225
  C  0.94011938  3.52384572 -0.51843468
  O  1.15947753  1.83696650  1.16627825
  O  1.16420023 -0.19955992 -0.62419352
  C  0.16845975 -1.05669888 -0.08130666
  C  0.53229708 -2.49936189 -0.46182085
  C  0.15388925 -1.01722411  1.37844949
  N  0.15199088 -1.10947096  2.51743104
  H -1.97374970  0.40175977  2.31381188
  H -3.05932155 -1.07847597  0.39449354
  H -1.47722293 -1.33608163 -1.46997565
  H -0.97326365  0.72290343 -2.46140944
  H -2.31184001  2.48949856 -1.38874174
  H  1.17257528  1.32985617 -1.93001880
  H  0.38497819  3.61867090 -1.44656079
  H  1.98407011  3.78108656 -0.69548565
  H  0.55430788  4.21591744  0.22640054
  H  1.47222350 -2.77500223  0.00966448
  H  0.65088310 -2.56477206 -1.54144408
  H -0.24662626 -3.18309370 -0.13273445
