35
opt_min/./Product_232_opt.xyz
  C -2.49538400  2.41152700  0.29235500
  O -1.34379352  1.74127118  0.76777423
  C -0.76543134  0.84378557 -0.12732715
  C  0.50052170  0.15164755  0.47173167
  F  0.64556904  0.34182143  1.82280120
  C  0.24878572 -1.33943879  0.17016223
  C -0.83099119 -1.83332208  1.13640983
  C -2.08806143 -1.06806201  0.67989920
  C -1.62185021 -0.35005008 -0.59664922
  C -0.54057382 -1.28432264 -1.13980629
  C  1.64223335  0.83464285 -0.33330518
  C  2.66132224 -0.15613795 -0.88436562
  O  3.36505651 -0.67682813  0.12285981
  C  4.38919228 -1.61300055 -0.20104044
  O  2.82001889 -0.42717086 -2.04026908
  C  2.37465916  1.94177460  0.44887430
  N  0.95069345  1.52035182 -1.41586918
  N -0.25429322  1.56308741 -1.29781276
  H -2.75161015  3.12887683  1.07023791
  H -3.33026330  1.71752090  0.14945790
  H -2.28683852  2.93040219 -0.64600774
  H  1.15682691 -1.93748035  0.16080644
  H -0.96229468 -2.91008998  1.01088514
  H -0.58413173 -1.64547780  2.17943734
  H -2.39356297 -0.33669527  1.42957224
  H -2.92829192 -1.73145697  0.47788217
  H -2.41416860 -0.06905609 -1.28563579
  H  0.01542324 -0.87291616 -1.98132951
  H -0.93039584 -2.26180024 -1.42149871
  H  4.26411436 -1.95633132 -1.22929949
  H  5.35850128 -1.12702409 -0.08576888
  H  4.30403234 -2.44176305  0.50070708
  H  1.79324917  2.86120506  0.39698662
  H  2.47380432  1.64914826  1.49069588
  H  3.35838302  2.11741532  0.02253179
