43
opt_min/./Product_1321_opt.xyz
  C -2.48567700  3.74941500 -0.27140500
  N -1.58671531  2.68316791 -0.64856941
  C -1.34018432  1.64143706  0.18027547
  O -1.88600017  1.52863856  1.25166039
  C -0.31766643  0.65031445 -0.39209410
  C  0.18765714 -0.31601587  0.63045613
  C -0.39748443 -1.15360396  1.52199517
  C -1.77600419 -1.63680675  1.78910870
 Cl -1.61017677 -3.21194195  2.68839428
 Cl -2.55494727 -0.54280209  3.00351250
  C -2.76205327 -1.91190560  0.64505073
  C -2.25541857 -1.97315708 -0.79906623
  C -2.21781504 -0.64812398 -1.56603251
  C -0.84909897  0.01012566 -1.68207144
  N  0.56859366 -1.56005381  2.43744910
  N  1.82936604 -0.96589592  2.17224949
  N  1.55428169 -0.18269357  0.99410200
  C  2.64863372  0.26091112  0.29105265
  C  2.70792935  0.33639245 -1.10700104
  C  3.84579052  0.80489438 -1.73246801
  C  4.95983519  1.17973437 -0.99959459
  C  4.92760144  1.06409942  0.38232364
  C  3.79462639  0.61206291  1.02301835
  H -1.97276191  4.51059394  0.32328596
  H -3.28450366  3.32524202  0.33533838
  H -2.90361641  4.20975430 -1.16407034
  H -1.05496762  2.79781128 -1.49489246
  H  0.54779624  1.26789287 -0.66097270
  H -3.18353295 -2.89700036  0.85397643
  H -3.58451371 -1.19780346  0.70623870
  H -2.97728254 -2.60935693 -1.31664168
  H -1.29138989 -2.47975657 -0.84588289
  H -2.93011407  0.05286622 -1.12902569
  H -2.54846955 -0.84868357 -2.58914229
  H -0.13022117 -0.72878282 -2.04294147
  H -0.92350018  0.79050158 -2.44489623
  H  0.40196421 -2.03136046  3.30322026
  H  2.49866634 -1.71438344  1.89598048
  H  1.88618519 -0.01118877 -1.71166095
  H  3.86757390  0.85784736 -2.81176062
  H  5.84599780  1.54199659 -1.49764913
  H  5.79584412  1.33158636  0.96663243
  H  3.76187426  0.53285523  2.09818240
