37
opt_min/./Product_975_opt.xyz
  C -0.07112178 -2.49707716  0.30529595
  C -0.56689007 -1.11083838  0.70829168
 Cl -1.85449104 -1.35028700  1.91912021
  C  0.56608517 -0.18915885  1.22753860
  C  1.52569095 -0.86347729  2.19619346
 Cl -0.22977459  1.13639559  2.14963057
  C  1.21566370  0.30631219 -0.10405989
  C  2.43825862 -0.45393827 -0.36448238
  N  3.38705303 -1.02738051 -0.64350192
  C  1.75255340  1.77846700 -0.24185098
  C  2.08201078  2.56631745  0.98810722
  O  1.98334671  2.20158863 -1.33881753
  N  0.26463384 -0.09042317 -1.14552358
  C  0.32769020  0.41673258 -2.49620668
  C -1.02904850 -0.32410715 -0.54399358
  C -1.77823690  1.02740949 -0.25953467
  N -3.03150831  0.88711436  0.18701743
  C -3.87401568  2.02052147  0.48707093
  O -1.23428749  2.08118841 -0.50024977
  C -1.90850955 -1.09476599 -1.39341732
  N -2.66398117 -1.65529541 -2.04469645
  H  0.18127721 -3.07957557  1.18880539
  H -0.85562064 -3.02275150 -0.23717635
  H  0.80261363 -2.42521527 -0.33901253
  H  2.27631120 -0.15542593  2.54068849
  H  0.96942115 -1.22099192  3.06153358
  H  2.04000759 -1.70056659  1.73053528
  H  1.19679418  3.12700165  1.28609321
  H  2.85616939  3.28494221  0.72046232
  H  2.41334503  1.95278923  1.82012627
  H -0.05113507  1.43881118 -2.59486900
  H -0.26087559 -0.25150259 -3.12818880
  H  1.36367890  0.39145527 -2.82875564
  H -3.40697023 -0.03202293  0.36998586
  H -3.31485341  2.92430858  0.25048005
  H -4.14477757  2.02606821  1.54464681
  H -4.78148657  1.98582375 -0.11748390
