41
opt_min/./Product_843_opt.xyz
  C -0.67629200  0.56049100  2.13994100
  C -0.86766894  1.08634707  0.72393400
  F -1.54837203  2.27657329  0.81847289
  C  0.44809667  1.32881355 -0.04989632
  C  1.54462838  2.06372328  0.69019408
  F  0.09706201  2.13058254 -1.14045580
  C  0.76014349 -0.07584152 -0.60924754
  C  1.65827224 -0.92533595  0.35335686
  N  2.96094877 -0.63372882  0.33686697
  C  3.89961535 -1.37588575  1.14900279
  O  1.16128258 -1.78828810  1.04517563
  C  1.47386610  0.01306929 -1.96383550
  C  0.81390188 -0.68698060 -3.09124716
  O  2.53660226  0.58924023 -2.03412175
  O -0.48539612 -0.74134610 -0.69909764
  C -1.55464040  0.04709340 -0.20721499
  C -2.59350509 -0.83094213  0.51467181
  C -2.44980691 -2.30590300  0.33511049
  O -3.47907149 -0.31527040  1.14800064
  C -2.32004875  0.66520393 -1.41291714
  C -3.37342514  1.67447723 -1.10730123
  O -2.05984290  0.27981521 -2.52249612
  H -0.23972937 -0.43418434  2.12437146
  H -1.64902520  0.52156845  2.62524805
  H -0.04161608  1.23951589  2.70385363
  H  1.95488685  1.45731671  1.49097661
  H  1.12834668  2.98245978  1.09952157
  H  2.32859586  2.32042783 -0.01891755
  H  3.30812259  0.06593741 -0.30475113
  H  4.88120183 -0.92355433  1.05774763
  H  3.94024541 -2.41844150  0.82675494
  H  3.57819970 -1.36043315  2.19123146
  H  1.33163898 -0.47080826 -4.02260213
  H  0.84593402 -1.75823691 -2.89343765
  H -0.23338688 -0.39295373 -3.14457890
  H -1.49984094 -2.55703644 -0.12124076
  H -2.54310584 -2.78587953  1.30805840
  H -3.27281126 -2.65822949 -0.28447003
  H -4.15008680  1.61853321 -1.86688590
  H -2.91490486  2.66180646 -1.16252155
  H -3.78707969  1.53854524 -0.11269362
