52
opt_min/./Product_5726_opt.xyz
  C  1.90707100  0.79133000  1.24382200
  O  2.46901757  0.94317377  2.31303021
  C  2.65565017  0.76717501 -0.01641840
  O  3.92812738  1.20139308 -0.12480657
  C  4.56628192  1.90568551  0.92163775
  C  2.10479052  0.25844935 -1.17283441
  O  2.86281190  0.34058241 -2.29387999
  C  2.69276404 -0.63624905 -3.30722951
  C  0.71413534 -0.17345728 -1.22453698
  O  0.09130170 -0.22687344 -2.27365283
  C  0.07940904 -0.55404548  0.10596187
  C  0.59483417 -1.94840736  0.44092142
  C  0.39791068  0.53711321  1.17448097
  C -0.11583335  0.17947233  2.57765553
  N -0.39456130  1.67189628  0.70562394
  C  0.23896668  2.67637587 -0.12200509
  N -1.52755860  1.10785577  0.02271893
  C -2.76319258  1.78032973  0.33919400
  C -1.44497988 -0.33483892 -0.06689745
  C -2.32579857 -1.10044539  0.97179590
  O -2.96005146 -0.53393128  1.83637305
  N -2.29944836 -2.43823403  0.83513305
  C -3.09681879 -3.28873541  1.69188945
  C -1.92222587 -0.84275469 -1.43992491
  O -1.84624276 -2.01273352 -1.75625107
  O -2.58704051  0.07857788 -2.11585354
  C -3.06986473 -0.29224602 -3.40062057
  H  5.51633787  2.22968730  0.49700337
  H  3.98766726  2.77790672  1.23498017
  H  4.74464653  1.26922600  1.78967842
  H  3.47538557 -0.42867816 -4.03513750
  H  2.82544497 -1.64415737 -2.90317091
  H  1.71457650 -0.56279295 -3.78475745
  H  0.17333906 -2.33262937  1.36489961
  H  1.67873884 -1.91342749  0.54739876
  H  0.35094954 -2.63591916 -0.36807858
  H -0.99540571  0.77358220  2.80311908
  H -0.37476281 -0.86817981  2.67580129
  H  0.65405550  0.41406899  3.30970549
  H  0.45859575  2.33624887 -1.14085792
  H -0.44402302  3.52391152 -0.18111453
  H  1.16017611  3.00739326  0.35417786
  H -2.72252443  2.78429796 -0.08811784
  H -2.94809766  1.85649086  1.41413689
  H -3.58518175  1.24215019 -0.12360710
  H -1.93471783 -2.82863986 -0.02460844
  H -3.43707616 -4.15846854  1.13535271
  H -3.95444912 -2.72283813  2.05855657
  H -2.51199156 -3.61899750  2.55389644
  H -4.09658914 -0.65638964 -3.31691177
  H -2.43911094 -1.07488537 -3.82373079
  H -3.03825892  0.60367064 -4.01685216
