55
opt_min/./Product_2107_opt.xyz
  C  2.31958900 -3.69788000  0.08443600
  O  1.85847701 -2.40666686  0.45490386
  C  2.38124563 -1.35916541 -0.16744848
  O  3.19136945 -1.42776517 -1.05222621
  C  1.79128817 -0.05008048  0.36943317
  C  0.73538895  0.57674992 -0.58389169
  F  0.81921710  0.08823031 -1.86477022
  C  1.12285524  2.07540943 -0.56578651
  C  2.32734739  2.23073937 -1.50593822
  C  3.45155863  1.49672616 -0.74520188
  C  2.79185798  1.10843915  0.58418171
  C  1.81874934  2.27197594  0.78296299
  C -0.63244440  0.15619628  0.05810811
  C -1.79041491  1.08634757 -0.22446127
  C -1.92699244  1.73521020 -1.44593913
  C -3.02366782  2.54396323 -1.68904082
  C -3.99903184  2.70729205 -0.72134644
  C -3.88146163  2.04529320  0.48811189
  C -2.78746511  1.23474995  0.73269018
  C -1.03601668 -1.24048117 -0.41981700
  C -1.44584443 -1.44651058 -1.73143930
  C -1.80589542 -2.70906312 -2.16579353
  C -1.78010774 -3.78171985 -1.29202347
  C -1.40076065 -3.57717576  0.02181119
  C -1.03308753 -2.31685920  0.45733874
  N -0.33191494  0.10009124  1.48635496
  N  1.02008027 -0.29177249  1.58237181
  C  1.57580782 -0.75410547  2.72768522
  C  0.61726206 -0.87993089  3.88656169
  O  2.75756457 -1.02737118  2.79416298
  H  1.44047985 -4.31853348 -0.09193618
  H  2.90893909 -4.10119110  0.90876727
  H  2.92842454 -3.63106008 -0.81921641
  H  0.29195418  2.74434509 -0.77920159
  H  2.14942397  1.80687602 -2.49157092
  H  2.55596677  3.29079229 -1.62891411
  H  3.79715064  0.61825752 -1.28299128
  H  4.30596074  2.14858979 -0.56439305
  H  3.48725163  0.89601570  1.39206580
  H  1.18020356  2.18510871  1.65942433
  H  2.32953376  3.23325510  0.83310851
  H -1.18213200  1.60900548 -2.21743851
  H -3.11502553  3.04453911 -2.64199704
  H -4.85349392  3.33980047 -0.91377160
  H -4.64656803  2.15317700  1.24301540
  H -2.70922962  0.69936759  1.66788577
  H -1.48269690 -0.62340957 -2.42657429
  H -2.11137175 -2.85235583 -3.19159881
  H -2.06033894 -4.76871542 -1.63186585
  H -1.39086069 -4.40308078  0.71854248
  H -0.74192325 -2.17853079  1.48485360
  H -0.46192498  1.03061292  1.89426567
  H  0.50539385  0.09407030  4.36316271
  H  1.03665455 -1.57171853  4.61306524
  H -0.35928201 -1.21955045  3.55398427
