80
opt_min/./Product_3099_opt.xyz
  C -2.42689700  4.07486300 -2.08613600
  O -2.08008790  3.42758695 -0.87199753
  C -1.17020701  2.44295280 -0.96206970
  O -0.70294316  2.08195759 -2.00773284
  C -0.80665231  1.91879107  0.42797176
  C -0.51938910  0.44347292  0.29981039
  C  0.50687395 -0.40989366  0.36784869
  C  1.96400846 -0.11957271  0.71734814
  C  2.80751663 -1.39771888  0.88707167
  C  3.01461076 -2.01201026  2.11840239
  C  3.86007391 -3.10072147  2.25635705
  C  4.53870814 -3.60728222  1.16464289
  C  4.35556726 -3.00605487 -0.06793261
  C  3.51192130 -1.91854660 -0.19832736
  C  2.67661164  0.65609445 -0.38528867
  C  3.99581231  1.05810918 -0.18023814
  C  4.70034981  1.71272567 -1.17187686
  C  4.11011863  1.95667508 -2.40176008
  C  2.82314269  1.50899253 -2.63591738
  C  2.11766246  0.85117576 -1.64134224
  C  1.95244400  0.68359179  2.05511211
  C  2.27588486  2.17444161  2.02575554
  C  1.58489740  3.05309683  0.99564680
  C  0.06657921  3.06001792  1.02444866
  C  0.02533583 -1.84921764  0.16434095
  C  0.70606639 -2.57154939 -1.01308458
  C  0.12736659 -2.64474707  1.48909625
  N -1.37133247 -1.66197620 -0.20319968
  C -2.28075460 -2.77007906 -0.23488520
  C -1.83148138 -0.33236361  0.11261637
  C -2.55157397 -0.35068547  1.48645657
  N -3.81836890 -0.81433001  1.45590792
  C -4.60423604 -1.00125544  2.65147476
  O -1.99162992 -0.05307915  2.52432823
  C -2.71941714  0.17981330 -1.00713634
  C -2.49590564 -0.27419384 -2.30257851
  C -3.30333126  0.13718146 -3.34562474
  C -4.35512675  1.00758976 -3.11116648
  C -4.57894879  1.47601835 -1.82846554
  C -3.76505278  1.07004976 -0.78437110
  H -1.63013135  4.75821216 -2.38825649
  H -2.57946359  3.33654703 -2.87547583
  H -3.34504162  4.62238520 -1.88995924
  H -1.72653993  1.96549248  1.02031679
  H  2.50551775 -1.67319064  3.00716624
  H  3.98762114 -3.55011579  3.23078550
  H  5.20255817 -4.45239529  1.27172140
  H  4.88245625 -3.37878439 -0.93442240
  H  3.41469043 -1.46686764 -1.17281808
  H  4.48727510  0.82755268  0.75312490
  H  5.71839485  2.02548749 -0.98871061
  H  4.66226821  2.47083129 -3.17502385
  H  2.35732112  1.66875636 -3.59697670
  H  1.11496863  0.51366059 -1.85002627
  H  2.69286803  0.25797090  2.73253255
  H  0.97941362  0.54493167  2.52892951
  H  3.35033809  2.33100874  1.92399863
  H  2.00319232  2.56118635  3.01402166
  H  1.88501461  4.07807769  1.24516240
  H  1.94518520  2.87235735 -0.01501187
  H -0.26198560  3.24252705  2.05040832
  H -0.22457040  3.95045347  0.45963720
  H  1.18678519 -1.85770457 -1.67336340
  H -0.04628334 -3.09581173 -1.59769860
  H  1.43907956 -3.29903023 -0.68119798
  H  0.26743710 -1.96652548  2.32465184
  H  0.93132908 -3.37261861  1.46977245
  H -0.80122140 -3.18002380  1.66957296
  H -3.01555456 -2.61982699 -1.03240741
  H -1.72630739 -3.67915713 -0.46000430
  H -2.82767496 -2.93944428  0.70490039
  H -4.24503972 -1.03426234  0.57079632
  H -5.60929657 -0.60472776  2.50838718
  H -4.10666577 -0.46824380  3.46053311
  H -4.67454807 -2.05947881  2.91720967
  H -1.67002678 -0.94310274 -2.48548822
  H -3.10966919 -0.21946745 -4.34652111
  H -4.99238338  1.32599917 -3.92329160
  H -5.38817105  2.16599606 -1.63675282
  H -3.94593663  1.45908749  0.20770368
