44
opt_min/./Product_1573_opt.xyz
  C  4.03587970  0.22166386  3.51667836
  N  3.07789457 -0.25443155  2.54944687
  C  3.38923985 -1.23336836  1.66374857
  O  4.47677171 -1.76316438  1.61319998
  C  2.27327480 -1.59195551  0.75525557
  C  2.30212611 -2.01381533 -0.51255487
  C  3.39743902 -2.14756524 -1.51015413
  F  3.73956144 -3.42410314 -1.72446097
  F  4.50788272 -1.48057508 -1.20228558
  F  2.99385635 -1.66611905 -2.70892924
  C  0.84251338 -2.23614414 -0.89702470
  C  0.27238835 -0.79615788 -1.09810687
  C  0.24738204 -0.30027087  0.36726743
  C  0.78607086 -1.57208006  1.09966624
  O  0.27214838 -2.63017424  0.32628554
  C -1.23395546  0.04054302  0.63802383
  C -1.43827368  1.54024796  0.31593771
  O -0.54865969  2.29741687  0.96316937
  C -0.65545657  3.71067442  0.82962486
  O -2.31598376  1.97798930 -0.37868639
  C -1.70045459 -0.16358017  2.08095441
  N -1.92712073 -0.84602105 -0.27430125
  C -3.37102469 -0.81434081 -0.35774865
  C -1.20544761 -0.79019624 -1.52882675
  C -1.54641058 -1.90056204 -2.39325736
  N -1.82969327 -2.75069116 -3.10172151
  H  4.05875467  1.31085928  3.51802425
  H  5.01185652 -0.16696634  3.23373994
  H  3.79071713 -0.13681294  4.51875204
  H  2.15698364  0.15032465  2.56095621
  H  0.63953379 -2.94415877 -1.69424110
  H  0.89332561 -0.21307336 -1.77422996
  H  0.89336922  0.55505325  0.55657352
  H  0.52256913 -1.68694438  2.14474046
  H -1.62964919  3.97181855  0.41417863
  H  0.13624771  4.06360629  0.16804826
  H -0.53301527  4.13934976  1.82170349
  H -1.04754927  0.37307363  2.76422346
  H -2.71152081  0.21844471  2.19381927
  H -1.70450112 -1.22196974  2.32367940
  H -3.78420407 -1.17959964  0.58114634
  H -3.77688986  0.17908462 -0.57444881
  H -3.67901232 -1.49742114 -1.14629265
  H -1.42116897  0.13061385 -2.10761333
