28
opt_min/./Product_3354_opt.xyz
  C  0.79502000  2.00405500  0.87555400
  C  0.04253121  0.98168535  0.04634311
  C -0.69517277  1.64616360 -1.11621791
  C -0.91823020  0.14446718  0.95938487
  C -2.23536155  0.85823035  1.09953079
  O -2.45376475  1.66036041  1.96522480
  N -0.92604500 -1.20461131  0.40588134
  C -2.17706136 -1.75487870 -0.06990996
  N  0.03208662 -1.19761420 -0.70625295
  N  0.87799689 -0.08973751 -0.49374342
  C  2.20511417 -0.06593829 -0.74010038
  C  2.80152485 -1.38961096 -1.18763098
  O  2.87059708  0.94752121 -0.64692632
  H  0.06849379  2.63945272  1.37961164
  H  1.43638506  2.61109725  0.24651510
  H  1.41931159  1.51901890  1.61934647
  H -1.24143463  0.90729216 -1.69683431
  H -1.38121692  2.40546094 -0.75331660
  H  0.03589847  2.12022382 -1.76603025
  H -0.46623508  0.08742145  1.95899859
  H -2.99505172  0.63037928  0.33345927
  H -1.98975351 -2.79236069 -0.34537012
  H -2.59283192 -1.23993437 -0.94236874
  H -2.89255973 -1.73807828  0.74756511
  H  0.57640523 -2.05908238 -0.61718477
  H  2.69706583 -2.13105160 -0.39483256
  H  3.85753564 -1.23126879 -1.37882748
  H  2.32795277 -1.75269669 -2.09490411
