49
opt_min/./Product_5151_opt.xyz
  C  4.66653500 -0.71519700 -0.69572800
  C  4.11830056 -0.03907396  0.52521381
  C  5.03494461 -0.04502622  1.71168245
  C  2.91187712  0.53293318  0.59002967
  C  1.93613319  0.61534944 -0.47398561
  C  0.74681354  1.18722431 -0.30079031
  C -0.36320533  1.30117007 -1.31435833
  C  0.09223651  0.91230334 -2.71029772
  C -0.91618567  2.73929779 -1.25762358
  C -1.89898997  2.63016179 -0.12169580
  C -2.45046622  3.78754802  0.62616574
  C -2.48958583  5.09722994 -0.11984239
  O -2.83761825  3.68285833  1.76550824
  N -2.23201729  1.44296342  0.17713497
  C -1.58136404  0.49563053 -0.69955770
  C -2.67787152 -0.00710165 -1.65000957
  C -3.91127120 -0.45847371 -0.91150237
  O -2.57322435 -0.07398160 -2.84571053
  C -1.10498000 -0.73854339  0.04041010
  C -0.65212663 -1.84328871 -0.66812334
  C -0.15407845 -2.94436896  0.00681295
  C -0.11647984 -2.95458845  1.38984567
  C -0.59600300 -1.86679234  2.09911936
  C -1.09110873 -0.76370043  1.42920911
  H  5.34360920 -1.51608995 -0.40528608
  H  3.88460571 -1.13286612 -1.31785479
  H  5.23298819 -0.00026253 -1.29566251
  H  4.75010635  0.71334144  2.43724040
  H  4.99276244 -1.01918572  2.20486769
  H  6.06364100  0.12615696  1.40517194
  H  2.60416722  0.98861975  1.52410921
  H  2.20286918  0.17639297 -1.42236381
  H  0.50637551  1.60138483  0.67197816
  H  0.93071481  1.54416335 -3.00075778
  H -0.70751545  1.04527559 -3.43000914
  H  0.41299137 -0.12263448 -2.73531851
  H -1.45246260  2.97988337 -2.18132615
  H -0.14380199  3.48918727 -1.08477351
  H -3.36250467  5.66277639  0.19364612
  H -2.49058129  4.96806328 -1.19684374
  H -1.60877704  5.67366766  0.16752410
  H -4.79271250 -0.05279693 -1.40497058
  H -3.97255059 -1.54427066 -0.98372843
  H -3.88493457 -0.15594037  0.12836527
  H -0.69620775 -1.84936472 -1.74503525
  H  0.20336213 -3.79766346 -0.55126393
  H  0.27690272 -3.81200578  1.90960587
  H -0.58201221 -1.87403073  3.17973619
  H -1.46689332  0.08826874  1.97665883
