39
opt_min/./Product_4246_opt.xyz
  C -1.78241245 -1.77499263 -1.61196092
  C -0.76021771 -1.44809248 -0.53447258
  C  0.58419908 -0.93464984 -1.05641548
  C  1.44255939 -2.00657059 -1.70830774
  C  1.20638216 -0.25304386  0.18270443
  C  1.97780196 -1.21797590  1.09797696
  C  2.18966362  0.83276975 -0.27749477
  O  2.55899384  0.97780909 -1.41271081
  O  2.63056091  1.58514048  0.73409780
  C  3.55991549  2.60612426  0.38975481
  N  0.05205374  0.36320836  0.82788851
  C  0.12862884  0.81226413  2.19679509
  C -1.18342017 -0.32482015  0.43898862
  C -1.98959351  0.81887525 -0.20277697
  O -2.76858675  1.40068685  0.70798063
  C -3.47000876  2.56649436  0.28879436
  O -1.85779089  1.20921144 -1.33068528
  C -1.91592506 -0.89543624  1.54946772
  N -2.47059687 -1.39810512  2.41504502
  H -1.42947034 -2.61287085 -2.20664195
  H -2.73266837 -2.05292994 -1.15957280
  H -1.93768490 -0.92470092 -2.26845519
  H -0.58876765 -2.35239551  0.06439040
  H  0.38804580 -0.14773054 -1.79081486
  H  1.56926453 -2.86791869 -1.05651850
  H  2.41801134 -1.59700484 -1.95562688
  H  0.97395491 -2.33908804 -2.63032383
  H  2.81952342 -1.65124251  0.56467818
  H  2.35920896 -0.68198621  1.96322649
  H  1.32863133 -2.01928218  1.44419735
  H  3.09533501  3.32541163 -0.28686947
  H  3.84467319  3.08654538  1.32208509
  H  4.43112445  2.17152351 -0.10354516
  H  0.17317280 -0.00692130  2.92805666
  H  1.00879305  1.44023270  2.31143698
  H -0.75866912  1.40935842  2.41062989
  H -2.76109953  3.35000524  0.01647971
  H -4.07807560  2.87143854  1.13563065
  H -4.09581685  2.33637829 -0.57461371
