39
opt_min/./Product_4644_opt.xyz
  C  1.46067000  1.74496500 -0.55788900
  C  0.30892209  1.07820429 -1.31270142
  C  0.40500302 -0.44531779 -1.54538817
  N  1.30260087 -1.14804949 -0.65763773
  C  1.73515346 -2.45542461 -1.09875649
  C  2.07623365 -0.50190842  0.26195333
  C  2.15969008  0.82960067  0.40814595
  C  2.93789286  1.50681291  1.45528645
  N  3.63703109  0.71435085  2.33898309
  O  2.93805563  2.71637377  1.58260172
  C -1.07373527 -0.87436478 -1.29864372
  C -1.30862821 -2.34250613 -0.94575333
  N -1.36008973 -2.58533459  0.36826176
  C -1.58769404 -3.91274453  0.88982063
  O -1.44568462 -3.18554270 -1.80860610
  O -1.51760437 -0.02000971 -0.26619990
  N -0.94581803  1.22681949 -0.58146353
  C -1.61030082  2.37964904 -0.35566140
  O -1.12799058  3.46770447 -0.55665621
  O -2.84672237  2.15248424  0.12190107
  C -3.57065339  3.31343721  0.49993802
  H  1.08419875  2.61990926 -0.03110988
  H  2.19762554  2.09236665 -1.28948919
  H  0.18300873  1.58834789 -2.27622990
  H  0.69388079 -0.66193511 -2.58023410
  H  2.05684025 -3.04026703 -0.23765301
  H  0.91690549 -2.98653215 -1.57815256
  H  2.56487913 -2.38208712 -1.81047467
  H  2.60839749 -1.18175915  0.91303003
  H  3.99615090 -0.17526387  2.04093499
  H  4.24396343  1.23113758  2.95746189
  H -1.63807971 -0.67444247 -2.22538193
  H -1.19218575 -1.82474994  1.00567773
  H -1.35884339 -3.93008811  1.95122721
  H -2.62291109 -4.21409045  0.72655662
  H -0.94258923 -4.62570968  0.37299783
  H -4.34366743  2.98006969  1.18764173
  H -2.90666789  4.03672130  0.97607117
  H -4.02414745  3.77982808 -0.37800284
