40
opt_min/./Product_1229_opt.xyz
  C -1.44596000  3.32230500 -0.48536500
  C -1.12859308  2.02853627 -1.18665451
  O -1.64270054  1.67375103 -2.21216103
  C -0.14272648  1.15225274 -0.48987256
  C  1.19947748  1.07681729 -0.64873054
  C  2.05680136  1.99099933 -1.46014798
  F  3.03580684  2.54641258 -0.73281480
  F  1.33383984  3.03125805 -1.93879871
  F  2.61207860  1.40016945 -2.51803451
  C  1.65946822 -0.06200828  0.13352093
  C  3.06553773 -0.56779741  0.23170933
  N  3.18461916 -1.55052091  1.14586535
  C  4.42875681 -2.26403920  1.31948059
  O  3.97466246 -0.12625589 -0.43663826
  N  0.68551965 -0.66846827  0.71813070
  C -0.53400770  0.03473029  0.43928472
  C -0.93443886  0.52141461  1.88704840
  C -0.09865459  1.62714146  2.45206172
  O -1.82728689 -0.01369669  2.46888355
  C -1.63037903 -0.83182326 -0.13234448
  C -2.92498092 -0.33447564 -0.20464484
  C -3.92744092 -1.10489542 -0.76274128
  C -3.64298969 -2.37008558 -1.24790059
  C -2.35352803 -2.86456136 -1.17452082
  C -1.34476503 -2.09608537 -0.62099761
  H -0.53515126  3.81634949 -0.15501692
  H -2.07016729  3.11002982  0.38198233
  H -1.99554177  3.97137132 -1.16224564
  H  2.33259512 -1.90647219  1.55440986
  H  5.21430960 -1.55469226  1.58681813
  H  4.72793794 -2.75890030  0.39178713
  H  4.31688794 -3.00021151  2.10997974
  H -0.10759800  1.55563632  3.53779822
  H  0.92342152  1.60002525  2.08552501
  H -0.54072578  2.58228753  2.17272263
  H -3.15778185  0.64709745  0.18189381
  H -4.93168538 -0.71392605 -0.82031156
  H -4.42659633 -2.96895371 -1.68774653
  H -2.12733489 -3.85238396 -1.54808388
  H -0.33510397 -2.47317033 -0.56551599
