38
opt_min/./Product_3898_opt.xyz
  C -0.01729200 -1.63791400 -1.43165800
  C -0.16689130 -0.98422481 -0.05163715
  C  0.35149309 -1.95983518  1.00891399
  C -1.63180930 -0.46911144  0.20696288
  C -2.18303924 -0.82188267  1.58881034
  C -2.66005962 -0.87820789 -0.84747003
  N -1.44825067  1.00073316  0.15632770
  C -2.43097720  1.93878879  0.26920896
  C -1.93698643  3.36167048  0.18793543
  O -3.60071169  1.64362485  0.41626818
  N -0.15309785  1.35807227  0.09948402
  C  0.60990260  0.33117898  0.00996402
  C  2.05307909  0.52640526  0.04293818
  C  2.53156112  1.71164726  0.61220789
  C  3.88423265  1.96983411  0.69028144
  C  4.79575599  1.04605152  0.20267469
  C  4.33868705 -0.12808418 -0.36934083
  C  2.98315875 -0.38867662 -0.45123857
  H -0.10516161 -0.90318207 -2.22702966
  H -0.77023673 -2.40726798 -1.57187627
  H  0.95192103 -2.11891374 -1.52399196
  H  0.29149873 -1.54395826  2.00907499
  H  1.39215256 -2.19595763  0.80935622
  H -0.21735433 -2.88598663  0.97855449
  H -1.54656238 -0.43343405  2.38095800
  H -3.16422160 -0.36766868  1.69907373
  H -2.28554366 -1.89652315  1.69843022
  H -2.35569392 -0.58324770 -1.84576212
  H -2.82929421 -1.94999824 -0.81346817
  H -3.60086947 -0.38215660 -0.62416808
  H -2.70240901  4.02340025  0.58073040
  H -1.74435558  3.61610931 -0.85127128
  H -1.01044845  3.48148992  0.73886855
  H  1.81557905  2.42237748  0.99465051
  H  4.23452042  2.88885828  1.13514869
  H  5.85582140  1.23936146  0.26543556
  H  5.04217232 -0.84846037 -0.75946544
  H  2.66225073 -1.30272411 -0.92418658
