51
opt_min/./Product_5666_opt.xyz
  C  1.41226600 -1.41112600 -0.14201700
  C  0.38367827 -0.61109223  0.66154015
  C  0.66517393  0.90034633  0.62647122
  N  2.04309345  1.23862348  0.76282285
  C  2.40373768  2.62572798  0.93658896
  C  3.02737546  0.34051807  0.48514481
  C  2.81451021 -0.93821233  0.12283260
  C  3.86331655 -1.93329243 -0.11386675
  N  5.15786780 -1.55298040  0.09902622
  O  3.61334015 -3.05243473 -0.52774620
  C -0.06906614  1.30703368 -0.70466637
  C -0.48942853  2.77221023 -0.79932239
  O -0.61351116  3.36051154  0.39459310
  C -1.05005366  4.71576048  0.40516105
  O -0.71204784  3.32681457 -1.84037014
  C  0.81813187  1.09329936 -1.94935035
  C  0.14071241  0.45297996 -3.11739167
  O  1.94377925  1.51972110 -1.96421975
  N -1.25564059  0.45420504 -0.71177954
  C -2.47822189  1.07108729 -0.21734937
  N -0.96289551 -0.69179119  0.10664228
  C -1.46448589 -1.90504268 -0.36031938
  C -2.28553719 -1.97584018 -1.48459713
  C -2.83946353 -3.18147822 -1.87248570
  C -2.60339760 -4.33554642 -1.14732289
  C -1.81091142 -4.26752765 -0.01245392
  C -1.25387943 -3.06943544  0.38532851
  H  1.20241983 -1.31789348 -1.21083917
  H  1.35104586 -2.47346881  0.09039210
  H  0.36225215 -0.95106453  1.70211008
  H  0.10878140  1.38235876  1.44062303
  H  2.70916022  3.07166040 -0.01450423
  H  1.55568092  3.17887890  1.32822240
  H  3.22615731  2.71254777  1.64898918
  H  4.01792589  0.74358428  0.63234960
  H  5.40397888 -0.73523691  0.62119472
  H  5.85904185 -2.26194452 -0.02987187
  H -2.13045883  4.74668484  0.55534161
  H -0.79911937  5.19654181 -0.54098296
  H -0.54705248  5.21084335  1.23297556
  H -0.20250661 -0.54704447 -2.85935830
  H -0.73153701  1.04787764 -3.37663322
  H  0.82387666  0.40529692 -3.95994086
  H -2.38536262  1.47664413  0.79733046
  H -3.24768447  0.30115896 -0.20982208
  H -2.78126234  1.85976117 -0.90244134
  H -2.48306378 -1.08459457 -2.05995098
  H -3.46256505 -3.21519732 -2.75467178
  H -3.03612562 -5.27436018 -1.45638124
  H -1.62743834 -5.15593647  0.57290755
  H -0.65832906 -3.03228058  1.28381528
