51
opt_min/./Product_5644_opt.xyz
  C -0.78550100 -0.80324500 -1.29155500
  O -0.25559433 -0.99119472 -2.36287333
  C  0.02719190 -0.40934129 -0.05806179
  O  0.23629623 -1.53518826  0.75247276
  C  0.61918968 -2.76007581  0.16564717
  C -0.74391041  0.59222279  0.84782697
  O  0.08766136  0.68490681  1.99216417
  C -0.24014057  1.58349190  3.03405727
  C -2.12343731  0.04293511  1.17135107
  O -2.62853698  0.13957870  2.26661657
  C -2.83413236 -0.65589827  0.07325481
  C -4.27807610 -0.93795921  0.32286464
  C -2.21596907 -1.05350876 -1.05953070
  C -2.94294290 -1.76608493 -2.15536176
  C -0.69093227  1.89050442  0.01865241
  C -1.87669141  2.14311980 -0.91622738
  N  0.53233954  1.75843103 -0.75058425
  C  1.27838585  2.98418538 -0.90900587
  C  1.22279214  0.50255167 -0.51037827
  C  1.91281161  0.12278242 -1.85610772
  C  2.76096731 -1.11816202 -1.92809311
  O  1.83339271  0.87697679 -2.78819597
  C  2.25912666  0.59128206  0.62212414
  O  2.69629008  1.61399129  1.07365078
  O  2.66386093 -0.61784525  1.01714146
  C  3.53197333 -0.66449703  2.14023051
  H  1.62654200 -2.71965126 -0.24725175
  H -0.08107599 -3.08555559 -0.61154888
  H  0.59868075 -3.47514924  0.98791847
  H -0.35515009  2.61243372  2.67940322
  H  0.61384685  1.54179305  3.70905327
  H -1.14389068  1.27713435  3.56244131
  H -4.88308847 -0.69050239 -0.54719209
  H -4.41556058 -1.99892245  0.53595788
  H -4.62133413 -0.37345592  1.18628380
  H -3.35618314 -2.70627031 -1.79149716
  H -3.76975371 -1.15804411 -2.52131828
  H -2.25977905 -1.96554280 -2.97721023
  H -0.62119184  2.74698614  0.70686985
  H -1.84424229  3.17650681 -1.25507632
  H -1.81544761  1.50613852 -1.79407471
  H -2.82583898  1.97770814 -0.40943150
  H  0.68093976  3.66258461 -1.52133400
  H  2.20501494  2.78337918 -1.43712512
  H  1.51001135  3.47071686  0.04598350
  H  2.15195092 -1.92589035 -2.33015962
  H  3.56847024 -0.93249942 -2.63520506
  H  3.16598876 -1.40838159 -0.96530033
  H  2.93738256 -0.65311599  3.05512548
  H  4.09239385 -1.59463411  2.06731826
  H  4.20474617  0.19572132  2.13332295
