71
opt_min/./Product_3156_opt.xyz
  C  3.56694700 -3.77837600  2.07965200
  O  3.31277379 -2.66079268  1.23513642
  C  2.21139457 -1.95283518  1.45480987
  O  1.41134136 -2.19165590  2.32129159
  C  2.09372117 -0.71241692  0.54683044
  C  3.14951639 -0.71256675 -0.55081753
  O  2.89607072 -0.69504621 -1.72658949
  O  4.38940945 -0.72350793 -0.06207498
  C  5.44072608 -0.75578659 -1.01787951
  C  0.70342952 -0.76372090 -0.05880396
  C -0.24539739  0.16632942 -0.35463286
  C -0.12846376  1.60718549 -0.72628256
 Br -0.40941948  1.57512679 -2.76992049
  C -1.11596143  2.53476891 -0.08364917
  C -1.63938064  3.64325356 -0.73745579
  C -2.49376333  4.51080758 -0.08201645
  C -2.83347336  4.29310632  1.24241163
  C -2.30078227  3.20384944  1.90907337
  C -1.44376032  2.33733782  1.25475995
  C  1.26688922  2.25791433 -0.69478507
  C  1.81927844  2.69067299  0.66776782
  C  2.90152818  1.73268503  1.14709766
  C  2.31834153  0.40231495  1.61179239
  C -1.54817623 -0.62874708 -0.56084320
  C -2.52272834 -0.18708136 -1.62290329
  C -3.36231028  0.90406628 -1.41833047
  C -4.25365576  1.28785777 -2.40253546
  C -4.33682094  0.57289623 -3.58497420
  C -3.53543559 -0.53897158 -3.77456769
  C -2.63499439 -0.92117945 -2.79670478
  C -2.30862029 -0.80733103  0.77897851
  C -1.66231265 -0.79658122  2.00513697
  C -2.37102578 -0.98253446  3.17955803
  C -3.73208137 -1.22081867  3.14857476
  C -4.36661733 -1.32412014  1.92293466
  C -3.66146808 -1.12996307  0.74939822
  N -1.10864430 -1.98917228 -0.75750552
  C  0.11797513 -2.07182910 -0.41559638
  C  0.81904265 -3.38103131 -0.49665345
  H  3.51402539 -4.68510273  1.47734670
  H  2.82761165 -3.81599200  2.88155700
  H  4.56872642 -3.66277386  2.49144582
  H  6.33909609 -1.03212360 -0.47348968
  H  5.55667016  0.22450693 -1.48248148
  H  5.22040725 -1.49027468 -1.79518548
  H -1.40066002  3.82655294 -1.77387540
  H -2.89846881  5.35798243 -0.61497678
  H -3.50656691  4.96699827  1.75065345
  H -2.54958837  3.01910833  2.94374220
  H -1.04292171  1.49108773  1.78940351
  H  1.96821944  1.59327492 -1.19590331
  H  1.17791666  3.15966940 -1.30631108
  H  2.26603111  3.68093236  0.55618752
  H  1.02497876  2.77475713  1.40805411
  H  3.61655747  1.58436805  0.33911076
  H  3.44813681  2.17973972  1.97988186
  H  2.99288618 -0.00734103  2.36931381
  H  1.35839872  0.57719890  2.09829364
  H -3.32835786  1.44402672 -0.48514528
  H -4.89587764  2.14004245 -2.23500916
  H -5.03365397  0.87646152 -4.35275680
  H -3.60282577 -1.10497716 -4.69151828
  H -2.00414461 -1.78542560 -2.93179937
  H -0.58876551 -0.70307962  2.06086285
  H -1.84337540 -0.94681892  4.12156273
  H -4.28414765 -1.36214461  4.06560502
  H -5.41864382 -1.56312737  1.87454297
  H -4.16755171 -1.23989632 -0.19582359
  H  0.23641823 -4.03116683 -1.14440095
  H  0.87909016 -3.84918660  0.48434631
  H  1.82093451 -3.26963149 -0.90602334
