54
opt_min/./Product_2510_opt.xyz
  C -1.94294749  2.88411294 -3.25554645
  O -1.83302827  1.88233785 -2.24885825
  C -1.89810964  2.27267325 -0.97443576
  O -2.00557250  3.41364289 -0.62248850
  C -1.77652813  1.07657847 -0.03245121
  C -2.61952493  1.30488819  1.22376253
  O -3.60783487  1.97869480  1.26281241
  O -2.16330760  0.53420042  2.20693211
  C -2.80349567  0.60962039  3.47926546
  C -0.31159775  0.78135327  0.26662658
  C  0.42474160 -0.31131195 -0.09919269
  C  0.20434100 -1.74057656 -0.69208336
  F  0.87924944 -1.71682794 -1.92077299
  C  0.90381651 -2.66792855  0.20924608
  N  1.33086698 -3.48691787  0.88129542
  C -1.10000766 -2.61049213 -0.95086519
  C -2.28443192 -2.20760139 -1.87799412
  C -3.17365824 -1.04559677 -1.35871058
  C -2.06825105 -0.26884937 -0.68684535
  N  1.79243111 -0.03363781  0.04956126
  C  2.80514122 -0.93152934  0.58792154
  N  3.38989039 -1.64542049 -0.38949950
  C  4.36944365 -2.66461022 -0.09287873
  O  3.11227743 -0.91707702  1.74484292
  N  1.95067284  1.28140877  0.57463134
  C  0.62960041  1.75872906  0.97513075
  C  0.47821112  1.60949448  2.42588125
  N  0.38010371  1.44736080  3.55026329
  C  0.42282218  3.23860540  0.62354043
  O -0.01408571  4.05227768  1.37840050
  O  0.84511501  3.48158072 -0.62063418
  C  0.67991636  4.82069066 -1.08394252
  H -1.01769143  2.89253382 -3.83290104
  H -2.78095485  2.62263114 -3.90273761
  H -2.11491007  3.85933611 -2.79710094
  H -2.05891711  0.95899527  4.19530772
  H -3.64617429  1.30025910  3.43194601
  H -3.14217108 -0.39106418  3.74614977
  H -0.67082781 -3.50811144 -1.41210505
  H -1.49256833 -2.91604864  0.02260174
  H -1.87595289 -1.92566029 -2.85040588
  H -2.87516298 -3.11486762 -2.01418359
  H -3.65037525 -0.53176837 -2.19075797
  H -3.93857260 -1.39179464 -0.66491273
  H -1.31628258 -0.26299830 -1.47575558
  H -1.80443680 -0.91923254  0.14254691
  H  3.04588892 -1.57621064 -1.33490165
  H  5.30596012 -2.44977608 -0.60941118
  H  4.53649887 -2.65825598  0.98236315
  H  4.00446193 -3.64780685 -0.39380794
  H  2.33958694  1.87009514 -0.16233480
  H -0.24631138  5.23267195 -0.68048320
  H  1.52662115  5.42906915 -0.76191722
  H  0.64185810  4.76997563 -2.16989884
