56
opt_min/./Product_2981_opt.xyz
  C -1.08340300 -3.39014400  0.86779600
  C -0.06573780 -2.35339533  0.46658769
  O  1.08128645 -2.44706241  0.82475447
  C -0.56881330 -1.19033724 -0.36425550
  C -0.66844572 -1.51536268 -1.87395315
  C -1.30455775 -2.82569686 -2.23493652
  O -0.33500274 -0.70519927 -2.69462539
  C  0.26800803  0.07250737 -0.20329929
  C -0.08008816  1.36062190  0.14144717
  C -1.36465930  2.07748789  0.64815108
 Br -0.75662279  3.28651387  2.13356001
  C -1.91587111  2.95366181 -0.49705429
  F -1.02237572  3.53541949 -1.28381469
  F -2.73908589  3.90853933 -0.04980872
  F -2.66289180  2.20518572 -1.34339056
  C -2.64704619  1.47652663  1.41114646
  C -3.75378184  0.55826897  0.80721707
  C -3.31161470 -0.89857112  0.50432823
  C -1.90485711 -0.56784774  0.05927837
  C  1.17212403  2.14365317 -0.07762951
  C  1.50740825  3.61523800 -0.03772444
  C  2.94532854  3.93364746 -0.31353903
  O  0.69269941  4.47800652  0.17469628
  N  2.15055262  1.40002018 -0.45559431
  C  1.72926929  0.04888522 -0.49642434
  C  2.20525909 -0.65149257 -1.77834417
  O  1.96772492 -1.95736713 -1.70674770
  C  2.46310828 -2.76138993 -2.77453004
  O  2.74258074 -0.08687791 -2.67917131
  C  2.55452929 -0.56402703  0.69169626
  O  3.57784217 -1.15371890  0.53498643
  O  2.03423953 -0.16383398  1.83962759
  C  2.73968140 -0.55610085  3.01507505
  H -2.05313374 -3.25009285  0.40818701
  H -0.69334732 -4.37975147  0.63808066
  H -1.18872090 -3.34356318  1.95133120
  H -2.30004782 -2.89271736 -1.80371115
  H -1.38216281 -2.89288448 -3.31727410
  H -0.70393286 -3.65050454 -1.86078565
  H -2.27592134  1.01508007  2.32844798
  H -3.19291942  2.37293411  1.71912224
  H -4.13398589  1.00632867 -0.10888661
  H -4.56829456  0.56427093  1.53305787
  H -3.96307549 -1.32825531 -0.25555773
  H -3.34022318 -1.51654644  1.40143036
  H -1.54666019 -0.11818037  0.97274620
  H -2.05588452  0.16783199 -0.72908206
  H  2.99370251  4.44701270 -1.27322183
  H  3.29939932  4.63065049  0.44260234
  H  3.55639915  3.04202577 -0.35320311
  H  3.15894094 -2.18314472 -3.38241305
  H  1.62464239 -3.08957893 -3.39042088
  H  2.96411343 -3.61678919 -2.32506480
  H  2.01961408 -0.52485884  3.82895253
  H  3.55487977  0.14381881  3.20541104
  H  3.14178079 -1.56114693  2.88794961
