54
opt_min/./Product_2319_opt.xyz
  C  0.73494018 -1.51698607  2.33609598
  C  0.46723078 -1.90638275  0.90517463
  O  0.15166050 -3.03450798  0.62323550
  C  0.60335320 -0.83277603 -0.17346928
  C  1.35922185 -1.30090094 -1.44550722
  C  2.21780459 -2.52627538 -1.32718964
  O  1.29578417 -0.64728828 -2.45065468
  C -0.81010056 -0.21713058 -0.52876995
  C -1.69078377 -0.34674735  0.71167786
  C -1.52393556  0.50089082  1.80399287
  C -2.30475651  0.36082594  2.93574124
  C -3.26010333 -0.63887341  3.00402875
  C -3.42560600 -1.49332952  1.93004239
  C -2.65055165 -1.34768015  0.79246581
  C -1.48776964 -0.84669469 -1.72985958
  C -1.27021521 -2.17728556 -2.06844452
  C -1.89266432 -2.73966204 -3.16847040
  C -2.75635640 -1.98573103 -3.94197166
  C -3.01783356 -0.67630125 -3.58374284
  C -2.39632166 -0.11204987 -2.48378186
  C -0.42988695  1.29126162 -0.77750442
  C -0.24018587  1.62148505 -2.18602729
  N -0.07867884  1.99791997 -3.25192429
  C -1.46495998  2.36903409 -0.34960537
  C -0.83957404  3.68588410 -0.01734822
  O -2.64502409  2.15598560 -0.36681241
  N  0.82682691  1.51755865 -0.11766538
  C  1.36193073  0.42217385  0.22601417
  C  2.68107550  0.46689156  0.91514615
  O  3.33608912 -0.69569454  0.82799138
  C  4.62444443 -0.74824065  1.43076765
  O  3.10120544  1.43749087  1.48652000
  H -0.13818014 -1.77603177  2.93365573
  H  0.96472558 -0.46482810  2.46656356
  H  1.56106598 -2.12406492  2.70629720
  H  1.59356335 -3.40818940 -1.46506679
  H  2.68679211 -2.59904836 -0.35208481
  H  2.96293352 -2.50576076 -2.11795905
  H -0.77781777  1.28232108  1.78820739
  H -2.16277003  1.03594845  3.76633715
  H -3.87202818 -0.74596421  3.88703784
  H -4.16583740 -2.27806826  1.96962908
  H -2.80096857 -2.01939561 -0.03780844
  H -0.63476251 -2.79745967 -1.45841830
  H -1.70058812 -3.77309660 -3.41622249
  H -3.23368486 -2.42086499 -4.80720179
  H -3.71065405 -0.08296867 -4.16062226
  H -2.65431238  0.89708553 -2.20738575
  H -0.07013483  3.56050701  0.74147494
  H -0.34738338  4.07410719 -0.90793993
  H -1.60206048  4.38447572  0.31673635
  H  5.14725149  0.19733837  1.27826148
  H  5.15745874 -1.56604831  0.95243329
  H  4.52556268 -0.93476931  2.50183683
