39
opt_min/./Product_1500_opt.xyz
  C -2.40190202  2.62915601  2.56484097
  O -1.54099622  1.52299252  2.31858780
  C -2.11513437  0.31175200  2.33941325
  O -3.27477390  0.11025942  2.58120275
  C -1.13367808 -0.74364542  2.06253256
  C -1.35052081 -2.06782067  1.93407241
 Cl -2.79036215 -2.92046852  1.92226327
  C  0.02241046 -2.69167934  1.75836655
  C  0.58192023 -2.35052601  0.34893944
  C  0.85740328 -0.83343130  0.50288052
  C  0.37913023 -0.60289156  1.96488376
  O  0.81434603 -1.82721279  2.55772699
  C  0.14081903 -0.23721656 -0.74693501
  C  0.58753541  1.13642501 -1.14441511
  C  0.06921568  2.24289007 -0.48253958
  C  0.48936952  3.51655455 -0.81969081
  C  1.43294802  3.69956458 -1.81688583
  C  1.95617246  2.59951228 -2.47325414
  C  1.53912756  1.32234456 -2.13832481
  N  0.33485096 -1.30106036 -1.75155529
  C -0.28747407 -2.34887530 -0.94086760
  C -0.40584031 -3.62447071 -1.61786014
  N -0.46681923 -4.62848149 -2.15588040
  O -1.56350879 -1.78386801 -0.67966069
  C -1.36741715 -0.44698916 -0.57204438
  O -2.24339075  0.34181913 -0.42199538
  H -3.19346401  2.34064137  3.25838155
  H -2.85715315  2.95713630  1.62816552
  H -1.78085502  3.41743055  2.98387820
  H  0.11296888 -3.72882167  2.06858725
  H  1.48811441 -2.93826305  0.19317745
  H  1.92038929 -0.58970778  0.44473985
  H  0.80906531  0.25504590  2.47132455
  H -0.65880971  2.10103989  0.29743394
  H  0.07860530  4.37051736 -0.30293526
  H  1.75804445  4.69448524 -2.08078567
  H  2.69188100  2.73314978 -3.25200594
  H  1.95314177  0.48367131 -2.67735869
  H  1.32172307 -1.48862341 -1.90802907
