34
opt_min/./Product_1527_opt.xyz
 Cl -0.41396494  2.67664426 -0.40837702
  C -0.32625999  0.90899112 -0.13452210
  C -1.67470622  0.14374381 -0.35991545
 Br -3.17233683  1.30200625 -0.89530888
  C -1.91747084 -0.55728562  0.98828771
  C -2.33061380  0.47176066  2.04511493
  C -1.04289399  1.29620463  2.23975814
  C -0.01759648  0.59105213  1.33537187
  C -0.48443939 -0.86244386  1.44233810
  C -1.38862653 -0.84097104 -1.53356461
  C -2.50016056 -1.02801018 -2.46620596
  N -3.35003810 -1.26967970 -3.18750003
  C -1.10978834 -2.21481605 -1.09653801
  N -0.85107591 -3.31012339 -0.89771734
  N -0.25453795 -0.23696731 -2.20528885
  C  0.63354464  0.33376536 -1.21599472
  C  1.74659950 -0.67267228 -0.81946549
  O  2.43400284 -0.32820698  0.25162503
  C  3.55999436 -1.15358942  0.56068188
  O  1.98235495 -1.60793962 -1.53475145
  C  1.45724641  1.36290056 -1.85215656
  N  2.17154691  2.09520189 -2.35783759
  H -2.59953705 -1.40381181  0.90715025
  H -3.17475005  1.07959280  1.73017927
  H -2.61246346 -0.04601562  2.96111556
  H -1.17512515  2.34177635  1.97474493
  H -0.69704999  1.25013012  3.27149068
  H  1.00952248  0.81126930  1.61469083
  H -0.44998680 -1.23827938  2.46161386
  H  0.05507193 -1.55364605  0.79884295
  H  0.21202021 -0.84591475 -2.87262258
  H  4.27109808 -1.13550181 -0.26605428
  H  3.99959810 -0.73079465  1.45951867
  H  3.23624002 -2.18138993  0.73156659
