55
opt_min/./Product_5717_opt.xyz
  C -0.51075600 -1.05238000 -2.71727800
  C  0.28875813 -1.05020443 -1.40391200
  C  0.44360271 -2.53190770 -1.00466527
  C  1.74047980 -0.49553732 -1.46875116
  C  2.15278149  0.44076394 -2.59966126
  O  3.28689998  0.49034802 -2.99645096
  C  2.00005983  0.11535937 -0.05714461
  C  2.33048969  1.61772840 -0.21886719
  C  3.00244596  2.32436521  0.91942839
  O  1.98356612  2.20005038 -1.21831421
  C  3.20571616 -0.59774269  0.57604925
  C  2.96369613 -1.61329735  1.66654963
  O  4.31614198 -0.34367601  0.19136894
  N  0.74310548  0.01218815  0.64648780
  C  0.58669382  0.57876146  1.95599118
  C -0.39805841 -0.26707554 -0.22845794
  C -1.45910836 -1.13935302  0.43182764
  C -1.18353173 -1.98751670  1.50031390
  C -2.17383190 -2.77052302  2.06628562
  C -3.46300323 -2.73497364  1.56429289
  C -3.74653182 -1.91439364  0.48697224
  C -2.75827731 -1.12133470 -0.06725280
  C -1.05397641  1.09382800 -0.53363848
  C -0.85234621  1.84538988 -1.68264797
  C -1.37114239  3.12385342 -1.80850560
  C -2.10731896  3.68850769 -0.78503420
  C -2.34508429  2.94253595  0.35548842
  C -1.82619783  1.66622758  0.47759042
  H -0.64585443 -2.07215324 -3.07188707
  H -0.01650458 -0.50915739 -3.51490831
  H -1.50127294 -0.63192840 -2.57131350
  H -0.52745139 -3.01010673 -0.91198623
  H  1.00390625 -3.05239422 -1.78002656
  H  0.98388229 -2.63633087 -0.07152227
  H  2.43223093 -1.33721407 -1.58349960
  H  1.36482704  0.96713989 -3.15358297
  H  3.20149089  1.68442936  1.77278649
  H  2.40519783  3.18349244  1.22185113
  H  3.95059637  2.70392947  0.53789089
  H  3.64585779 -2.44958808  1.51737156
  H  1.94051743 -1.96931263  1.68274757
  H  3.20623440 -1.17154063  2.63120453
  H -0.29335527  0.15562280  2.43671530
  H  1.44803148  0.34083795  2.57840995
  H  0.46560322  1.67314120  1.94718493
  H -0.17921544 -2.04755253  1.88839309
  H -1.92535805 -3.41346170  2.89759896
  H -4.23557336 -3.34531538  2.00657458
  H -4.74669415 -1.88397724  0.08049636
  H -3.00753263 -0.47553678 -0.89590630
  H -0.29935923  1.44839889 -2.51143392
  H -1.18434486  3.67590844 -2.71702771
  H -2.50375594  4.68832188 -0.87887813
  H -2.93939535  3.35285482  1.15976586
  H -2.05471047  1.11721708  1.37862986
