52
opt_min/./Product_1914_opt.xyz
  C -2.23927696 -1.01697802  3.55357880
  O -2.16146602 -1.11802636  2.13345183
  C -1.04569990 -0.67297230  1.58009739
  O -0.14092298 -0.16584283  2.19026505
  C -0.98450353 -0.84246464  0.05034446
  C  0.10269627 -1.91088075 -0.30029671
  C  0.37340490 -2.73888082  0.85504303
  N  0.46876889 -3.39215478  1.78820952
  C -0.56599105 -2.73271878 -1.43456693
  C -1.57190170 -3.70513359 -0.81745807
  C -2.64253442 -2.75527471 -0.24377257
  C -2.20244374 -1.36647568 -0.73691618
  C -1.52595296 -1.72076161 -2.06427482
  C  1.34375425 -1.06613551 -0.72035291
  C  2.40657760 -1.09907470  0.44371688
  N  2.50099176  0.04954176  1.10889523
  C  3.31162576  0.18409485  2.29116911
  O  3.03625356 -2.10904968  0.65503701
  C  2.01359645 -1.64598775 -1.86250624
  N  2.55800168 -2.09820073 -2.75951615
  N  0.87112521  0.28935158 -0.97576382
  C  1.04484058  0.77762699 -2.33333019
  N -0.48062709  0.40424530 -0.51277751
  C -0.79004907  1.60929695  0.12301220
  C  0.12408260  2.66049066  0.18935835
  C -0.23414417  3.86609083  0.76470938
  C -1.50207434  4.05288083  1.28262588
  C -2.41447474  3.01357211  1.21752134
  C -2.07020390  1.80699031  0.64243664
  H -1.99957286 -0.00077891  3.87047912
  H -1.52966117 -1.70837141  4.01151495
  H -3.26186520 -1.27730712  3.81846314
  H  0.16058655 -3.20437069 -2.09481894
  H -1.13091338 -4.35517713 -0.06439290
  H -1.98865373 -4.33948372 -1.60170843
  H -3.63154715 -2.98490747 -0.64722994
  H -2.70337248 -2.81141509  0.83776006
  H -3.01494382 -0.64578512 -0.80526397
  H -1.05318774 -0.86720096 -2.53968475
  H -2.20881882 -2.19246279 -2.76915112
  H  1.86040298  0.79217780  0.86168348
  H  2.69246437  0.52893819  3.11967762
  H  3.72956460 -0.79622726  2.52367764
  H  4.12807210  0.89089738  2.12477009
  H  0.61612513  1.77739473 -2.39190908
  H  2.11614583  0.82882848 -2.52788778
  H  0.58283663  0.15312363 -3.10891090
  H  1.12427120  2.54204221 -0.19950971
  H  0.49370566  4.66273556  0.81014030
  H -1.77788006  4.99416981  1.73397105
  H -3.41012174  3.14091240  1.61781950
  H -2.80253840  1.01633268  0.60408229
