52
opt_min/./Product_2749_opt.xyz
  C -4.11025857  3.01504047  1.64717404
  O -3.18359598  1.95127089  1.43076880
  C -3.43693855  1.15604316  0.39995823
  O -4.35571567  1.26523716 -0.35403895
  C -2.40723651 -0.01486485  0.35295897
  C -2.54348238 -0.53559211  1.70003421
  N -2.77228717 -0.90409703  2.75873055
  C -1.02924986  0.48300252  0.03756291
  C  0.20330229 -0.07378812  0.16285588
  C  0.61658554 -1.43536408  0.68303613
  C  1.09328605 -1.25614036  2.16225377
  F  2.39951287 -1.09906714  2.31738633
  F  0.49502147 -0.18635951  2.70719316
  F  0.76038600 -2.30002753  2.93349324
  C  1.75241170 -2.00257927 -0.20464237
  F  1.87871110 -3.32675227 -0.06747303
  F  1.48061504 -1.77738953 -1.50371348
  F  2.97311532 -1.51135904 -0.01152147
  C -0.51028677 -2.50060834  0.69207222
  C -1.11977771 -2.90701864 -0.65130432
  C -1.80619823 -1.80806517 -1.45965991
  C -2.89348745 -1.04690822 -0.70730864
  C  1.14424355  0.90766204 -0.39253364
  C  2.62925297  1.01965279 -0.19630849
  N  3.34073323  1.08425288 -1.32818038
  C  4.77172013  1.26503808 -1.31986469
  O  3.06373952  1.14993596  0.92669875
  N  0.56501053  1.92804776 -0.90714438
  C -0.85061286  1.80292218 -0.68756926
  C -1.54691583  1.73182399 -1.95833315
  N -2.04363141  1.61626476 -2.97816659
  C -1.25602011  3.10243566  0.09680753
  C -0.47407315  3.28970880  1.35563161
  O -2.06141418  3.86853146 -0.33952862
  H -4.01166195  3.75592297  0.85068958
  H -5.12769796  2.62318989  1.65512594
  H -3.85119275  3.44732387  2.60927772
  H -0.09609639 -3.40980669  1.13544579
  H -1.29331919 -2.16078987  1.36410052
  H -1.86088241 -3.67501822 -0.41785592
  H -0.36260564 -3.37524498 -1.28150040
  H -1.07151661 -1.11640531 -1.87429872
  H -2.29176760 -2.28926908 -2.31093845
  H -3.47527180 -0.47520846 -1.43491967
  H -3.57283013 -1.74914248 -0.21983741
  H  2.86911768  1.01112682 -2.21544168
  H  5.04269583  2.21003234 -1.79279608
  H  5.09130801  1.27131484 -0.27936278
  H  5.26288283  0.44399629 -1.84287568
  H -0.55710076  2.42254068  2.00721787
  H  0.58021019  3.41201213  1.10194465
  H -0.82948320  4.17940540  1.86888165
