32
opt_min/./Product_980_opt.xyz
  C  0.73257200 -1.37998700 -1.32819500
  C  0.18355614 -0.04308702 -0.82833761
  C  0.09522258  0.88114030 -2.06578249
  F  1.27823041  0.97123900 -2.67938891
  F -0.27076891  2.13272141 -1.77708774
  F -0.75811214  0.42083014 -2.98798830
  C -1.13510634 -0.06460694  0.01495083
  C -1.18208380 -1.36454683  0.84715997
  F -1.31088427 -2.45798859  0.09098361
  F -0.06201591 -1.52358026  1.56819435
  F -2.18512761 -1.41951965  1.72585491
  C -2.45464357  0.00905428 -0.76592334
  F -3.50913070 -0.12769615  0.05108104
  F -2.56461299 -0.95180978 -1.68433880
  F -2.63610650  1.17818946 -1.38127736
  C -0.93941576  1.18657445  0.95487293
  C -1.57035850  1.15140471  2.33633509
  N  0.48999846  1.33562812  1.06006398
  C  1.10110764  0.69704889  0.16892472
  C  2.60388728  0.65681661  0.07805272
  C  3.22523480 -0.18634092  1.15569434
  O  3.21516085  1.27729142 -0.74208346
  H  0.00989709 -1.87453292 -1.97654574
  H  1.64067851 -1.19549150 -1.90078631
  H  0.98504545 -2.05044232 -0.51067317
  H -1.31480935  2.06997382  0.41639076
  H -1.10311814  0.38618112  2.95203954
  H -2.63878414  0.96933006  2.27859108
  H -1.40458043  2.11948715  2.80174730
  H  3.70673067  0.48331549  1.86797036
  H  2.49206259 -0.79511355  1.67272473
  H  4.00148745 -0.80953083  0.71597847
