54
opt_min/./Product_2824_opt.xyz
  C -0.58947117 -3.00173879 -0.93781504
  O -0.46118129 -1.82082498 -0.15343163
  C -0.06759273 -0.57341901 -0.59617072
  O -0.50897951 -0.10879211 -1.81679373
  C -0.68344759 -0.88202582 -2.99900329
  C  1.54112209 -0.37377653 -0.48132380
  C  2.26913387 -1.64860277 -0.02781006
  F  2.23390217 -2.60771399 -0.96254714
  F  1.78969705 -2.18818558  1.08156037
  F  3.57657032 -1.42989319  0.19068593
  C  2.21559150  0.06617053 -1.79097466
  F  3.48846592  0.42564546 -1.56810613
  F  2.27818256 -0.91060620 -2.70570953
  F  1.63094296  1.09823164 -2.38852829
  C  1.69396033  0.77222293  0.56420926
  C  2.78329380  0.48083697  1.65345121
  O  3.90638901  1.08895368  1.34107761
  C  5.00751510  0.93602882  2.23433619
  O  2.54996266 -0.13067892  2.65052550
  C  2.03672597  2.07583758 -0.01276871
  N  2.27264902  3.14353011 -0.34301445
  O  0.49006310  0.86652817  1.26795979
  C -0.63801560  0.44146746  0.52151092
  C -1.52580868 -0.30004757  1.52389840
  C -0.90850222 -1.03192636  2.53505908
  C -1.66970571 -1.71060643  3.46956418
  C -3.05099773 -1.66643822  3.41202444
  C -3.66997256 -0.93243460  2.41648326
  C -2.90876356 -0.25120483  1.48010401
  C -1.35451951  1.64285923 -0.07390313
  C -2.40120742  1.51351510 -0.98404985
  C -3.05364685  2.63435433 -1.46474103
  C -2.68619066  3.89821747 -1.03766999
  C -1.66856583  4.03330589 -0.11250271
  C -1.01589321  2.91307319  0.37165529
  H -0.49482551 -3.81070243 -0.21423017
  H -1.58801267 -3.04490937 -1.38333548
  H  0.16987080 -3.11991554 -1.70682439
  H -0.75409127 -0.12844065 -3.78277726
  H  0.14514011 -1.55121009 -3.22258613
  H -1.61859720 -1.44555668 -2.96061265
  H  5.59696118  0.07169864  1.92710311
  H  4.64806856  0.79556107  3.25479966
  H  5.59675814  1.84630903  2.14825056
  H  0.16486337 -1.06391701  2.60272592
  H -1.17351356 -2.27453562  4.24505353
  H -3.64703363 -2.19605025  4.14278088
  H -4.74726125 -0.88574484  2.36902010
  H -3.41715043  0.32806368  0.72444311
  H -2.70759916  0.54051717 -1.33011982
  H -3.85913787  2.51529204 -2.17450385
  H -3.19654772  4.77087125 -1.41778316
  H -1.37741892  5.01044631  0.24076904
  H -0.24008877  3.03154072  1.11150323
