51
opt_min/./Product_1777_opt.xyz
  C -3.54520186 -1.49326380 -1.32410653
  C -2.11926071 -1.08416255 -1.10124955
  O -1.26751641 -1.37886435 -1.90009981
  C -1.72330222 -0.22909236  0.13317391
  C -2.17959740 -0.67818384  1.54536733
  C -3.54127948 -1.25502825  1.77055427
  O -1.42337954 -0.48723440  2.46742214
  C -0.21325580 -0.33440070  0.18606567
  C  0.88991753  0.41841746  0.10131675
  C  1.12180691  1.88375216 -0.16551664
  C  0.75747486  2.15088872 -1.54923796
  N  0.43427289  2.33787103 -2.62815713
  C  2.53670479  2.19654642 -0.02754930
  N  3.61348772  2.53513899  0.14574954
  C  0.43567833  2.88195049  0.80991033
  C -1.00179330  3.25214192  0.46895213
  C -2.05564657  2.24816132  0.92569658
  C -2.38444052  1.15092812 -0.09353930
  C  2.10342879 -0.49791664  0.33040176
  C  3.23670457 -0.23427873 -0.67350411
  C  4.63957748 -0.45091952 -0.19511070
  O  2.97358999  0.06962436 -1.81102770
  C  2.51175186 -0.41878166  1.80757734
  N  1.56840487 -1.85802120  0.11384040
  C  1.72592552 -2.43862447 -1.21435363
  N  0.18882970 -1.67057324  0.38340747
  C -0.60146878 -2.66425756  0.68515281
  N -1.33352677 -3.51507245  0.94315862
  H -3.73997845 -2.39390612 -0.74456693
  H -4.26381881 -0.72766676 -1.05389371
  H -3.66017584 -1.74387484 -2.37677596
  H -3.47547603 -2.32903500  1.59491308
  H -4.30658754 -0.83156399  1.13266402
  H -3.80541532 -1.10763180  2.81578721
  H  0.50305666  2.46889877  1.81865125
  H  1.02742886  3.80269028  0.78927635
  H -1.08947019  3.40995064 -0.60844196
  H -1.21297729  4.21134273  0.94641693
  H -2.97480813  2.80997753  1.10667260
  H -1.76340085  1.80186842  1.87664471
  H -3.45877532  0.96673783 -0.03198571
  H -2.17132088  1.49675971 -1.10763838
  H  5.32685091 -0.21605129 -1.00362848
  H  4.85616285  0.18268290  0.65950609
  H  4.76539095 -1.49095485  0.09986297
  H  3.29515089 -1.13711155  2.02630350
  H  2.85447092  0.58092078  2.06429959
  H  1.64781136 -0.66054634  2.42461495
  H  1.06388618 -3.30131722 -1.27378881
  H  1.48257646 -1.74846246 -2.02746651
  H  2.75466008 -2.77912143 -1.32056452
