75
opt_min/./Product_3138_opt.xyz
  C -3.50553812  4.57144798  2.21887986
  O -2.31018768  3.85841968  1.91329610
  C -1.81182809  3.98929810  0.69161192
  O -2.23459336  4.74069575 -0.14817776
  C -0.57918264  3.10620075  0.51074799
  C -0.96354212  1.80458597 -0.14297566
  C -0.29864336  0.64732943 -0.29331595
  C  1.13795611  0.31786885  0.09473930
  C  1.21656974 -0.04528787  1.57398082
  C  0.11394531  0.00971101  2.41880738
  C  0.23374907 -0.28583454  3.76636681
  C  1.46046908 -0.63337929  4.30091345
  C  2.57204701 -0.66743194  3.47658427
  C  2.45282165 -0.36747737  2.13245012
  C  1.69844175 -0.77519128 -0.82479843
  C  1.80734608 -0.48642548 -2.18529788
  C  2.41584490 -1.36499709 -3.06138298
  C  2.91996508 -2.56984845 -2.60020063
  C  2.80673944 -2.87735244 -1.25799244
  C  2.21489577 -1.98490346 -0.37837508
  C  2.15127892  1.48945610 -0.14896210
  C  2.25908395  2.57143264  0.93311790
  C  1.82751879  3.94119048  0.41495581
  C  0.47324535  3.90505653 -0.28602123
  C -1.28235716 -0.39248664 -0.87188100
  C -0.87376872 -1.09234712 -2.18721109
  O -0.71206098 -2.39815420 -2.03856054
  C -0.53210461 -3.17057693 -3.22030081
  O -0.85548178 -0.51022790 -3.23873120
  C -1.78280220 -1.42991897  0.13712983
  C -3.15004772 -1.55731844  0.35014662
  C -3.63913806 -2.47873701  1.25897170
  C -2.77223981 -3.30105152  1.95447582
  C -1.41287036 -3.21257586  1.71182263
  C -0.92292048 -2.29097686  0.80489040
  O -2.38404589  0.39486023 -1.31510704
  C -2.39906749  1.62309645 -0.61480267
  C -3.26892707  1.53602477  0.55603696
  N -3.95248087  1.42812588  1.46615992
  C -2.98729838  2.63898828 -1.64516757
  C -2.09370345  2.86738345 -2.82071826
  O -4.09099114  3.08290134 -1.51106880
  H -4.04503110  4.80363343  1.29931081
  H -4.09992616  3.92025095  2.85574463
  H -3.25122062  5.49490814  2.74163350
  H -0.21547451  2.89463655  1.51948186
  H -0.86042493  0.27391162  2.03749118
  H -0.64175506 -0.23846468  4.39610724
  H  1.55379094 -0.86185707  5.35196788
  H  3.53982565 -0.92704625  3.88052500
  H  3.33808587 -0.37917253  1.51419679
  H  1.41453364  0.44046478 -2.57346381
  H  2.49224972 -1.10636191 -4.10693181
  H  3.40453134 -3.25569392 -3.27993383
  H  3.18693931 -3.81613226 -0.88302400
  H  2.19736913 -2.24277512  0.66990748
  H  3.13064332  1.02260064 -0.26986371
  H  1.91952834  1.95437832 -1.10330215
  H  3.29239259  2.64258847  1.28472434
  H  1.65996147  2.29767994  1.80042415
  H  1.79317640  4.64131846  1.25253328
  H  2.56989901  4.32021507 -0.29095183
  H  0.11396442  4.92703474 -0.42134638
  H  0.57328006  3.47485277 -1.28218297
  H -0.99506637 -4.13641886 -3.02924757
  H -1.00623936 -2.67241827 -4.06764945
  H  0.53342739 -3.29362792 -3.41793056
  H -3.84062024 -0.93593926 -0.19774714
  H -4.70438810 -2.55035893  1.41850326
  H -3.15371461 -4.01744914  2.66702515
  H -0.72379647 -3.86413257  2.22898491
  H  0.13051615 -2.25544104  0.60867435
  H -1.52556584  1.96844919 -3.05086585
  H -2.69471072  3.16514203 -3.67623533
  H -1.41700703  3.68475716 -2.57695596
