46
opt_min/./Product_1805_opt.xyz
  C -0.37699600  0.13298000 -3.57234800
  C  0.81570320  0.61329201 -3.22956154
  C  0.59687325  1.30716207 -1.90799529
  O -0.73761191  1.78176203 -2.06316560
  C -1.31071596  0.53820906 -2.45154611
  C -1.03881611 -0.29935074 -1.15578857
  C -2.09848892 -0.06352178 -0.10031834
  C -2.70714943  1.17993035  0.02549530
  C -3.63479717  1.40980930  1.02632470
  C -3.96805007  0.40582047  1.91587990
  C -3.37008371 -0.83590569  1.79280225
  C -2.44189959 -1.07113709  0.79499548
  C  0.38909307  0.24972014 -0.77675380
  C  0.43481872  0.87358163  0.60332703
  C  0.20289700  2.23417573  0.77154720
  C  0.19963383  2.80001837  2.03440714
  C  0.41883606  2.02060688  3.15392579
  C  0.62741580  0.66207386  2.99860145
  C  0.62896798  0.09174453  1.73862909
  C  1.15017962 -1.10019409 -0.82539330
  C  2.53237584 -1.11430776 -0.20664835
  O  2.72899156 -2.19977469  0.52036143
  C  4.01560982 -2.36404523  1.11412119
  O  3.33162345 -0.24659618 -0.42881177
  O  0.16505884 -1.98383751 -0.28420212
  N -0.82760640 -1.76747930 -1.23374337
  O -0.13690183 -2.11649265 -2.42571291
  C  1.13829256 -1.69719937 -2.26568643
  O  2.03939528 -1.93478619 -3.00046882
  H -0.65704659 -0.44542422 -4.43027263
  H  1.74581194  0.54911149 -3.75661139
  H  1.29472343  2.10003932 -1.66030544
  H -2.36236973  0.63617220 -2.70537030
  H -2.45436638  1.98267308 -0.64792222
  H -4.09638460  2.38249784  1.10916611
  H -4.68843991  0.58725042  2.69937244
  H -3.62189890 -1.62973572  2.47949260
  H -1.99075640 -2.04593439  0.71568921
  H  0.00342722  2.86772547 -0.07717713
  H  0.02014324  3.86016694  2.13445701
  H  0.41685696  2.46306589  4.13859312
  H  0.78151724  0.03454376  3.86372323
  H  0.76063911 -0.97538114  1.65914987
  H  4.75271578 -1.76093135  0.58263498
  H  3.96873210 -2.05176047  2.15821408
  H  4.26096172 -3.42235748  1.04881151
