41
opt_min/./Product_4309_opt.xyz
  C -1.16652500 -2.55850600  0.48027400
  C -0.24825298 -1.39699657  0.08809814
  C -0.11718380 -1.38510897 -1.43813395
  C  1.16721210 -1.49638402  0.72769064
  C  2.13319079 -2.32156819 -0.07132813
  O  2.45613525 -3.43685477  0.23688309
  C  1.59297557 -0.01010925  0.95913124
  C  2.74191260  0.44981862  0.08174916
  O  3.82521805  0.71154236  0.80496663
  C  4.98302006  1.16074163  0.11116053
  O  2.67884731  0.58713135 -1.11419946
  N  0.43424435  0.83016459  0.69671819
  C -0.74918939 -0.03542179  0.70210256
  C -1.11049568 -0.25578034  2.18206237
  C -1.87892701  0.65666822 -0.05131736
  C -1.66352033  1.16831301 -1.32870343
  C -2.66269201  1.81529394 -2.03061873
  C -3.91417599  1.99097166 -1.47095885
  C -4.13834869  1.52525637 -0.18918563
  C -3.13481406  0.87446729  0.50943742
  H -1.13051482 -3.34447241 -0.27083705
  H -0.88392467 -2.99931421  1.43301958
  H -2.19548810 -2.21051865  0.55167003
  H  0.56035795 -0.60862329 -1.78592632
  H  0.28066729 -2.34261949 -1.76919827
  H -1.09479331 -1.25212546 -1.89850510
  H  1.09055798 -1.99403020  1.70008698
  H  2.54127231 -1.84767833 -0.97962274
  H  1.90866567  0.11094463  2.00287825
  H  5.84275374  0.84660957  0.69704142
  H  4.95465359  2.24994489  0.03097677
  H  5.01691446  0.72427416 -0.88860956
  H  0.52970223  1.27563675 -0.20977728
  H -1.16319045  0.71318425  2.67454292
  H -2.05855534 -0.76884082  2.29388745
  H -0.35848067 -0.84614902  2.69170597
  H -0.69471777  1.09997583 -1.80001186
  H -2.45182797  2.19036820 -3.02124668
  H -4.69593120  2.49250246 -2.01870632
  H -5.09926416  1.67294666  0.28265686
  H -3.36574067  0.53934174  1.50577952
