30
opt_min/./Product_150_opt.xyz
  F -3.34908000 -2.42009300  1.65600400
  C -2.85340480 -1.89667857  0.53496051
  C -2.41290995 -2.46411401 -0.58282880
  F -2.32091647 -3.74199487 -0.93968967
  C -1.85273426 -1.31378301 -1.40748854
  C -0.51103185 -0.97541422 -0.68464854
  C -1.03698399 -0.19057141  0.53226068
  C -2.58446758 -0.41638018  0.36438913
  O -2.71308844 -0.26195774 -1.03343801
  N -0.74985289  1.18084203  0.24228950
  C -0.53812511  2.13866623  1.28709179
  N -0.03256423  1.31819555 -0.99853977
  C  0.45175484 -0.00212550 -1.36800445
  C  1.87665691 -0.40712786 -0.92330557
  O  2.43785679 -1.35019541 -1.43625495
  N  2.42237623  0.33856160  0.05900011
  C  3.73365492  0.04692655  0.59403738
  H -1.79946649 -1.44360198 -2.48231539
  H  0.00528482 -1.90433997 -0.43355297
  H -0.64717958 -0.51871813  1.50430714
  H -3.22492669  0.26565677  0.91280279
  H -0.35306769  1.63426501  2.24373009
  H -1.40773299  2.79145772  1.39976225
  H  0.32559683  2.77433815  1.06144085
  H  0.74543067  1.97149135 -0.87392182
  H  0.42427818 -0.09842775 -2.45792688
  H  1.88495603  1.05140683  0.52505245
  H  4.20184316  0.96599840  0.94045520
  H  3.67252982 -0.66503115  1.42180173
  H  4.32960757 -0.40128843 -0.19999975
