73
opt_min/./Product_2964_opt.xyz
  C -1.70254800 -0.13644400 -3.38678800
  C -2.27215316  0.04469820 -1.99672279
  O -3.29468813  0.66230338 -1.84051211
  C -1.48427425 -0.61179862 -0.84708201
  C -2.29381511 -0.75979705  0.45214312
  C -3.67999273 -0.81030421  0.49112204
  C -4.33816787 -1.04227046  1.68788281
  C -3.62964356 -1.26156526  2.85367611
  C -2.24677599 -1.26407533  2.81398258
  C -1.58965053 -1.01788036  1.62505873
  C -0.33415741  0.32370994 -0.53735860
  C  0.97683607  0.24207426 -0.19050824
  C  2.17991238 -0.68020240 -0.02061490
  C  2.25806852 -0.83525866  1.50303524
  C  1.81930300 -1.97989907  2.15578901
  C  1.85808316 -2.07249075  3.53770084
  C  2.32736191 -1.01927306  4.29875681
  C  2.75526587  0.13300439  3.66102039
  C  2.72166747  0.22349064  2.28229968
  C  3.40021948  0.09162112 -0.53333953
  C  3.31666457  0.92267249 -1.64194925
  C  4.44079122  1.55298565 -2.14368392
  C  5.67592288  1.34376338 -1.55801127
  C  5.77862679  0.48391432 -0.47795585
  C  4.65197173 -0.14114389  0.02377301
  C  2.34521436 -2.02342625 -0.77365101
  C  1.15216288 -2.93632121 -1.00698524
  C  0.12888899 -2.33133326 -1.97253302
  C -1.19497944 -2.07565573 -1.25440992
  N  1.40728285  1.52601735  0.23130944
  N  0.52815879  2.37808641  0.17707608
  C -0.68812723  1.82136992 -0.37603644
  C -0.77908641  2.57882276 -1.71817733
  C -1.82375642  2.12752010  0.57500555
  C -1.61076099  1.86820709  1.92663443
  C -2.59603320  2.12833079  2.85807831
  C -3.80670692  2.66447971  2.45671885
  C -4.00902954  2.96032580  1.12158187
  C -3.02018886  2.70817743  0.18624075
  H -0.71450675  0.31543947 -3.44423450
  H -1.60463077 -1.18258275 -3.65410512
  H -2.35905432  0.35655827 -4.10044882
  H -4.26357475 -0.65955229 -0.40049038
  H -5.41813964 -1.05988400  1.69741301
  H -4.14978243 -1.44217346  3.78258902
  H -1.67169199 -1.45431056  3.70843210
  H -0.50951581 -1.03084135  1.60774329
  H  1.44561028 -2.82607410  1.60420991
  H  1.51455982 -2.97959051  4.01492384
  H  2.35860340 -1.09603239  5.37551831
  H  3.11888728  0.96922014  4.23997622
  H  3.04247286  1.13458747  1.80381661
  H  2.36472499  1.08136526 -2.12910065
  H  4.34939988  2.20782578 -2.99823929
  H  6.55468345  1.83860568 -1.94389584
  H  6.74014248  0.29618107 -0.02255674
  H  4.74951792 -0.81114788  0.86566305
  H  3.10952457 -2.58039777 -0.22559652
  H  2.76469252 -1.79278508 -1.75781250
  H  1.54633056 -3.87057652 -1.41543547
  H  0.66406852 -3.18436930 -0.06793263
  H  0.52222396 -1.41069650 -2.39635248
  H -0.04438350 -3.03554223 -2.78907652
  H -1.23512621 -2.69311432 -0.35783823
  H -2.04125935 -2.39811982 -1.86686113
  H  0.04837194  2.28553447 -2.36288224
  H -1.71527235  2.40768777 -2.23377955
  H -0.68203084  3.64058133 -1.50182306
  H -0.65806838  1.47488153  2.25248074
  H -2.41381149  1.90987105  3.90000454
  H -4.58150598  2.86176414  3.18272037
  H -4.94335324  3.39692052  0.80049094
  H -3.21294961  2.94525671 -0.84652497
