47
opt_min/./Product_1600_opt.xyz
  C -2.02041366 -2.70814895 -1.40194099
  O -1.77158475 -1.37271242 -0.98996919
  C -0.83735653 -1.20255804  0.01035737
  F  0.23920839 -2.07603053 -0.22164603
  C -0.27310535  0.19870005 -0.13532373
  C -0.69638206  1.41375006  0.21409771
  C -1.93379843  1.95597240  0.88444089
  F -1.61375272  3.13277152  1.50501456
  F -2.81296227  2.34430853 -0.10073256
  C -2.66765720  1.08924031  1.89270225
  C -3.36607697 -0.09861949  1.22878075
  C -2.79722500 -1.43068551  1.69853577
  C -1.29846892 -1.57553410  1.43844317
  C  0.32890968  2.45398916 -0.21760317
  C -0.24823569  3.54020772 -1.13634827
  C  0.95611351  3.09763468  0.93801526
  N  1.48337586  3.64580425  1.78801426
  O  1.32578276  1.72080390 -0.91706809
  C  1.07587327  0.33015753 -0.81728126
  C  2.12981192 -0.25790079  0.19089261
  N  2.91195497 -1.23886116 -0.28196498
  C  3.88343251 -1.90173494  0.55926320
  O  2.21276948  0.22034260  1.29695983
  C  1.22462011 -0.25673607 -2.22634009
  C  2.28946071  0.43677784 -3.02780729
  O  0.56747790 -1.16790193 -2.65446709
  H -2.90114738 -2.65195240 -2.03636322
  H -2.21161468 -3.37031388 -0.55499195
  H -1.17436398 -3.08321623 -1.98053607
  H -1.95242945  0.76609656  2.64834637
  H -3.38926079  1.74705879  2.38103025
  H -3.25650770 -0.02834329  0.14691250
  H -4.43436207 -0.07369863  1.44976883
  H -2.96611057 -1.54818474  2.77106055
  H -3.33898229 -2.23336796  1.19517353
  H -1.02158891 -2.62107009  1.59444242
  H -0.70309852 -0.98462279  2.13654186
  H -0.84329499  4.24390518 -0.56217920
  H  0.57686882  4.06904408 -1.60694875
  H -0.86688580  3.08047553 -1.90277224
  H  2.67678127 -1.69166547 -1.15124962
  H  4.06446386 -1.26590441  1.42342060
  H  4.81001109 -2.04461273  0.00565258
  H  3.51053756 -2.87051862  0.89777377
  H  3.12126345  0.74373311 -2.40276887
  H  1.84731733  1.33784149 -3.45175884
  H  2.61704566 -0.20298618 -3.84286440
