46
opt_min/./Product_1406_opt.xyz
  C -3.72280800 -2.55963400  0.07544700
  O -2.56551058 -1.80481149 -0.26477848
  C -1.58004015 -1.78127223  0.65101176
  O -1.63858940 -2.34524627  1.70573518
  C -0.42972550 -0.96002259  0.12928546
  C  1.00366516 -1.29871574  0.63284452
  O  1.04886867 -2.44118002  1.42948948
  C  2.32935616 -2.79355312  1.91571761
  C  1.72847367 -1.49837275 -0.75845024
  C  1.20165824 -2.82259018 -1.26174206
  C -0.02976706 -2.56866001 -1.68117166
  C -0.23740906 -1.09598963 -1.42530755
  O  1.06208251 -0.56120796 -1.58754601
  C  1.43520483  0.00953419  1.37298860
  C  2.87549584  0.45970399  1.12404167
  N  3.02694361  1.15351166 -0.01542722
  C  4.30364197  1.69456486 -0.41637444
  O  3.78380532  0.19792285  1.88485224
  N  0.48677784  1.02418636  0.99990478
  C -0.52814744  0.52858697  0.43444736
  C -1.67583268  1.33341852  0.01158786
  C -2.93985255  1.10214755  0.54321172
  C -4.00941031  1.88974005  0.15757268
  C -3.82505382  2.90919952 -0.76208893
  C -2.56641838  3.14871442 -1.28641389
  C -1.49162030  2.36896467 -0.89878027
  H -4.37369565 -1.96970305  0.72454466
  H -4.22874238 -2.78475962 -0.85987437
  H -3.43509186 -3.47334350  0.59842405
  H  2.16726832 -3.68362793  2.51957820
  H  3.01607335 -3.02524333  1.09434592
  H  2.77006788 -2.00170886  2.52699633
  H  2.80207340 -1.33803502 -0.76670189
  H  1.74280368 -3.74651821 -1.22434376
  H -0.77742092 -3.23191540 -2.06686943
  H -0.97599683 -0.56294067 -2.01705875
  H  1.31247404 -0.16126026  2.45030214
  H  2.21420729  1.34310332 -0.58138575
  H  4.15159108  2.51808195 -1.10856608
  H  4.83435951  2.04715462  0.46908530
  H  4.91904883  0.92892960 -0.89683288
  H -3.07405958  0.32863473  1.28432889
  H -4.98812679  1.71164653  0.57724642
  H -4.66323355  3.52056102 -1.06227030
  H -2.41846668  3.94531089 -2.00020158
  H -0.50882062  2.54551868 -1.30931770
