44
opt_min/./Product_1279_opt.xyz
  C  0.66383570  2.76103074  1.15081925
  O  0.95901112  1.42599406  1.51342152
  C  0.63105242  0.43704692  0.58056106
  C  1.17812862 -0.95516694  1.06183860
 Cl  1.99623026 -0.84320446  2.64591471
  C  2.13490290 -1.40279150 -0.05539880
  C  3.40219771 -0.54562081 -0.03359041
  C  2.87586640  0.84147411 -0.44013944
  C  1.39040606  0.58933132 -0.76594667
  C  1.42026224 -0.84589409 -1.28728017
  C -0.04860968 -1.88938557  1.18941123
  C -0.29584645 -2.28428332  2.58063247
  N -0.61637781 -2.61038999  3.62785058
  C  0.10225405 -3.15877888  0.47548006
  N  0.14347320 -4.16091087 -0.06980919
  N -1.16048158 -1.18914741  0.57400399
  C -2.48773451 -1.68919599  0.86862969
  C -0.93515081  0.23549951  0.43843076
  C -1.76987154  0.98239822  1.53087282
  C -1.43307395  0.70336322  2.96435462
  O -2.72502816  1.64330745  1.21058839
  C -1.43641900  0.78181248 -0.91490471
  C -2.23071017 -0.13056683 -1.80119433
  O -1.20718091  1.92450080 -1.21701677
  H  0.85797042  3.35114926  2.04633364
  H -0.37985268  2.88031165  0.85447956
  H  1.29955078  3.11509494  0.33629515
  H  2.33876798 -2.47199651 -0.03691464
  H  3.88509125 -0.54326918  0.94024108
  H  4.10917251 -0.93610208 -0.76465240
  H  3.39328212  1.23121038 -1.31590732
  H  2.99618911  1.55246152  0.37348769
  H  0.97343352  1.33885384 -1.43138322
  H  2.01466089 -0.95045233 -2.19325277
  H  0.43394222 -1.27348032 -1.44979725
  H -2.60523741 -2.00066751  1.91294969
  H -2.69982089 -2.55769803  0.23796135
  H -3.22439360 -0.91706755  0.66279372
  H -1.87671475 -0.24393730  3.26815477
  H -0.36293601  0.65564385  3.13698510
  H -1.87385142  1.48713190  3.57834111
  H -3.27599654 -0.07530971 -1.49864650
  H -1.90299677 -1.16238998 -1.72938934
  H -2.16273875  0.22447034 -2.82725042
