54
opt_min/./Product_2598_opt.xyz
  C  2.94055086  1.94675120  2.86765002
  O  2.42063167  1.27859847  1.71942792
  C  2.49450864  1.89988675  0.55894843
  O  3.02313249  2.95463178  0.34408657
  C  1.97833354  0.94233424 -0.56130529
  F  1.75214432  1.70865709 -1.69524851
  C  0.69913626  0.35683566 -0.05307970
  C  0.36325240 -0.89723916  0.26764992
  C  0.73493031 -2.25584023 -0.25679257
  F  1.53069344 -2.92290285  0.64150316
  F -0.42454816 -2.99720137 -0.26267462
  C  1.29371976 -2.41168624 -1.67119722
  C  2.78969361 -2.20313383 -1.86736116
  C  3.27542231 -0.77282753 -2.05862513
  C  3.23542572  0.09444754 -0.80162051
  C -0.76190121 -0.85842236  1.32286357
  C -2.03223292 -1.44689353  0.93073996
  N -3.04412609 -1.90848488  0.67421355
  C -0.17968256 -1.60800215  2.54859829
  O  0.69446361 -1.13032790  3.21916079
  O -0.75345240 -2.77642964  2.73020556
  C -0.25469299 -3.59053012  3.78735538
  N -0.94846258  0.54761129  1.62755874
  C -0.38053830  1.28929619  0.52767132
  C  0.04917164  2.69041097  1.00894958
  N  0.23448969  3.58724285  0.03330217
  C  0.67376711  4.93276184  0.33125782
  O  0.17095444  2.92973860  2.19130620
  C -1.49362103  1.42140448 -0.53237577
  O -2.65384593  1.25559568 -0.30926648
  O -0.98681095  1.71887283 -1.73546942
  C -1.91562454  1.83185450 -2.81131435
  H  3.21922828  1.16532420  3.56901251
  H  2.15520641  2.57728577  3.28887730
  H  3.79798378  2.56004311  2.58696520
  H  0.69206626 -1.80918252 -2.35096416
  H  1.10608721 -3.46840194 -1.89072142
  H  3.04945097 -2.74119120 -2.78259511
  H  3.32844200 -2.66431265 -1.03854574
  H  2.74468285 -0.27554267 -2.86979408
  H  4.32833046 -0.85895692 -2.33616670
  H  4.01666274  0.85187176 -0.93174806
  H  3.46215049 -0.48935404  0.08970608
  H -0.01811604 -2.97480429  4.65673082
  H -1.04207192 -4.30427266  4.01384515
  H  0.64572743 -4.10768106  3.45152569
  H -0.51274793  0.81167869  2.51011868
  H  0.19161723  3.30327332 -0.93365834
  H  1.71106351  4.92166567  0.67497740
  H  0.04731770  5.34811099  1.12046428
  H  0.60266160  5.53683129 -0.56757597
  H -2.75931381  1.16074797 -2.64526328
  H -2.27716161  2.85965513 -2.87673537
  H -1.37487181  1.56757674 -3.71688720
