41
opt_min/./Product_860_opt.xyz
  C  4.22963085  1.46572842 -0.17309317
  O  4.28437779  0.32644127  0.66465342
  C  3.14718540 -0.36999679  0.83002130
  C  2.99680908 -1.66538378  1.11247717
  C  1.48993753 -1.86918234  1.13873030
  C  1.12577054 -1.80789618 -0.38534958
  C  1.07452020 -0.28304294 -0.56986586
  C  1.72858234  0.19733562  0.74482840
  O  1.04385679 -0.63447370  1.66962178
  C -0.44963178  0.04070171 -0.59220809
  C -0.64094624  1.21828710 -1.56495664
  O -1.54874228  0.94863617 -2.49580249
  C -1.81117845  1.96132514 -3.46123362
  O -0.01935315  2.24236520 -1.49006612
  C -0.93407435  0.53511679  0.79472649
  O -0.75916140  1.65409651  1.19481314
  O -1.62176929 -0.40121853  1.43505735
  C -2.08921749 -0.09729334  2.74156929
  N -1.09278113 -1.15917824 -1.06059485
  C -2.51285680 -1.36296754 -0.89965984
  C -0.22280808 -2.31676444 -0.91936707
  C -0.75095486 -3.41307636 -0.13611930
  N -1.14394202 -4.30413956  0.46266589
  H  5.23482321  1.88250770 -0.16387956
  H  3.52172337  2.21290611  0.19265772
  H  3.96047590  1.18777261 -1.19598828
  H  3.72957272 -2.41406807  1.32613064
  H  1.09393287 -2.71240706  1.69630670
  H  1.94375367 -2.28000059 -0.93208088
  H  1.54158713  0.07369798 -1.48595959
  H  1.59713814  1.24847693  0.98272316
  H -2.87438647  1.91658545 -3.68783653
  H -1.54054076  2.93993095 -3.06128601
  H -1.22898884  1.76185352 -4.36234892
  H -1.64373315  0.83617827  3.08732333
  H -3.17618024 -0.00632890  2.71432646
  H -1.79682795 -0.92133460  3.38995661
  H -3.01162437 -0.39785200 -0.90495615
  H -2.87475141 -1.93843157 -1.75651162
  H -2.77693714 -1.89742242  0.01877810
  H -0.04923191 -2.71917465 -1.93747404
