35
opt_min/./Product_3774_opt.xyz
  C  4.99308940  1.11401525 -0.41834666
  C  4.78456514 -0.12795026  0.38792460
  C  6.04524830 -0.88539623  0.68168485
  C  3.60878520 -0.56584388  0.85469292
  C  2.31818551  0.04591294  0.67812237
  C  1.20053842 -0.47461378  1.19073451
  C -0.15075826  0.15068620  1.01395013
  C -0.26384283  1.47859786  1.77744408
  C -0.55851098  0.32381408 -0.46722378
  N -1.99981442  0.12869576 -0.43515688
  C -2.83074015  0.38907989 -1.46840149
  C -4.28359720  0.09948301 -1.18178131
  O -2.40303125  0.83590586 -2.51206027
  N -2.42491340 -0.34055565  0.84151627
  N -1.23878650 -0.73277568  1.49404856
  C -1.05766510 -2.04292184  1.58183640
  N -0.91260446 -3.16495543  1.76868237
  H  5.76929841  1.72521540  0.04013203
  H  4.09191390  1.71026223 -0.51077719
  H  5.33545157  0.84884565 -1.41892574
  H  6.72433397 -0.84198860 -0.16599859
  H  5.83563106 -1.92423985  0.92020078
  H  6.55299196 -0.43925593  1.53798500
  H  3.59724369 -1.48689761  1.42415725
  H  2.26074456  0.95738446  0.10093496
  H  1.23357710 -1.39410025  1.75533569
  H  0.65579467  2.04587893  1.67471885
  H -1.08517452  2.08534682  1.39943366
  H -0.42765618  1.27952474  2.83466990
  H -0.09090976 -0.44363876 -1.09355621
  H -0.31810849  1.30534392 -0.87948796
  H -4.38233439 -0.84689833 -0.65670890
  H -4.69871303  0.88854020 -0.55630458
  H -4.82956840  0.07344091 -2.11899873
  H -2.83843060  0.43760825  1.37010088
