36
opt_min/./Product_3892_opt.xyz
  C -1.23649750  1.20398415  1.15433299
  C -1.35533506  0.59894082 -0.24479749
  C -1.49800086  1.71589623 -1.28058142
  C -0.16088583 -0.34972669 -0.58135551
  C  1.02658654 -0.30087285  0.31958030
  C  2.26141907 -0.08586372 -0.12821689
  C  3.49076713 -0.05652091  0.65789534
  C  4.73489229  0.20280936 -0.14282408
  C  3.53918509 -0.24871033  1.97279195
  C -0.87107244 -1.73939457 -0.53485353
  C  0.01048461 -2.86023619 -0.31617132
  N  0.72707951 -3.72715963 -0.11992306
  N -1.89542772 -1.53768810  0.45387167
  C -2.53788496 -0.42393062 -0.25702374
  C -3.87214813  0.03323591  0.29006724
  C -2.60551456 -0.99105256 -1.68653692
  O -3.39728689 -0.75862619 -2.54861606
  O -1.57998189 -1.85247345 -1.80332288
  H -1.14116437  0.42673879  1.90592837
  H -2.12146999  1.79135391  1.38030000
  H -0.36739267  1.85477357  1.20053168
  H -2.03980213  2.55855910 -0.85859973
  H -0.51750447  2.07078771 -1.58768051
  H -2.03431830  1.37826853 -2.16424319
  H  0.16264309 -0.18781416 -1.61473248
  H  0.83998250 -0.49473823  1.36384152
  H  2.40437331  0.08802918 -1.18917853
  H  4.62057252  1.10222252 -0.74653867
  H  4.92196934 -0.62992395 -0.82028868
  H  5.59878279  0.32296636  0.50546900
  H  4.47368118 -0.21180029  2.50642184
  H  2.66411569 -0.45158067  2.56246553
  H -2.50908267 -2.34236769  0.55475961
  H -3.88686861 -0.06358551  1.37207516
  H -4.05018702  1.06903913  0.01889729
  H -4.67409681 -0.56763209 -0.13303487
