55
opt_min/./Product_5591_opt.xyz
  C -4.22171200 -0.92646000  0.96835800
  C -2.88312985 -0.48927480  0.45025303
  C -2.81428133 -0.34432939 -1.04022785
  C -1.89537557 -0.23136298  1.30504641
  C -0.48296395  0.19630323  1.04822457
  C  0.25075699 -0.48556314 -0.12961042
  C  0.49499189 -1.96128670 -0.01732211
  C  0.70996476 -2.54624518  1.34561083
  C  0.47814066 -2.71974457 -1.10363966
  C  1.51004279  0.41884236 -0.28758921
  C  1.73990652  0.77914931 -1.76891414
  C  2.89353577  1.71548086 -1.99933169
  O  1.03497386  0.38012487 -2.65944183
  C  2.75070400 -0.23619828  0.26694770
  C  3.42456832 -1.14818270 -0.54354242
  C  4.53611168 -1.82279274 -0.07900634
  C  4.99332914 -1.60521062  1.21111901
  C  4.31713322 -0.72226094  2.03223788
  C  3.19923375 -0.05004785  1.56697246
  N  1.12548666  1.69059909  0.35123933
  N -0.22785882  1.59741389  0.71420737
  C -1.06480302  2.64505781  0.41573125
  C -2.35898960  2.73991436  0.93261929
  C -3.14689098  3.83751181  0.64743418
  C -2.67110339  4.87223641 -0.13978268
  C -1.38493984  4.78896037 -0.64761869
  C -0.58919014  3.69564265 -0.37780023
  H -4.99099417 -0.22184466  0.65057118
  H -4.47690337 -1.90367731  0.55774675
  H -4.23456170 -0.99186210  2.05383226
  H -2.19141158 -1.12386797 -1.47750501
  H -3.80920479 -0.43544525 -1.47199245
  H -2.40919723  0.62719805 -1.31662965
  H -2.11665831 -0.34381591  2.36154094
  H  0.08332664 -0.00448746  1.97365749
  H -0.32013355 -0.29987003 -1.04299243
  H  1.36122759 -1.92184514  1.95229630
  H  1.15437485 -3.53554943  1.27149873
  H -0.24875579 -2.63883614  1.85998286
  H  0.66222460 -3.78034059 -1.05334632
  H  0.30633366 -2.30554764 -2.08271130
  H  3.76729333  1.13542213 -2.29178530
  H  2.65222110  2.39281217 -2.81724776
  H  3.12663540  2.27796040 -1.09949261
  H  3.05984720 -1.33898479 -1.54169860
  H  5.04704021 -2.52277964 -0.72279770
  H  5.86565084 -2.12580593  1.57619143
  H  4.65355936 -0.55796244  3.04553454
  H  2.68287784  0.61143157  2.25026176
  H  1.69270704  1.86245471  1.18136414
  H -2.75148440  1.95919232  1.56280941
  H -4.14579723  3.88264146  1.05801464
  H -3.29031092  5.73229719 -0.34816591
  H -0.99270424  5.58471551 -1.26616847
  H  0.40826320  3.63363463 -0.78457287
