52
opt_min/./Product_3104_opt.xyz
  N -1.45298233 -0.72580198 -3.78220023
  C -1.27922511 -0.93363661 -2.67253857
  C -1.17112705 -1.30769558 -1.28794121
 Br -0.33039384 -3.13801521 -1.27147262
  C -0.47218381 -0.26924783 -0.42956943
  C -1.00631423  0.42146484  0.62296248
  C -2.18772699  0.26187069  1.58921927
 Br -1.27530492  0.17287435  3.41391777
 Br -3.25046788  1.94310104  1.56411281
  C -3.28086811 -0.85989779  1.81951084
  C -4.35127753 -1.25854825  0.76490404
  C -3.79626900 -2.06955345 -0.43888448
  C -2.48580713 -1.33211088 -0.54619850
  C -0.29490540  1.78497285  0.61040571
  C -1.11904418  2.60487548 -0.45374044
  C -0.89701688  4.08316985 -0.45380349
  O -1.78879650  2.03192773 -1.27284766
  C  0.03955979  2.54324516  1.88232183
  N  0.92561308  1.57720246 -0.15145044
  C  0.89934910  0.27260965 -0.79967182
  C  1.07861742  0.50691023 -2.32444522
  C  1.66097459 -0.62631404 -3.12636282
  O  0.81814956  1.57834898 -2.79615710
  C  2.02085170 -0.57117092 -0.21219719
  C  3.32898605 -0.22534136 -0.54518093
  C  4.39910226 -0.87611446  0.03749323
  C  4.17855083 -1.88168015  0.96545234
  C  2.88394347 -2.23938490  1.29212048
  C  1.80851964 -1.59009228  0.70842619
  H -2.78067872 -1.77050268  2.16722043
  H -3.84808035 -0.48385034  2.67784136
  H -5.10603735 -1.83597005  1.30065545
  H -4.82972495 -0.35183008  0.38961281
  H -4.44777402 -1.98806102 -1.30583039
  H -3.66468900 -3.12229121 -0.18554866
  H -2.06215530 -1.56867037  0.42188314
  H -2.80121360 -0.28632426 -0.63332143
  H  0.16793349  4.28585179 -0.53031221
  H -1.41266365  4.51678552 -1.30574514
  H -1.27716402  4.51911563  0.46725715
  H  0.69366476  1.94110294  2.51127424
  H -0.83792256  2.83289423  2.45248220
  H  0.57801012  3.45040324  1.61904229
  H  1.77370084  1.74074636  0.37490201
  H  1.19529666 -0.64870504 -4.10867909
  H  1.57456218 -1.58879074 -2.63452888
  H  2.72109344 -0.41827620 -3.27366566
  H  3.49747715  0.57461880 -1.25271827
  H  5.40798866 -0.60378039 -0.23387919
  H  5.01650752 -2.38744339  1.42060277
  H  2.69932710 -3.03263449  2.00137851
  H  0.81091522 -1.94940187  0.92196171
