25
opt_min/./Product_422_opt.xyz
  C -2.28685963 -1.39801608 -0.80016589
  O -0.94233766 -1.08425219 -0.46022114
  C -0.64399520  0.18355515 -0.19015231
  C -1.24065713  1.38174979 -0.26768611
 Br -2.99028978  1.91429706 -0.72627972
  C -0.21754884  2.38648821  0.28908439
  C -0.42864064  3.77538212  0.00823119
  N -0.62315196  4.87172948 -0.24319396
  N  1.07270172  1.80630751 -0.06633292
  C  0.75160907  0.49173474  0.41587513
  C  1.83099444 -0.57970601  0.25645324
  N  1.59480461 -1.67492782  0.98674246
  C  2.48739932 -2.81047522  0.95651487
  O  2.77400983 -0.41523524 -0.48044885
  O  0.45647794  0.78580368  1.81006501
  C -0.16783770  1.97094977  1.80722562
  O -0.61436421  2.53707321  2.74721665
  H -2.30803987 -2.47871315 -0.92125973
  H -2.58244786 -0.91762839 -1.73392137
  H -2.96964310 -1.09703272 -0.00291193
  H  1.34377636  1.84963024 -1.04150198
  H  0.78641902 -1.70769110  1.58601507
  H  2.40056357 -3.36758169  1.88508697
  H  2.25005240 -3.46505657  0.11508847
  H  3.50821131 -2.45012234  0.83469810
