49
opt_min/./Product_4940_opt.xyz
  C  5.15381900  0.73336700  0.80896800
  C  4.70265638 -0.55618525  1.42735304
  C  5.69481616 -1.17745548  2.36288667
  C  3.53183654 -1.15074635  1.16825660
  C  2.51212291 -0.67939201  0.26620217
  C  1.30950569 -1.25331121  0.15782226
  C  0.20360241 -0.73801319 -0.70774900
  C  0.67477106 -0.30913462 -2.10382047
  C -0.99984344 -1.69229524 -0.80006974
  C -2.23804364 -0.81807708 -0.42656967
  C -3.04091742 -1.52942267  0.67241547
  N -3.58769073 -2.69671174  0.24900185
  C -4.40658469 -3.51606460  1.10887423
  O -3.15279090 -1.12892739  1.80610267
  C -3.15100143 -0.46454026 -1.61740844
  N -1.70617490  0.41803782  0.10246843
  C -0.45836105  0.47831157 -0.02584502
  C  0.37455396  1.60942232  0.39607026
  C  0.56820016  2.69966900 -0.44401407
  C  1.41558216  3.72462586 -0.06164975
  C  2.07093766  3.66863967  1.15698201
  C  1.87000992  2.58934823  2.00139333
  C  1.02667188  1.56027359  1.62443634
  H  5.80489154  0.53362065 -0.04359219
  H  4.31829222  1.33947831  0.47191563
  H  5.72691862  1.31345173  1.53141445
  H  5.30742138 -2.09006481  2.80742227
  H  5.96276131 -0.48455310  3.15956811
  H  6.60945434 -1.41893746  1.81867957
  H  3.29648018 -2.07317327  1.68584834
  H  2.75538155  0.17763016 -0.34321372
  H  1.06969541 -2.10063696  0.78599041
  H  1.39325857  0.50349423 -2.04497109
  H -0.17417310  0.02818306 -2.69503406
  H  1.14505139 -1.15117753 -2.60879996
  H -1.09708572 -2.14206678 -1.78639311
  H -0.89589269 -2.49585422 -0.06810692
  H -3.48032965 -2.98091367 -0.71100336
  H -4.15573180 -4.56762072  0.97359989
  H -5.47111560 -3.37004382  0.90306869
  H -4.20763587 -3.21803255  2.13694374
  H -4.13447087 -0.91892188 -1.51877810
  H -2.71278575 -0.78300903 -2.56098994
  H -3.28548925  0.61415244 -1.64458468
  H  0.04991241  2.74398806 -1.39054804
  H  1.56571295  4.56898242 -0.71894175
  H  2.73511451  4.46895315  1.44892576
  H  2.37674152  2.54539636  2.95412604
  H  0.86380174  0.71478733  2.27500034
