39
opt_min/./Product_4576_opt.xyz
  C  2.43419902 -0.74469469 -1.05769342
  C  2.20407244 -0.53737612  0.41305117
  C  3.41947731 -0.65583582  1.27538864
  C  1.01254513 -0.27411791  0.94132411
  C -0.25830618 -0.13825613  0.18072654
  C -1.43215387 -1.01322780  0.71745682
  C -1.81423568 -2.17563407 -0.14962695
  C -2.25131055 -1.86321964 -1.55567986
  C -1.76487825 -3.41508168  0.31400866
  C -2.54201164  0.08848462  0.84948260
  C -3.90715822 -0.39494473  0.79905338
  N -4.97248096 -0.79786763  0.74272386
  O -2.25794389  1.01951024 -0.15514189
  C -0.91630169  1.28263562  0.27398162
  C -0.18620343  2.37199433 -0.49258123
  N -0.94146510  2.96506131 -1.42862920
  C -0.43711265  4.04089211 -2.24651367
  O  0.97103200  2.63710939 -0.26043360
  C -1.16028724  1.53999037  1.77574712
  O -0.58401482  2.22177649  2.55518388
  O -2.24514052  0.78594638  2.06650014
  H  3.49575675 -0.84361054 -1.26213206
  H  1.94036010 -1.65226890 -1.39694764
  H  2.05759086  0.09469638 -1.63167955
  H  4.15552433  0.08516711  0.97949949
  H  3.17858304 -0.51302000  2.32167966
  H  3.87136385 -1.63943646  1.15297785
  H  0.93483599 -0.11456180  2.00822092
  H -0.11074532 -0.33450613 -0.87999521
  H -1.18779348 -1.36147778  1.72416196
  H -2.40277750 -0.79862649 -1.70182925
  H -1.50965939 -2.21159669 -2.27069305
  H -3.18783801 -2.36741129 -1.77306031
  H -2.03130563 -4.25709489 -0.29472030
  H -1.44890558 -3.63316638  1.32065208
  H -1.89582676  2.67900908 -1.57409222
  H -1.00531990  4.95697686 -2.08170386
  H -0.49083373  3.77652400 -3.30316408
  H  0.60067427  4.20783743 -1.96807474
