55
opt_min/./Product_5594_opt.xyz
  C  0.46992100 -2.35072900  0.12828500
  C  0.49974643 -0.91465246 -0.40924189
  C  0.28967470 -0.94085089 -1.93977499
  C -0.56524069 -0.06960242  0.35804795
  C -1.89324709  0.03983441 -0.30955435
  C -2.88319362 -0.82691705 -0.09094076
  C -4.19902354 -0.79492486 -0.70848648
  C -4.52450267  0.31624661 -1.66296727
  C -5.10004018 -1.73136557 -0.40758417
  C  0.13010271  1.29952206  0.63856342
  C -0.10503048  1.62443749  2.12043693
  C -1.51989193  1.55846275  2.64198842
  O  0.82423282  1.83498439  2.86180449
  C -0.31110614  2.42579935 -0.28415851
  C -1.19099791  3.43434730  0.08758686
  C -1.55140867  4.42459188 -0.81211026
  C -1.03547578  4.42874955 -2.09479709
  C -0.13306852  3.44626823 -2.46486121
  C  0.23005644  2.46167698 -1.56625731
  N  1.55411990  1.07919074  0.39947618
  N  1.75542452 -0.25508317 -0.07578667
  C  2.91468531 -0.92879673  0.26833803
  C  3.60888276 -0.69780419  1.46162840
  C  4.77180454 -1.38638807  1.73909507
  C  5.26575471 -2.32643445  0.84961260
  C  4.58356789 -2.56735877 -0.33105327
  C  3.42800164 -1.87428871 -0.62755863
  H  0.56451963 -2.36322045  1.21307805
  H  1.28939033 -2.93111104 -0.28556915
  H -0.47027261 -2.82129373 -0.14991995
  H  0.21330736 -1.96662088 -2.29121371
  H  1.13713561 -0.47605714 -2.43538352
  H -0.61148795 -0.41587131 -2.23842661
  H -0.70550454 -0.57226738  1.32124425
  H -2.02321590  0.87189207 -0.98379075
  H -2.72770667 -1.63775996  0.60909511
  H -4.69260869  1.24384311 -1.11600443
  H -5.42365378  0.08298739 -2.22685997
  H -3.70870882  0.48194932 -2.36276470
  H -4.88833219 -2.52547061  0.28753548
  H -6.07740407 -1.73008596 -0.85291430
  H -2.25727936  1.41002191  1.85971829
  H -1.73421226  2.46408465  3.20704393
  H -1.57711849  0.73199059  3.35096344
  H -1.60109950  3.47539193  1.08254994
  H -2.23885508  5.19768475 -0.50132828
  H -1.32197796  5.19932465 -2.79522090
  H  0.29586923  3.44799592 -3.45593111
  H  0.95649419  1.71801716 -1.84554637
  H  2.05899450  1.21205397  1.27783931
  H  3.24153087  0.01848802  2.18351051
  H  5.29100322 -1.19728093  2.66797754
  H  6.17346035 -2.86668824  1.07290553
  H  4.96671169 -3.29297819 -1.03484435
  H  2.90493495 -2.05761583 -1.55360224
