74
opt_min/./Product_3124_opt.xyz
  C  4.06922500 -2.30465000  3.07755600
  O  3.73083048 -1.26596317  2.17004706
  C  2.60602807 -1.42413858  1.47064132
  O  1.86685666 -2.36595037  1.60042986
  C  2.33956421 -0.22284729  0.58650610
  C  3.34532093  0.03468043 -0.55456259
  C  4.76236018 -0.40015242 -0.33542491
  O  3.00054935  0.71879515 -1.48529880
  C  0.92332418 -0.30329698  0.03724403
  C -0.13194670  0.53567215  0.21198808
  C -0.40467316  1.97931961  0.70608393
  C -1.36742952  1.91444592  1.90007180
  O -1.04213850  1.42124257  2.95237007
  O -2.51672495  2.51891953  1.68665671
  C -3.44820137  2.52336318  2.75839822
  C -0.94751389  2.76377138 -0.50408428
  O -1.58315292  3.77808979 -0.45034381
  O -0.42451608  2.25830166 -1.62579576
  C -0.67803701  2.95711924 -2.83798494
  C  0.62092813  3.13346572  1.19215603
  C  1.59753880  3.03520173  2.39663780
  C  2.83903678  2.13375059  2.15551403
  C  2.11528550  1.06676586  1.37528554
  C -1.37265969 -0.27761154 -0.21722036
  C -2.33499957  0.43182936 -1.17091895
  O -2.40100196 -0.19916234 -2.34222053
  C -3.31021873  0.30753696 -3.31282557
  O -3.00980414  1.38804867 -0.88652312
  C -2.12451940 -0.70304166  1.05804740
  C -3.50097479 -0.58258333  1.20268738
  C -4.13203554 -1.04217178  2.34811657
  C -3.40349348 -1.64663930  3.35586493
  C -2.03506916 -1.79194819  3.20999263
  C -1.40218545 -1.32790219  2.07320241
  N -0.82150954 -1.44109620 -0.93212042
  C -1.43676422 -2.72134607 -0.62212518
  N  0.57319027 -1.42543408 -0.70991177
  C  1.46661004 -2.09446954 -1.49223186
  C  0.89339966 -2.90351036 -2.62463714
  O  2.66735938 -2.04985819 -1.27153232
  H  4.74154334 -1.86815556  3.81253970
  H  3.17041692 -2.69480379  3.55863574
  H  4.56950406 -3.11614779  2.54493248
  H  5.36028687 -0.09030953 -1.18921446
  H  5.14001162  0.06615730  0.57207243
  H  4.81588044 -1.47845868 -0.23149579
  H -3.64651634  1.50205323  3.09141364
  H -3.05170536  3.09978711  3.59690422
  H -4.34962561  2.98638795  2.36758738
  H -0.79305437  2.20912803 -3.62024301
  H  0.17353821  3.60070995 -3.06432916
  H -1.58216454  3.56049057 -2.73715405
  H -0.06855971  3.95007009  1.43212837
  H  1.19185656  3.46366617  0.31872013
  H  1.90349728  4.05820150  2.62578119
  H  1.04987702  2.64958015  3.25719052
  H  3.27408645  1.81099908  3.09969591
  H  3.59956879  2.64396406  1.56359145
  H  1.78619844  1.65068388  0.52782069
  H  1.28015721  0.81067826  2.03145803
  H -2.75684988  0.48516886 -4.23447133
  H -4.08181150 -0.44341987 -3.48612709
  H -3.76115568  1.23533088 -2.95566056
  H -4.09749559 -0.11067958  0.43888942
  H -5.20174777 -0.92562938  2.44509061
  H -3.89835325 -2.00345192  4.24687518
  H -1.45338342 -2.26692612  3.98492683
  H -0.33663791 -1.46314321  1.97595559
  H -1.06572777 -3.16158443  0.30849012
  H -2.51034575 -2.56862768 -0.54087640
  H -1.25635492 -3.41560637 -1.43936779
  H  0.68020343 -3.92006424 -2.30013205
  H -0.01185642 -2.43669896 -3.00299902
  H  1.64922338 -2.95205803 -3.40464384
