35
opt_min/./Product_3838_opt.xyz
  C -2.81891890  0.56714707 -0.82739457
  C -1.57170890  0.13171896 -0.06409633
  C -1.66637606  0.63616621  1.37926010
  C -0.23266561  0.61969445 -0.68461295
  C -0.36785926  1.08016676 -2.11312135
  O  0.02501781  0.49040184 -3.07939636
  C  0.72423893 -0.59440750 -0.54389974
  C  2.01667017 -0.22311909  0.13224436
  C  3.06764478  0.27685262 -0.62621154
  C  4.24500058  0.66827424 -0.01178084
  C  4.38252487  0.55686214  1.36369099
  C  3.33906449  0.05327836  2.12117533
  C  2.15933820 -0.33062002  1.50895008
  O  0.02890831 -1.57552669  0.20084312
  C -1.35483982 -1.41617861 -0.06065376
  C -1.75378028 -2.11126560 -1.37369682
  C -2.09588078 -2.06507585  1.01097236
  N -2.69399841 -2.60046826  1.82324143
  H -2.76632797  0.31094029 -1.88244076
  H -3.69655903  0.08785278 -0.39553799
  H -2.94857695  1.64456846 -0.73851726
  H -1.70565017  1.72398263  1.39608952
  H -0.80349612  0.30915280  1.95556176
  H -2.56493425  0.25246776  1.85875628
  H  0.14118127  1.47306749 -0.11077460
  H -0.87591513  2.05545730 -2.21099146
  H  0.94335115 -0.98058943 -1.55295408
  H  2.96089331  0.35879513 -1.69823924
  H  5.05939243  1.05307813 -0.60866146
  H  5.30347913  0.85724701  1.84050356
  H  3.44203083 -0.04095985  3.19235877
  H  1.34970706 -0.74274765  2.09274971
  H -1.29761298 -1.60838498 -2.22244296
  H -1.39443646 -3.13877158 -1.34337693
  H -2.83358348 -2.12279805 -1.49368408
