32
opt_min/./Product_818_opt.xyz
  F  0.43866600  3.76657700  1.70099300
  C -0.14019076  3.08390165  0.72050694
  C -1.41143488  3.03378503  0.32819247
 Br -2.93365315  3.89037860  0.97825551
  C -1.42947936  1.95541959 -0.74506481
  C -1.33047820  0.60037704  0.02971383
  C  0.12725907  0.67955927  0.55420871
  C  0.58289501  2.02542881 -0.09969767
  O -0.14578665  2.07127731 -1.30363260
  C  0.80047946 -0.57084461 -0.04471945
  C  2.29571421 -0.38200347 -0.32178650
  N  3.03662208 -0.47602976  0.80629638
  C  4.46942218 -0.27951573  0.80067975
  O  2.75947717 -0.16606058 -1.41130844
  N  0.03061445 -0.74879794 -1.25935183
  N -1.31132290 -0.52457022 -0.86632414
  C -2.28915436 -1.41068533 -1.17550446
  C -3.67892663 -1.01559582 -0.73449195
  O -2.03037829 -2.43980372 -1.76734135
  H -2.21024668  2.02486748 -1.49647724
  H -2.09599941  0.48218769  0.79555033
  H  0.21586714  0.72568695  1.63942212
  H  1.64597252  2.14863824 -0.27332097
  H  0.65850325 -1.41151883  0.66791309
  H  2.59397601 -0.66452120  1.69104788
  H  4.94303852 -0.98955574  1.47665349
  H  4.82396920 -0.43842294 -0.21646225
  H  4.72684986  0.73735456  1.10958699
  H  0.10169107 -1.65602147 -1.71335393
  H -3.80316649 -1.23357938  0.32626182
  H -3.87910478  0.03631051 -0.91080722
  H -4.39115897 -1.62074776 -1.29163877
