33
opt_min/./Product_379_opt.xyz
  C -1.05547900  2.53281400 -1.57035300
  C -1.03405896  1.06861015 -1.27228738
  O -1.14789998  0.19805475 -2.09182576
  C -0.90841261  0.68415835  0.21771162
  F -0.61909626  1.77894103  0.98877131
  C -2.24938203  0.02579103  0.63187462
  F -2.47455316  0.20468705  1.95521868
  F -3.31040705  0.58452185  0.00975903
  C -2.02582148 -1.44836318  0.26328221
  C -2.85191394 -2.40247436  1.15373505
  C -2.09268778 -3.55254967  1.73279659
  O -4.02710486 -2.21031019  1.29786382
  O -0.63784040 -1.67066863  0.34120875
  C  0.10551353 -0.46587096  0.45503862
  C  1.21916125 -0.46305187 -0.62317899
  N  1.80964889  0.74564714 -0.76136024
  C  2.86182481  0.94139001 -1.73918584
  O  1.54457998 -1.44161431 -1.24077848
  C  0.73935082 -0.38772576  1.84696777
  H -0.85141366  2.69841838 -2.62150255
  H -2.06614121  2.87800702 -1.35576793
  H -0.37147233  3.09938429 -0.94450868
  H -2.37138163 -1.58984007 -0.77282515
  H -2.53431192 -3.84480932  2.68100907
  H -2.18789609 -4.38984057  1.04651083
  H -1.04097363 -3.31532385  1.83487904
  H  1.53072688  1.53360116 -0.20346165
  H  3.31359178  1.91649978 -1.59196468
  H  2.45888623  0.86903863 -2.74938644
  H  3.61611542  0.16389391 -1.62207593
  H -0.02094866 -0.24127085  2.60883406
  H  1.45774514  0.42323159  1.90203541
  H  1.25021584 -1.32583174  2.03098341
