36
opt_min/./Product_718_opt.xyz
  C -1.21494921  3.43058880 -0.67992739
  C -0.55317118  2.43971956  0.19237646
  C  0.72767499  2.02641878  0.20281353
  C  1.75635318  2.22247432 -0.71754890
  N  2.62187091  2.36626585 -1.45911842
  C  0.88615426  1.21757624  1.48304143
  C  0.19935833 -0.15177038  1.23356572
  C -1.28456138  0.26417373  1.26377339
  C -1.14935441  1.81359432  1.44812791
  O -0.04397823  1.85082654  2.34187358
  C -1.85439152 -0.36114422 -0.04068770
  C -2.61507345  0.50917963 -0.91085473
  N -3.21946306  1.15050253 -1.63677519
  C -2.82747754 -1.50502591  0.33012491
  O -3.82316025 -1.31638172  0.97220524
  O -2.40484444 -2.66562547 -0.12093663
  C -3.23843110 -3.79211731  0.13688125
  N -0.72556775 -0.86568821 -0.79948881
  C  0.34520610 -0.75395307 -0.13452463
  C  1.66391670 -1.16709004 -0.70505779
  O  2.62819177 -0.43632745 -0.14298988
  C  3.95376592 -0.58917194 -0.64363857
  O  1.82250502 -2.01969224 -1.53056458
  H -1.25643240  4.38130152 -0.14428943
  H -0.64785853  3.57354123 -1.59684429
  H -2.23357221  3.14376196 -0.92489181
  H  1.88466621  1.17676949  1.90571875
  H  0.48258851 -0.85493373  2.01821646
  H -1.81977529 -0.13725358  2.12612086
  H -2.02545762  2.29648844  1.87116928
  H -2.84732910 -4.59988555 -0.47526505
  H -3.19768466 -4.05881084  1.19431959
  H -4.27085859 -3.56341340 -0.13325656
  H  4.29845962  0.39874436 -0.94865511
  H  3.95484335 -1.27279978 -1.49322891
  H  4.58425131 -0.98058434  0.15464009
