55
opt_min/./Product_5522_opt.xyz
  C  5.89153361  1.65109573  1.47570427
  C  4.45460483  1.83885021  1.10089741
  C  3.84778392  3.15672366  1.48653425
  C  3.77449735  0.87604363  0.46524089
  C  2.39199328  0.95986445  0.06315361
  C  1.75519227 -0.04080227 -0.54806009
  C  0.32878581 -0.08349963 -1.02262838
  C  0.29459800 -0.92315304 -2.30939511
  C -0.24420588  1.31410021 -1.34424334
  C -1.54201746  1.45743042 -0.51746236
  C -2.66107778  2.20523429 -1.29144725
  N -3.77795977  2.36737559 -0.56439452
  C -4.94427665  3.02517327 -1.10735780
  O -2.50847920  2.61832107 -2.41737839
  C -1.31825969  2.31265374  0.62942590
  N -1.16157218  3.10527709  1.44250208
  N -1.93953288  0.08990461 -0.16342843
  C -2.78667220 -0.48302337 -1.20485980
  C -0.66545471 -0.60730396  0.09772555
  C -0.17213385 -0.17880763  1.49579238
  C -0.85133527 -2.10378959  0.26992155
  C -2.04431375 -2.58218409  0.81302135
  C -2.22421204 -3.92753134  1.07068558
  C -1.20417364 -4.82869143  0.81804228
  C  0.00400141 -4.36055765  0.33817815
  C  0.18208381 -3.01150972  0.07996916
  H  6.25386288  0.66893891  1.18343351
  H  6.50875337  2.40899942  0.99211376
  H  6.01612905  1.76319019  2.55344404
  H  3.03528427  3.01962936  2.19911226
  H  3.44279603  3.66783487  0.61381949
  H  4.59586948  3.80075442  1.94275144
  H  4.27912430 -0.05146482  0.22327525
  H  1.89043710  1.88959767  0.28611265
  H  2.31542938 -0.94953088 -0.73378477
  H  0.66334778 -1.93122974 -2.15236987
  H  0.93152631 -0.44483982 -3.05288941
  H -0.70884357 -0.99493425 -2.71647740
  H  0.45387411  2.12163166 -1.14020799
  H -0.51579383  1.38905993 -2.40023250
  H -3.82308839  1.98430963  0.36603879
  H -5.51822950  2.34383715 -1.74135380
  H -5.57014173  3.38120579 -0.29373636
  H -4.62168668  3.86765738 -1.71906545
  H -2.59842415 -0.06299535 -2.19779383
  H -2.64604425 -1.55848829 -1.25829135
  H -3.83200786 -0.29217101 -0.94751640
  H  0.68225659 -0.78532539  1.78356424
  H -0.97133968 -0.33664513  2.21693390
  H  0.12738646  0.86270495  1.52903768
  H -2.83470287 -1.88498656  1.04316245
  H -3.16178672 -4.27178285  1.48215728
  H -1.34298505 -5.88153268  1.01394282
  H  0.82351092 -5.04525839  0.17496069
  H  1.15277667 -2.67476151 -0.24357533
