51
opt_min/./Product_1434_opt.xyz
  C -1.09979800  3.88420000  1.75058200
  O -0.90074642  2.58618589  1.21548906
  C -0.44086556  2.50641931 -0.04400221
  O -0.30607976  3.45738562 -0.76267430
  C -0.25174072  1.05212234 -0.45626046
  C -1.49361267  0.18462704 -0.10514329
  C -1.81514678 -0.52507887 -1.43380017
  C -2.52442469  0.49986679 -2.32395367
  C -1.38938431  1.48276074 -2.67164670
  C -0.15381685  0.87426927 -1.98548382
  C -0.45456758 -0.61755016 -2.13047743
  C -1.06406305 -0.72963303  1.07368029
  C -1.45206391 -0.12233345  2.44174712
  C -1.79014411 -2.07278532  0.97432732
  C -0.99351739 -3.30616164  0.61576379
  O -2.97196415 -2.14039021  1.19948306
  N  0.38844244 -0.82029572  0.98400457
  C  0.91454624  0.38307300  0.35604012
  C  2.19802366  0.07851174 -0.45624655
  N  2.87415025 -1.00807865  0.00103092
  C  4.17059203 -1.34519891 -0.54663748
  O  2.58962411  0.74453309 -1.38280078
  C  1.56881758  1.34189943  1.37197040
  C  2.04156309  0.72500812  2.66537911
  O  1.77924716  2.49480204  1.10153589
  H -1.11933767  4.61804579  0.94355643
  H -0.27991813  4.11449674  2.43170397
  H -2.04707821  3.87500566  2.28766570
  H -2.34269635  0.79007365  0.19961788
  H -2.37260569 -1.45214224 -1.31299241
  H -3.35772641  0.97995684 -1.81173143
  H -2.91939191  0.01618605 -3.21782420
  H -1.21682214  1.51867508 -3.74664982
  H -1.58917747  2.49582649 -2.33785307
  H  0.77974164  1.23908568 -2.40046902
  H  0.26988257 -1.25768287 -1.63063965
  H -0.53762707 -0.92952939 -3.16744731
  H -1.73653048 -0.90456896  3.13849419
  H -0.60825906  0.42182971  2.84743694
  H -2.28622845  0.56168991  2.34546086
  H -0.50250367 -3.18845019 -0.34796118
  H -0.24571931 -3.49862506  1.38208987
  H -1.67068401 -4.15436901  0.56432409
  H  0.66410122 -1.64812722  0.47141216
  H  2.67437615 -1.37009094  0.91927610
  H  4.97612408 -0.82431065 -0.02329836
  H  4.18565275 -1.04053362 -1.59023244
  H  4.32388693 -2.41965410 -0.47148284
  H  1.63510502  1.30528057  3.49082146
  H  3.12522597  0.81172845  2.71708405
  H  1.73190534 -0.31029284  2.75850431
