32
opt_min/./Product_3812_opt.xyz
  C -1.13001000 -0.05919600 -1.71169600
  C -2.12282112 -1.16103806 -1.51219271
  C -2.65942069 -1.31920680 -0.30345275
  N -2.28199078 -0.57293319  0.78360189
  C -3.11199006 -0.53402706  1.96081171
  C -1.04693551  0.14518965  0.81080811
  C -0.19242595  0.01090215 -0.48420206
  C  0.69246924 -1.23352769 -0.47608855
  N  1.41440452 -1.40509659 -1.60655671
  O  0.69491048 -2.03606122  0.43088795
  N  0.49565328  1.29084741 -0.50356673
  C  1.82436769  1.63975132 -0.22351900
  N  2.59366666  0.66144036  0.32075069
  C  4.02520803  0.81783332  0.43491108
  O  2.23395710  2.74109221 -0.49632390
  O -0.47628340  2.21073101 -0.14470669
  N -1.17691184  1.60040375  0.99029741
  H -1.64587814  0.90590169 -1.78123264
  H -0.55316620 -0.18711707 -2.62596480
  H -2.35932599 -1.81904694 -2.32748208
  H -3.41604110 -2.06216476 -0.09684276
  H -2.52775234 -0.16534812  2.80198860
  H -3.47182354 -1.53787937  2.19937197
  H -3.98049293  0.11851670  1.82148559
  H -0.45067964 -0.21439354  1.66898154
  H  1.61302411 -0.63730204 -2.22464568
  H  2.02916353 -2.20368414 -1.64548386
  H  2.18770095 -0.19045195  0.66690169
  H  4.25067011  1.88130607  0.37232689
  H  4.54544428  0.29734584 -0.37482731
  H  4.36630871  0.42285250  1.39010986
  H -2.13750847  1.91980681  0.88935383
