74
opt_min/./Product_3179_opt.xyz
  C  3.23738100 -3.41995100 -2.51778400
  O  2.42983651 -2.27557260 -2.27926938
  C  2.66815862 -1.60209226 -1.15847461
  O  3.52477917 -1.94083740 -0.37904007
  C  1.83497397 -0.30330337 -1.04008494
  C  2.79729133  0.53309721 -0.17128177
  O  2.92221712  0.38462348  1.01088404
  O  3.57751978  1.30967355 -0.91741295
  C  4.55071335  2.06161670 -0.20243056
  C  0.50070137 -0.55406239 -0.35269262
  C -0.57684432  0.25486526 -0.18768223
  C -0.74840005  1.74790576 -0.30903381
 Br  0.95677319  2.71556051  0.31358963
  C -1.71510202  2.26025412  0.74657647
  C -1.44448267  1.93559257  2.07777648
  C -2.22845183  2.42728466  3.10105000
  C -3.29769344  3.26150041  2.82111734
  C -3.56874210  3.59845210  1.50890020
  C -2.78131368  3.10836292  0.47869674
  C -1.01061325  2.30690079 -1.71586858
  C -0.39449255  1.51396007 -2.86017428
  C  1.13582047  1.52179331 -2.87033897
  C  1.74233947  0.17247736 -2.51198187
  C -1.78065975 -0.64598415  0.19919765
  C -2.82401481 -0.28654808  1.29318814
  O -2.60565624 -0.57758225  2.44770343
  N -4.01257454  0.22383801  0.90607036
  C -5.08692395  0.41182194  1.85442944
  C -2.46266943 -1.03493892 -1.14732694
  O -2.38466636 -2.15079739 -1.59908438
  N -3.14274555 -0.04315613 -1.78286270
  C -3.75421338 -0.23722225 -3.07822480
  N -1.15309096 -1.86112503  0.66064243
  C  0.28084516 -1.82641552  0.44701872
  C  0.95885293 -1.48493339  1.82665437
  N  2.07676855 -2.15671736  2.15402288
  C  2.75768573 -1.78432003  3.37850760
  O  0.39702519 -0.71644898  2.57505816
  C  0.61894159 -3.21433616 -0.09380930
  H  3.15097583 -4.13724244 -1.69926668
  H  2.87070853 -3.85658907 -3.44283658
  H  4.28460157 -3.12760040 -2.61868371
  H  5.14495382  2.57555523 -0.95285582
  H  5.16975985  1.39542915  0.40044158
  H  4.05227119  2.77838840  0.45359112
  H -0.61430389  1.28519912  2.31547655
  H -1.99657150  2.15460084  4.11822438
  H -3.90960187  3.65511036  3.61921569
  H -4.39145887  4.25831706  1.27270679
  H -3.01704238  3.42501341 -0.52689389
  H -2.08435334  2.36627467 -1.90391444
  H -0.64405536  3.33504703 -1.75607927
  H -0.76037374  1.96050301 -3.78880899
  H -0.75376984  0.48388444 -2.83175473
  H  1.53466782  2.30915644 -2.23675333
  H  1.47233333  1.73879246 -3.88691179
  H  2.76816076  0.16979810 -2.88728735
  H  1.18782367 -0.59534060 -3.05502068
  H -4.25566024  0.30155723 -0.06656391
  H -5.87448610 -0.32890770  1.69934005
  H -5.50282192  1.41396827  1.74943980
  H -4.67244008  0.29176546  2.85315096
  H -3.05384878  0.90231680 -1.44910255
  H -4.80888841  0.04119318 -3.04605177
  H -3.24982523  0.35388788 -3.84542376
  H -3.66622134 -1.29395872 -3.32456527
  H -1.40057610 -2.06096887  1.62522106
  H  2.67573077 -2.48456718  1.41245753
  H  3.63031243 -2.41873249  3.50466950
  H  2.07332334 -1.92226305  4.21560865
  H  3.06058948 -0.73563628  3.34550252
  H  1.67170331 -3.45892662 -0.13791999
  H  0.16662086 -3.32266681 -1.07701893
  H  0.14484771 -3.93158942  0.57318274
