30
opt_min/./Product_428_opt.xyz
  C -2.88807900  2.98163500 -0.05167900
  O -2.81055967  1.71273212  0.56214646
  C -1.68688323  0.97966332  0.42710245
  C -0.52043378  1.11295964 -0.22663442
 Br  0.00500177  2.40177476 -1.51801365
  N  0.29266941 -0.01755452 -0.07507888
  C  1.67698297 -0.02798092  0.10159931
  C  2.42099894  1.13140040  0.31648597
  C  3.79818934  1.06197154  0.40980198
  C  4.45165008 -0.15440983  0.32251505
  C  3.71241758 -1.31335704  0.15208641
  C  2.33797476 -1.25623121  0.03804118
  N -0.46204296 -1.01413942  0.62687164
  C -1.66429849 -0.37139419  1.14354398
  C -2.98608907 -1.08089726  0.83204582
  C -3.13944486 -1.58324282 -0.58077958
  O -3.83959690 -1.18948895  1.66848804
  H -2.81674841  2.91512262 -1.13957362
  H -2.11240542  3.65353213  0.32757403
  H -3.86918717  3.37098804  0.21791988
  H  1.92986052  2.08358463  0.43345199
  H  4.36246568  1.96839177  0.57019930
  H  5.52752274 -0.20005985  0.40054798
  H  4.20835056 -2.27101219  0.09990695
  H  1.76881114 -2.16280433 -0.08914564
  H -0.69262801 -1.77016231 -0.01716493
  H -1.59625439 -0.24642181  2.23253615
  H -4.19348601 -1.74122017 -0.79302760
  H -2.71540522 -0.88062777 -1.29484030
  H -2.62980380 -2.54057395 -0.68653565
