40
opt_min/./Product_579_opt.xyz
  C -1.68016200  3.63679900 -0.91134200
  N -1.30846042  2.38703340 -0.28871952
  C -1.02305301  1.31180324 -1.03311968
  O -1.15297480  1.29636622 -2.24074321
  C -0.54968525  0.03882184 -0.27796261
  C -1.39847131 -0.40401711  0.95103230
  F -2.26059543  0.55648340  1.42070098
  C -2.19473241 -1.62262433  0.44672797
  C -1.24806614 -2.82492433  0.44907225
  C -0.28297526 -2.48948510 -0.70764270
  C -0.79742226 -1.14738057 -1.23995631
  C -2.30997615 -1.31870118 -1.04601241
  O -0.50476872 -0.64964290  1.99917282
  N  0.79953412 -0.81779228  1.43097114
  C  0.88113048  0.14242735  0.31270577
  C  1.22477392  1.46961886  1.02243234
  C  2.66075472  1.90663115  0.94670587
  O  0.41733818  2.04018690  1.71296097
  C  1.93519044 -0.18581619 -0.74358864
  C  2.99652434 -1.19747748 -0.39468409
  O  1.93913130  0.41364871 -1.78534849
  H -2.31039985  4.20421442 -0.23174417
  H -0.79041838  4.22207171 -1.15929573
  H -2.21687722  3.42369979 -1.83480528
  H -1.22833888  2.37388274  0.71746150
  H -3.11906869 -1.75903437  1.00380612
  H -1.80318571 -3.74271924  0.25989344
  H -0.73232223 -2.92719671  1.40177715
  H  0.74933748 -2.45554933 -0.37432516
  H -0.36013815 -3.22864970 -1.50555012
  H -0.47213747 -0.91194160 -2.25025313
  H -2.88122531 -0.42036221 -1.26614558
  H -2.71323619 -2.15559904 -1.61161291
  H  1.43041191 -0.59657869  2.20066860
  H  2.89644675  2.16707955 -0.08382069
  H  2.80193160  2.77902814  1.58135180
  H  3.33431290  1.11288582  1.26156177
  H  2.96406521 -1.99797273 -1.13241139
  H  2.87305810 -1.61308673  0.59890555
  H  3.97316350 -0.72603752 -0.49377243
