46
opt_min/./Product_5194_opt.xyz
  C  1.16992400 -1.63241200 -0.49406200
  C  2.61817045 -1.98899017 -0.61757185
  C  3.52910308 -1.32267942  0.08847025
  N  3.21042797 -0.29024148  0.92979639
  C  4.26052976  0.50733412  1.50824936
  C  1.95721374  0.40902547  0.75663698
  C  0.99262435 -0.10883124 -0.33593705
  C  1.30270867  0.59282230 -1.65299224
  N  0.51707488  0.26855508 -2.70802632
  O  2.18596346  1.41916072 -1.75905691
  C -0.43675785  0.21858048  0.30386871
  C -1.40597585 -0.93617070  0.12621385
  C -1.71615187 -1.77106530  1.19208923
  C -2.57208626 -2.84501273  1.02355705
  C -3.13294074 -3.10513615 -0.21411101
  C -2.84590462 -2.26889612 -1.27978842
  C -1.99398315 -1.19247733 -1.10835006
  C -1.07371685  1.53089687 -0.14377874
  C -0.31594602  2.67783602 -0.34669024
  C -0.91512079  3.87227471 -0.70931818
  C -2.28767187  3.95330354 -0.85280718
  C -3.05673228  2.83144377 -0.60345700
  C -2.45834832  1.63728415 -0.24421219
  N -0.17401178  0.38738466  1.72587058
  C  1.05795298  0.45693560  1.95993589
  H  0.73683518 -2.13402697  0.37805048
  H  0.61941534 -1.99686556 -1.36380417
  H  2.89301318 -2.82287188 -1.23728333
  H  4.57509331 -1.58614582  0.05834907
  H  4.49595696  1.38405462  0.88797008
  H  3.95900430  0.85787566  2.49674383
  H  5.15935828 -0.09520865  1.61532688
  H  2.22001668  1.45278623  0.50992661
  H  0.80657502  0.63667300 -3.60102922
  H  0.01711325 -0.60364214 -2.72366627
  H -1.28476542 -1.56696117  2.16022082
  H -2.80125644 -3.48173846  1.86502875
  H -3.79733442 -3.94568345 -0.34735714
  H -3.29103791 -2.45078465 -2.24703712
  H -1.81668572 -0.52000543 -1.93397037
  H  0.75290342  2.66479061 -0.23012049
  H -0.29938752  4.74389177 -0.87459579
  H -2.75355548  4.88403278 -1.14125245
  H -4.13296153  2.88193382 -0.68063697
  H -3.08766695  0.78839204 -0.02816885
  H  1.42375094  0.59287587  2.96381035
