49
opt_min/./Product_5621_opt.xyz
  C -1.93230000  1.17950300 -0.20556300
  O -2.47056954  1.92648936 -0.99084398
  C -2.68789410  0.31391821  0.72811660
  O -3.84800819  0.74989815  1.27346683
  C -4.09758977  2.14908904  1.27997777
  C -2.21760868 -0.95210342  0.93455268
  O -2.78984162 -1.95187913  1.64526994
  C -3.90560743 -1.70371263  2.47140930
  C -0.99846668 -1.44974557  0.25840522
  O -0.77795500 -2.63922589  0.19986538
  C -0.00072385 -0.44352450 -0.33235899
  C  0.24749379 -0.81823433 -1.79243639
  C -0.43909352  1.02045454 -0.10059107
  C  0.26157561  1.99987981 -1.04485897
  C  0.07394511  1.23079827  1.35650735
  C  0.23069320  2.69895601  1.73600745
  N  1.49665584  3.05804928  1.98548863
  C  1.87505865  4.38081913  2.41293376
  O -0.73497149  3.43630146  1.80186884
  N  1.28350392  0.45328226  1.42613179
  C  1.26622682 -0.46181609  0.54168849
  C  2.40788825 -1.34859830  0.35264329
  C  2.27725312 -2.68462891 -0.02112181
  C  3.40404015 -3.47013468 -0.18492956
  C  4.66731137 -2.93735560  0.00900669
  C  4.80458229 -1.61139085  0.38777840
  C  3.68453670 -0.82356091  0.56502397
  H -3.21367395  2.71297526  1.58881105
  H -4.90105662  2.29285083  2.00089555
  H -4.41511910  2.49340714  0.29445865
  H -4.10815211 -2.65408519  2.96376307
  H -4.77631827 -1.39631046  1.89030572
  H -3.68527947 -0.94258462  3.22369733
  H  0.35538670 -1.89629135 -1.87905706
  H -0.59811083 -0.50752495 -2.40349896
  H  1.15244075 -0.34894032 -2.16973593
  H  1.34190122  1.88635958 -0.98449564
  H -0.06372697  1.84064645 -2.06915861
  H -0.00616237  3.01721192 -0.76862811
  H -0.64330304  0.81264045  2.07743020
  H  2.19072108  2.32366844  1.96099598
  H  2.60810988  4.80885828  1.72659083
  H  0.97638058  4.99574440  2.41188066
  H  2.29703704  4.35924788  3.41950103
  H  1.29645914 -3.11600892 -0.13770707
  H  3.29341363 -4.50680226 -0.46635000
  H  5.54296761 -3.55429141 -0.12906890
  H  5.78749452 -1.19252566  0.54632614
  H  3.78223212  0.20984682  0.86004946
