44
opt_min/./Product_4057_opt.xyz
  C  4.42244700  0.58035300 -0.52134100
  C  3.12061038  0.16471856  0.10286183
  C  3.19872154 -0.46421411  1.46400570
  C  1.97660746  0.31195955 -0.55892551
  C  0.63134570 -0.10337146 -0.06091283
  C -0.52103283  0.81369437 -0.53137991
  C -0.60002758  2.15152885  0.15050071
  C  0.65503514  2.97119327  0.08624373
  C -1.68682834  2.63881718  0.72777738
  C -1.74535541 -0.11574416 -0.39124507
  C -2.88597202  0.27817279 -1.33840520
  C -2.18620896 -0.24711760  1.07720451
  C -3.63214553 -0.60619007  1.35624326
  O -1.40743670 -0.15069350  1.99465801
  N -1.18358404 -1.39953431 -0.83333472
  C -1.83090450 -2.60864728 -0.36539058
  N  0.23228007 -1.45169364 -0.51304722
  C  0.93021647 -1.93015411 -1.69545852
  H  5.14422035  0.87198661  0.23738097
  H  4.84899670 -0.25114898 -1.08342846
  H  4.27904621  1.41040321 -1.20883911
  H  2.46947480 -0.02297328  2.14043441
  H  4.18864967 -0.34099876  1.89434436
  H  2.98025154 -1.52919340  1.40115206
  H  1.99743556  0.75475654 -1.54539352
  H  0.62938692 -0.12928572  1.03406815
  H -0.36519744  0.99447095 -1.60387726
  H  0.99223698  3.07488380 -0.94360024
  H  1.45286535  2.48922058  0.64789331
  H  0.48510911  3.96180050  0.49930456
  H -1.67996089  3.61471880  1.18294965
  H -2.61758867  2.10602687  0.79171026
  H -3.62185590  0.90670316 -0.84767090
  H -2.48702630  0.83195281 -2.18398380
  H -3.38069361 -0.60636193 -1.73105992
  H -4.12645728  0.27585711  1.76298294
  H -3.65949563 -1.37004859  2.13034259
  H -4.17535416 -0.94385483  0.48244256
  H -1.72523758 -2.77321837  0.71315407
  H -2.88544682 -2.58216211 -0.62935581
  H -1.37506211 -3.45183568 -0.88323705
  H  0.55233168 -2.92326019 -1.93214188
  H  1.99062649 -2.00893082 -1.47052507
  H  0.78875547 -1.29035722 -2.57379867
