32
opt_min/./Product_3901_opt.xyz
  C -0.49952783 -1.54855032  1.26056067
  C -1.04664410 -0.75701845  0.08609089
  C -1.59521152  0.62241606  0.46605784
  C -2.95862933  0.60874810  1.13806954
  C -1.58424686  1.33213444 -0.91574140
  C -1.40504954  2.76879213 -0.75426904
  N -1.24244364  3.88666872 -0.58939273
  C -2.83091235  1.11129289 -1.64924963
  N -3.78873310  0.92455873 -2.24176023
  O -0.49570400  0.78570974 -1.64651116
  C  0.00080532 -0.39637423 -1.01279691
  C  0.03189244 -1.45361404 -2.01298624
  N  0.02422765 -2.28180388 -2.79923473
  C  1.39713637 -0.16566834 -0.45776664
  C  2.26948681 -1.23780629 -0.30624046
  C  3.52970349 -1.03700329  0.22708332
  C  3.92907604  0.23301697  0.60784138
  C  3.06842946  1.30366114  0.44245240
  C  1.80656381  1.10882179 -0.09073822
  H -1.30467326 -1.76560642  1.95809724
  H  0.27576857 -0.99540008  1.78568906
  H -0.08499164 -2.49356007  0.91963694
  H -1.84999316 -1.33270160 -0.39125472
  H -0.87223559  1.13037359  1.11416385
  H -3.68420579  0.05814234  0.54274721
  H -2.88348357  0.13876006  2.11518546
  H -3.32323219  1.62447878  1.27599469
  H  1.96426775 -2.22678063 -0.61415496
  H  4.20158518 -1.87394915  0.33878725
  H  4.91241135  0.38940541  1.02548806
  H  3.37716276  2.29869192  0.72653283
  H  1.15244105  1.95639603 -0.23410621
