47
opt_min/./Product_5163_opt.xyz
  C  0.58976800 -2.10736300  0.41706500
  C  0.02169781 -0.70836501  0.57240712
  C  0.12319613 -0.27867579  2.04079774
  C  0.70536593  0.35294163 -0.33366186
  C  2.03671389  0.82011038  0.15330137
  C  3.16277788  0.14220819 -0.06228545
  C  4.48147646  0.53472772  0.40882936
  C  4.63631450  1.86658835  1.07904447
  C  5.51725524 -0.28906974  0.24867650
  N -0.29458574  1.40027239 -0.36256428
  C -0.17128662  2.72404254 -0.54913573
  O  0.86673395  3.28446540 -0.81015517
  O -1.37394563  3.33372885 -0.41892609
  C -1.38990151  4.73740685 -0.62113104
  O -1.58434827  0.88309511 -0.04241716
  C -1.44355037 -0.52511132  0.09324302
  C -2.48972177 -1.05622241  1.10523190
  N -3.52476988 -0.21660673  1.26126555
  C -4.60906415 -0.49125745  2.17199504
  O -2.38621783 -2.13550665  1.63846464
  C -1.81249445 -1.25367660 -1.21611976
  C -2.63240800 -0.45288797 -2.19339527
  O -1.52716243 -2.40558615 -1.40607398
  H -0.09720413 -2.82070787  0.86402261
  H  1.54662098 -2.16402030  0.92983848
  H  0.73126525 -2.37534957 -0.62587848
  H -0.34382548 -1.02738541  2.67538428
  H  1.16861835 -0.18513903  2.32131971
  H -0.36971591  0.67717007  2.20958415
  H  0.80010593 -0.06702949 -1.35039825
  H  2.04254328  1.75430755  0.68982926
  H  3.13095470 -0.78586283 -0.61945849
  H  5.68833295  2.11902983  1.18238432
  H  4.14392898  2.64585486  0.50170156
  H  4.18845198  1.84236356  2.07105409
  H  5.40984974 -1.25186478 -0.22139515
  H  6.50591824 -0.03113944  0.58738792
  H -2.00602240  4.95737670 -1.49259606
  H -0.37247184  5.09800061 -0.78458923
  H -1.81772630  5.20447662  0.26546790
  H -3.47477149  0.69680414  0.83520374
  H -4.43588889 -1.47471145  2.60463925
  H -4.64467227  0.25384859  2.96858472
  H -5.55987657 -0.49075598  1.63798666
  H -2.64666595  0.60534208 -1.95810077
  H -3.64844416 -0.84448677 -2.18050039
  H -2.23577196 -0.61150509 -3.19418326
