27
opt_min/./Product_3259_opt.xyz
  C  1.63539275  1.73459423  0.12873827
  C  0.75709766  0.50505172  0.28280562
  C -0.70853630  0.75293242 -0.08429695
  C -1.48663377  1.53422369  0.96301883
  C -1.25250426 -0.68274016 -0.39127271
  C -2.07175070 -1.29570027  0.74832128
  C -2.05296252 -0.65454254 -1.60089692
  N -2.68619999 -0.61198104 -2.55081503
  N -0.06317424 -1.51000161 -0.64838371
  C  1.11693756 -0.65926122 -0.65732479
  C  2.37701045 -1.42072808 -0.26361169
  H  1.54582790  2.14602718 -0.87532536
  H  1.35348878  2.50096086  0.84713075
  H  2.68037240  1.47829961  0.29327984
  H  0.80676218  0.14989555  1.32044627
  H -0.73856419  1.31343960 -1.02793863
  H -2.54166818  1.58297431  0.70055697
  H -1.39320015  1.07493332  1.94489824
  H -1.10940177  2.55295060  1.00966127
  H -2.33024293 -2.32181571  0.49171967
  H -1.49684907 -1.28374802  1.67120300
  H -2.99510759 -0.74125006  0.90571936
  H  0.01120392 -2.25618754  0.03191556
  H  1.22454901 -0.26680967 -1.67832783
  H  2.83623171 -1.89037413 -1.12927388
  H  3.09979978 -0.75154441  0.19707473
  H  2.14442613 -2.20743524  0.45358107
