43
opt_min/./Product_4432_opt.xyz
  C  3.63317100  0.50115500 -1.18219300
  C  2.72036304 -0.64841184 -1.50683595
  C  3.36420202 -1.75243517 -2.29083503
  C  1.45023160 -0.73058075 -1.12823622
  C  0.67829838  0.30822974 -0.37611883
  C -0.64911334  0.57098987 -1.13148935
  C -1.11032463  2.01667059 -1.17318300
  C -2.59403904  2.22849005 -1.14694070
  C -0.27559567  3.03770360 -1.28650636
  C -1.58375107 -0.31932140 -0.34193905
  C -2.86634079 -0.82780884 -0.90196577
  O -3.67936306 -1.26954492  0.05084005
  C -4.92395179 -1.82524768 -0.34848686
  O -3.12233487 -0.82559757 -2.08167155
  N -1.16515385 -0.69381476  0.79217971
  C  0.15876721 -0.14538655  1.03151387
  C  0.00643142  1.07812296  1.94255951
  C  0.94916580 -1.28685203  1.69541156
  C  0.82942049 -1.38159132  3.19177755
  O  1.55999762 -2.10261216  1.05829503
  H  3.13000275  1.46090058 -1.27272274
  H  4.48808093  0.50067924 -1.85548547
  H  4.00527921  0.40933129 -0.16120038
  H  4.28163850 -2.07606620 -1.80068828
  H  3.62687655 -1.40040990 -3.29022764
  H  2.69747779 -2.60514665 -2.38646389
  H  0.88016901 -1.60958151 -1.39793070
  H  1.28096494  1.20403988 -0.25121208
  H -0.60234436  0.22075377 -2.16853288
  H -2.83488535  3.28188161 -1.27267608
  H -3.06542882  1.65955253 -1.94748482
  H -3.01765057  1.88295345 -0.20112665
  H  0.79299499  2.93112513 -1.34555125
  H -0.64279293  4.04971004 -1.33983882
  H -4.88706304 -2.90696666 -0.20864097
  H -5.11942005 -1.59524296 -1.39793449
  H -5.69713013 -1.39540191  0.28838846
  H -0.57478834  0.83634195  2.82759087
  H  0.98440554  1.45647607  2.23347479
  H -0.51419735  1.86152922  1.39361485
  H -0.22225583 -1.47399381  3.45616598
  H  1.23414183 -0.49598019  3.67474291
  H  1.37142091 -2.26201535  3.53166808
