42
opt_min/./Product_4768_opt.xyz
  C -1.65907175  3.32789586 -1.01412918
  C -0.83706667  2.21139878 -0.44316557
  C -0.27765168  2.51337651  0.91571308
  C -0.61945052  1.11096210 -1.16119669
  C  0.18307812 -0.12115671 -0.83836423
  C  1.60396800  0.16736493 -0.28468545
  C  2.68592544 -0.51404280 -1.09560430
  C  3.13270313 -1.87307806 -0.65971340
  C  3.16993453  0.09772624 -2.16600933
  C  1.48858216 -0.36521045  1.12520297
  C  2.54149813 -0.16795302  2.04904867
  N  3.41782394  0.04644040  2.75446034
  N  0.41904865 -0.97844110  1.42028082
  C -0.45758908 -1.02252883  0.28649390
  C -0.53931303 -2.47239925 -0.20537664
  O -1.38220047 -2.57604893 -1.22030539
  C -1.58121033 -3.86255025 -1.79569268
  O  0.13037225 -3.36745565  0.23672402
  C -1.86843338 -0.54203971  0.64760369
  O -2.82338491 -0.64605606 -0.06887368
  O -1.88226478 -0.00213318  1.85794778
  C -3.13083929  0.48770420  2.32760635
  H -1.04542229  4.22435592 -1.11512286
  H -2.48556276  3.57068869 -0.34861061
  H -2.05651440  3.06799927 -1.99189550
  H -1.02167070  3.03085026  1.51992737
  H  0.57921843  3.18483718  0.82278602
  H  0.03514294  1.62567396  1.45349155
  H -1.08428363  1.06792195 -2.13895881
  H  0.24940521 -0.70169985 -1.76146644
  H  1.79129108  1.24388140 -0.27275434
  H  3.70633704 -1.80407622  0.26623148
  H  2.28224454 -2.52585782 -0.46245311
  H  3.76389125 -2.32780367 -1.41834642
  H  2.83109295  1.07902370 -2.45642837
  H  3.91616226 -0.35759401 -2.79408880
  H -1.21231784 -3.84266301 -2.82240370
  H -2.65262876 -4.06279301 -1.79406840
  H -1.05162640 -4.62203628 -1.21861834
  H -3.71682434  0.88630818  1.49746306
  H -3.69262953 -0.31763923  2.80516724
  H -2.90393243  1.26274784  3.05652299
