29
opt_min/./Product_3243_opt.xyz
  C  0.62494900 -1.49815000 -0.53399000
  C -0.72995821 -1.10381676 -1.10493649
  C -1.23546236 -0.01789749 -0.14213898
  C -2.08968856  1.00792408 -0.88529287
  C -2.07093049 -0.64526644  0.98647464
  N -0.02120354  0.53012542  0.46319828
  C  0.07599392  1.94586522  0.67448646
  C  1.17678979 -0.17922180  0.02844144
  C  2.08090308 -0.41359384  1.24109708
  C  1.96124224  0.56257134 -1.06726418
  H  0.51421206 -2.23045859  0.26253492
  H  1.28466927 -1.91513891 -1.29060575
  H -1.42020098 -1.94047695 -1.16707557
  H -0.60475229 -0.68223943 -2.10167795
  H -2.49503693  1.74972828 -0.20505541
  H -1.51167937  1.52225260 -1.64797204
  H -2.92171356  0.49843198 -1.36160010
  H -2.34495476  0.11774394  1.70929870
  H -2.98311140 -1.08673252  0.59440674
  H -1.49926803 -1.41166393  1.49612493
  H -0.78809356  2.28213605  1.24397022
  H  0.96397528  2.13809180  1.27604186
  H  0.13860342  2.54663066 -0.24391855
  H  2.43393903  0.53570659  1.63203606
  H  2.94169232 -1.01609213  0.96984334
  H  1.52183419 -0.91421773  2.02462788
  H  1.31406414  0.77732544 -1.91414781
  H  2.78576647 -0.05717587 -1.40885152
  H  2.36656224  1.50198143 -0.70530981
