29
opt_min/./Product_419_opt.xyz
  C  1.00471500 -2.33423200 -0.25728000
  C  0.16170583 -1.13707545 -0.06912309
  C -1.15742259 -0.96590927  0.07164973
  C -2.26066690 -1.96908660  0.08654090
  F -3.18239308 -1.70939917 -0.85287958
  F -2.89321499 -2.03818720  1.26029157
  F -1.79816409 -3.20515517 -0.17086182
  C -1.37504215  0.53864289  0.25086066
  C -2.75567316  1.12741207 -0.01832912
  C -2.74952942  2.23017042 -1.02434376
  O -3.71340773  0.71344932  0.56824147
  C -0.76241728  0.76031006  1.68670790
  O -1.30357768  0.97933981  2.71472698
  O  0.55388453  0.59353659  1.49328600
  C  0.70095028  0.30302524  0.08423394
  C  2.09331990  0.60832885 -0.48092469
  O  2.84506364  1.19822869  0.41924888
  C  4.17624035  1.55818990  0.04428927
  O  2.39425837  0.30634934 -1.60087748
  O -0.29329440  1.07588170 -0.50716448
  H  0.72186495 -3.11579789  0.44588841
  H  2.05461450 -2.09043515 -0.12925447
  H  0.85927152 -2.72841813 -1.26179223
  H -2.25467868  3.09718164 -0.59121692
  H -2.18305723  1.93690270 -1.90361446
  H -3.77248277  2.48580677 -1.28533495
  H  4.31145464  1.44675545 -1.03155547
  H  4.33114458  2.59247827  0.34559196
  H  4.87074648  0.90856367  0.57811912
