51
opt_min/./Product_5379_opt.xyz
  C -1.50786700 -1.48452400  0.89535700
  C -0.64452618 -2.62004193  1.35961553
  C  0.58537352 -2.82737080  0.88940808
  N  1.18863610 -2.01654611 -0.03128146
  C  2.41445240 -2.41152758 -0.66632489
  C  0.53737907 -0.80943283 -0.41041964
  C -0.99997406 -0.86724626 -0.41470968
  C -1.49629268 -1.64586332 -1.63293452
  N -2.82463370 -1.89975675 -1.63826555
  O -0.74768436 -2.03569346 -2.50514564
  C -1.34632002  0.65027432 -0.54682589
  C -2.71081372  0.89071460  0.12459334
  N -2.64938219  1.49530968  1.31741884
  C -3.81461289  1.84876238  2.08588752
  O -3.75337856  0.51508000 -0.38854447
  C -1.48548273  1.07520451 -2.01594448
  N -0.28424792  1.35111000  0.18795545
  C  0.11163031  2.65205398 -0.29777895
  C  0.79680412  0.40258087  0.51243888
  C  2.19014268  0.95461893  0.42226024
  C  2.89514334  1.22044412  1.59129894
  C  4.18699597  1.71248502  1.54968611
  C  4.79988912  1.94982231  0.33138153
  C  4.10998078  1.68980835 -0.84013333
  C  2.81911824  1.19604307 -0.79513055
  H -2.52365030 -1.86336344  0.75117410
  H -1.56793123 -0.72487445  1.68134556
  H -1.05595543 -3.26823566  2.11593741
  H  1.18268166 -3.66242306  1.22261119
  H  2.47093244 -3.49871768 -0.72532562
  H  3.29085781 -2.04227621 -0.11746376
  H  2.44923934 -2.01769126 -1.68157901
  H  0.85618838 -0.55539243 -1.42742379
  H -3.18453985 -2.37565162 -2.45115591
  H -3.45130692 -1.25296936 -1.17240257
  H -1.72801200  1.70660473  1.68044403
  H -4.68648348  1.43647980  1.57896903
  H -3.91965763  2.93390346  2.15395580
  H -3.74961369  1.43066921  3.09235188
  H -2.31256776  0.53800719 -2.47196434
  H -0.58027635  0.86107448 -2.57864452
  H -1.70960366  2.13735590 -2.08675380
  H  0.59876856  2.65119427 -1.27922929
  H  0.80399323  3.08614518  0.42496185
  H -0.77153655  3.29083966 -0.34462768
  H  0.63489521  0.06534847  1.54722649
  H  2.42425483  1.03416356  2.54589380
  H  4.71763003  1.91001600  2.46965240
  H  5.80925050  2.33251634  0.29598833
  H  4.58089106  1.86806907 -1.79520824
  H  2.30566050  0.99672079 -1.72413876
