25
opt_min/./Product_514_opt.xyz
  C -3.88859987 -0.72560268 -0.01259533
  N -2.75449424  0.16822056 -0.00185957
  C -1.54137460 -0.25726630 -0.39743210
  O -1.31681444 -1.38379866 -0.80086800
  C -0.43660835  0.73104404 -0.33412931
  C -0.29256079  2.02716824  0.03119485
 Br -1.54524830  3.24969614  0.70335592
  C  1.11433258  2.37452288 -0.16425985
  C  1.65635635  3.64782024  0.12506959
  N  2.04038524  4.69703180  0.37243788
  N  1.80886238  1.39420415 -0.62579548
  C  0.93517513  0.26717151 -0.74215275
  C  1.50914322 -0.81200051  0.25439587
  O  2.55847203 -1.36593241 -0.28774878
  C  3.25237365 -2.37021630  0.45584049
  O  1.03336975 -1.00618152  1.32961225
  C  0.95468915 -0.33997719 -2.05888184
  N  0.94560287 -0.78945597 -3.10593471
  H -3.78785078 -1.40660700 -0.85751151
  H -4.80421635 -0.14761631 -0.10252069
  H -3.92398372 -1.31828450  0.90492914
  H -2.89260362  1.10072292  0.35223768
  H  4.29779447 -2.06958097  0.51093072
  H  2.82366031 -2.46637681  1.45403806
  H  3.16221709 -3.30876728 -0.09043720
