50
opt_min/./Product_2106_opt.xyz
  C -2.77596600 -0.20412000 -1.54630900
  C -2.95905331 -0.26104168 -0.04145614
  O -4.04704156 -0.37960882  0.45070027
  C -1.69153622 -0.59167117  0.80305091
 Br -2.30797409 -0.27709323  2.66252752
  C -0.45888063  0.19420741  0.48534533
  C  0.86336112  0.00317876  0.71053733
  C  1.66226207 -0.67961788  1.80123026
  C  3.00839447  0.05104333  1.96729336
  C  0.96286285 -0.51447242  3.15795483
  C  1.94325875 -2.16480755  1.48991428
  C  0.87731426 -2.88118487  0.66509478
  C -0.52673596 -2.94579750  1.28047379
  C -1.57476639 -2.10992813  0.54901859
  N  1.58360065  0.85601134 -0.20118440
  C  2.51268857  0.37689254 -1.08930563
  O  3.15193374 -0.63484836 -0.96994275
  O  2.66147939  1.24912936 -2.11752224
  C  3.68253269  0.92849328 -3.05119176
  N  0.68591992  1.85882610 -0.66117647
  N -0.62138623  1.34806912 -0.34893508
  C -1.61067633  2.29081460 -0.09003502
  N -1.28338443  3.55077121 -0.45825477
  C -2.18625534  4.64523580 -0.18832172
  O -2.70878255  1.95515306  0.31013681
  H -3.20013757 -1.12070085 -1.95544956
  H -1.74347142 -0.11112364 -1.86392002
  H -3.35909780  0.62714090 -1.93416014
  H  3.63902816 -0.04129011  1.09204626
  H  2.84437546  1.10313269  2.18634010
  H  3.54590374 -0.39463293  2.80098465
  H  0.61641284  0.50696388  3.29045839
  H  1.67669617 -0.73344443  3.94860346
  H  0.12328948 -1.17930084  3.29200115
  H  2.86873083 -2.21963181  0.91506259
  H  2.09944707 -2.69105094  2.43242029
  H  1.23606578 -3.89952470  0.50087623
  H  0.82786733 -2.40968587 -0.31921347
  H -0.50613852 -2.68430926  2.33630036
  H -0.87950113 -3.97871451  1.23216070
  H -2.55964377 -2.52383557  0.78637940
  H -1.42014557 -2.24047448 -0.52697405
  H  4.64280841  1.29992281 -2.68972211
  H  3.41404643  1.42246175 -3.98218552
  H  3.74420943 -0.15231579 -3.18862644
  H  0.78440369  1.93494622 -1.68145617
  H -0.29677242  3.75539865 -0.53856685
  H -1.97245302  5.12112754  0.77199526
  H -3.19725766  4.24255903 -0.16007734
  H -2.10454867  5.38319179 -0.98497075
