34
opt_min/./Product_3727_opt.xyz
  C -3.62093203 -1.10692991  0.19309293
  C -2.27544678 -0.64673601  0.66089151
  C -2.16000700 -0.36618042  2.12952997
  C -1.27103096 -0.48056980 -0.19382414
  C  0.10484768  0.01517371  0.16051758
  C  1.22016551 -0.76100390 -0.56118334
  C  2.38517980 -1.17423528  0.30964561
  C  2.95594335 -2.52784961  0.02420256
  C  2.90072511 -0.35405756  1.21378990
  N  1.69096622  0.24385702 -1.54965261
  C  2.60239559 -0.02037024 -2.45599202
  N  3.38396764 -0.29668715 -3.24989141
  N  1.14934145  1.44974426 -1.37015327
  C  0.28814645  1.40784540 -0.41890698
  C -0.44328804  2.59013306  0.03740951
  C -0.28173959  3.81843665 -0.81534056
  O -1.10712174  2.57554642  1.05364080
  H -3.92502753 -1.99915382  0.74110799
  H -3.62761365 -1.32442550 -0.87185453
  H -4.36021090 -0.33093371  0.39420489
  H -3.07516192 -0.64165263  2.64676155
  H -1.97065886  0.69347818  2.29412234
  H -1.33519360 -0.92783240  2.57006119
  H -1.42331375 -0.68119357 -1.24657910
  H  0.23995034  0.01629526  1.24288052
  H  0.82383601 -1.63034461 -1.09916302
  H  2.18555939 -3.29372332  0.10634370
  H  3.76473938 -2.76505348  0.70957961
  H  3.34648263 -2.54676903 -0.99553803
  H  3.75097389 -0.64256909  1.80755807
  H  2.50365928  0.62799949  1.40876388
  H -0.94507481  3.72495288 -1.67521499
  H  0.73781365  3.89164847 -1.18413529
  H -0.56302385  4.70652421 -0.25642462
