54
opt_min/./Product_5740_opt.xyz
  C -1.30068600 -2.10514900  0.75150400
  C -1.05129197 -2.99953776 -0.42026194
  C -0.45663122 -2.56779752 -1.52766148
  N  0.02649689 -1.28750980 -1.70666327
  C  0.17290744 -0.78140532 -3.04933125
  C -0.22684152 -0.31415940 -0.68387575
  C -1.38378065 -0.64870074  0.29071406
  C -2.69952919 -0.37953224 -0.45230996
  N -3.82295254 -0.74701483  0.19638018
  O -2.72042858  0.07287746 -1.57849797
  C -1.07472576  0.37240987  1.41553486
  C -1.56729697  0.00242453  2.81535688
  C -1.72297383  1.73107907  1.06290094
  O -2.93259262  1.86672896  1.05269235
  N -0.85282274  2.71703894  0.80470767
  C -1.26546336  4.04657056  0.43543488
  O  0.34456636  0.47822549  1.46528846
  C  0.95673306 -0.00761336  0.26963742
  C  1.74282208 -1.29752094  0.58562734
  N  2.53124198 -1.70274605 -0.42906222
  C  3.26880318 -2.94276175 -0.34470391
  O  1.65563486 -1.89445037  1.63579828
  C  1.95040240  1.05267039 -0.18464002
  C  1.76778614  1.89363296 -1.27577165
  C  2.70860310  2.86510968 -1.58025799
  C  3.83668974  3.01929606 -0.79489762
  C  4.02066323  2.19701265  0.30396507
  C  3.08531147  1.22501370  0.60526701
  H -0.49004986 -2.21336984  1.47763959
  H -2.22446320 -2.40739131  1.25224293
  H -1.34678912 -4.03121012 -0.33213948
  H -0.28915474 -3.22788778 -2.36609856
  H  0.21586767 -1.61351828 -3.74989650
  H  1.09565612 -0.19953930 -3.14490934
  H -0.67470679 -0.14363225 -3.32718792
  H -0.52570274  0.62271008 -1.17254426
  H -3.85078368 -0.78526199  1.19824578
  H -4.68336138 -0.49523027 -0.26407244
  H -1.13325241 -0.93655885  3.14149791
  H -1.25078755  0.78161079  3.50564135
  H -2.65252207 -0.04752417  2.82711198
  H  0.13175136  2.51079044  0.89920017
  H -2.31760868  4.15607139  0.69900212
  H -0.66906489  4.78488775  0.96981775
  H -1.15713179  4.20447158 -0.64093069
  H  2.52929163 -1.19543695 -1.29703233
  H  4.10919241 -2.83900575  0.34641394
  H  3.64046963 -3.21265908 -1.32900363
  H  2.61369749 -3.73068850  0.03108765
  H  0.89611257  1.80899438 -1.90464190
  H  2.55195076  3.50662180 -2.43512990
  H  4.56560108  3.77909078 -1.03508400
  H  4.89370944  2.31325470  0.92889568
  H  3.22203036  0.59118336  1.46887803
