48
opt_min/./Product_1207_opt.xyz
  C  1.29915507 -3.25295397 -1.72289799
  C  1.06936063 -2.02440731 -0.92258325
  C  1.13807101 -0.72184251 -1.20948821
  C  1.36405674 -0.00367991 -2.45760662
  C  0.73207497 -0.40392790 -3.63474568
  C  0.93605426  0.29606624 -4.80946352
  C  1.76677093  1.40432102 -4.82976904
  C  2.38821225  1.81255393 -3.66281653
  C  2.18567605  1.12122400 -2.48270825
  C  0.79288514 -0.02124551  0.09924638
  C -0.75494434 -0.19480371  0.21664361
  C -0.83736337 -1.69377160  0.56847613
  C  0.68087509 -2.07185076  0.54982790
  O  1.28836166 -0.91259055  1.07196101
  C -1.44646170 -1.72311209  1.98275221
  C -2.97599224 -1.99510250  1.93457586
  C -0.88099801 -2.76623551  2.82417161
  N -0.48975243 -3.60986733  3.48788901
  N -1.11011332 -0.41100403  2.50677104
  C -1.34581059  0.53587519  1.43648773
  C -0.76462135  1.90313953  1.67866893
  C -0.25192404  2.27798584  2.91221219
  C  0.24843110  3.55387372  3.10686276
  C  0.24061752  4.46982350  2.07220937
  C -0.26220072  4.10528531  0.83472383
  C -0.76264766  2.83040560  0.64071652
  H  0.56768166 -4.01713318 -1.45930113
  H  2.29045157 -3.65620723 -1.50020402
  H  1.24910779 -3.04804586 -2.78843094
  H  0.06524203 -1.25303035 -3.61901749
  H  0.44052319 -0.01951552 -5.71711541
  H  1.92871210  1.95043345 -5.74694824
  H  3.03449224  2.67867144 -3.67056191
  H  2.67997535  1.44166557 -1.57795089
  H  1.16304477  0.98543765  0.25563191
  H -1.24831210  0.07958144 -0.71343207
  H -1.40099771 -2.31205743 -0.12754480
  H  0.95216326 -2.96346864  1.10802201
  H -3.17801539 -3.06427556  1.89585422
  H -3.41616649 -1.51149321  1.06279736
  H -3.43439885 -1.58045245  2.83200178
  H -1.58940531 -0.18936096  3.36788986
  H -2.43768586  0.68295964  1.25716209
  H -0.21050801  1.56571591  3.72251532
  H  0.64789971  3.82847597  4.07391736
  H  0.63267161  5.46530344  2.22561160
  H -0.26822189  4.80916997  0.01503660
  H -1.15231898  2.55160936 -0.32906380
