35
opt_min/./Product_4520_opt.xyz
  O  0.74231200  2.72420300 -1.71291400
  C  0.25189836  3.10139591 -0.67812725
  O -0.11818024  4.33799779 -0.46955790
  C  0.12443384  2.12165509  0.50057317
  C -1.15443750  2.11345405  1.29983091
  C -1.78465868  3.24565377  1.95169715
  O -2.86534095  2.96137394  2.67720689
  O -1.37568609  4.38929329  1.83708138
  N -1.65112907  0.92407688  1.42434925
  N -0.89713309  0.02819130  0.84098894
  C -1.47205637 -1.24900484  0.51592889
  C  0.19949566  0.63120084  0.05379275
  C -0.26908065  0.49775595 -1.43293687
  C  0.61358067 -0.23408187 -2.39490989
  O -1.38608976  0.85844499 -1.70236396
  C  1.54756275  0.04042241  0.37891702
  C  1.71128113 -0.94185088  1.34671283
  C  2.97383837 -1.43013222  1.64034256
  C  4.08522076 -0.93516456  0.98279991
  C  3.93185555  0.06811851  0.03982119
  C  2.67412427  0.55774765 -0.25657190
  H  0.96725448  2.37198881  1.16233687
  H -0.54596811  4.51075301  0.42326685
  H -3.07883804  2.01593765  2.60261476
  H -0.68063658 -1.95445028  0.27171099
  H -2.15653007 -1.17126215 -0.33449064
  H -2.02863253 -1.60249164  1.38282186
  H  1.33607127  0.46959100 -2.80097194
  H  0.00502465 -0.60788027 -3.21498347
  H  1.15044804 -1.04479206 -1.90995137
  H  0.85965770 -1.31769210  1.89271368
  H  3.08539257 -2.19597404  2.39327037
  H  5.06725245 -1.31918357  1.21372730
  H  4.79502842  0.47607066 -0.46392054
  H  2.55556529  1.35137965 -0.97765685
