48
opt_min/./Product_1844_opt.xyz
  C  3.68001000 -1.85777500 -0.27759800
  O  2.67841965 -0.94975249  0.14928521
  C  1.31299923 -1.30131124 -0.05070353
  C  1.09999815 -1.80057169 -1.50260134
  F -0.19286003 -1.77530705 -1.86062410
  F  1.50894840 -3.06364814 -1.69909662
  F  1.73844805 -1.05278662 -2.40153295
  C  0.56798278  0.00962287  0.06671949
  C -0.74306772  0.45741427  0.20787399
  N -0.68229124  1.80894909  0.32063023
  N  0.51811493  2.21082167  0.27249333
  N  1.31283513  1.16002583  0.11128358
  C  2.69828713  1.43479978 -0.24518816
  N  3.35594904  1.97230656  0.78606188
  C  4.70421803  2.46901120  0.65948950
  O  3.09720623  1.26495979 -1.36192971
  C -2.14900869 -0.06778044  0.09075399
  C -2.51376116 -0.14793277 -1.40690908
  C -1.91619283  0.90697760 -2.29803686
  O -3.25356245 -1.00090684 -1.82415893
  C -3.03635936  0.99825339  0.81546559
  C -4.23626152  1.51209018  0.07618663
  O -2.81527413  1.28044977  1.96015832
  C -2.58074180 -1.37147231  0.79901465
  C -1.60422900 -2.53557508  0.81197927
  C -0.39373609 -2.26725212  1.71173885
  C  0.94719762 -2.38302337  1.00084333
  H  4.58597095 -1.54429846  0.23881198
  H  3.44946675 -2.88970169 -0.00732456
  H  3.83745665 -1.77879282 -1.35643505
  H  2.85681011  2.15172426  1.64399848
  H  5.01301157  2.32816413 -0.37475398
  H  5.37813012  1.91619714  1.31594479
  H  4.74671339  3.52916228  0.91088622
  H -1.79972008  1.85702435 -1.78276519
  H -0.93278833  0.57059630 -2.62467188
  H -2.53497967  1.02069519 -3.18571941
  H -5.04255200  0.79303624  0.22721022
  H -4.06947537  1.61444838 -0.99007351
  H -4.54570504  2.46209599  0.50661343
  H -3.48961476 -1.69195315  0.28349541
  H -2.83773706 -1.14665306  1.83708386
  H -1.30091253 -2.78254706 -0.20368685
  H -2.14992465 -3.39931444  1.19407694
  H -0.48407395 -1.28721083  2.18667499
  H -0.37298553 -3.00340547  2.51373951
  H  1.73168131 -2.30542655  1.75860245
  H  1.02690968 -3.37051052  0.54194812
