42
opt_min/./Product_4507_opt.xyz
  C -0.58587110 -2.24873696 -0.30550208
  C -0.84782054 -0.78346938 -0.69548562
  C -0.96486991 -0.71233749 -2.21179518
  C -2.07805980 -0.24451080  0.09875437
  C -3.18600209 -1.27843416  0.32120464
  C -2.72599464  1.01695991 -0.48446667
  N -1.44284244  0.06705366  1.37256393
  C -2.07343352  0.17646425  2.50216349
  N -2.64922053  0.29345006  3.49407239
  N -0.01816992  0.21623764  1.28946893
  C  0.45059553  1.36690482  2.03313389
  C  0.33245021  0.06794885 -0.11725233
  C  0.60798617  1.43212970 -0.82920541
  N  1.82477127  1.93922688 -0.54913853
  C  2.24594838  3.21443504 -1.08534240
  O -0.17171578  2.00368092 -1.55560352
  C  1.65845969 -0.67289448 -0.29019668
  O  2.07080613 -1.08490119 -1.34279814
  O  2.35363746 -0.71624986  0.84865764
  C  3.62700919 -1.35305835  0.81887893
  H -0.44059618 -2.35245316  0.76800307
  H -1.41536858 -2.87630942 -0.61789258
  H  0.30091009 -2.61637139 -0.81421596
  H -0.03066163 -1.05099895 -2.65347118
  H -1.76690862 -1.36619379 -2.54615488
  H -1.15622132  0.29668908 -2.55899273
  H -3.99980984 -0.81855687  0.87827217
  H -3.57248617 -1.61880823 -0.63574374
  H -2.83929064 -2.13059472  0.89765019
  H -2.06404316  1.87453880 -0.41923697
  H -3.63402265  1.24476522  0.07003679
  H -2.98660043  0.87090311 -1.52744181
  H  0.27785310  2.33143973  1.53603751
  H  1.51331411  1.23836833  2.23151156
  H -0.07478674  1.37569922  2.98774020
  H  2.45041456  1.48855127  0.09813881
  H  1.99408983  4.03120337 -0.40301343
  H  3.32050622  3.20338360 -1.25250782
  H  1.72488218  3.37736828 -2.02753465
  H  3.54195477 -2.33775667  1.27990625
  H  3.96609271 -1.45992754 -0.21336509
  H  4.31657447 -0.73506291  1.39170535
