65
opt_min/./Product_2563_opt.xyz
  C  2.02631000  2.54037600  0.61450800
  C  1.13864269  2.02765298 -0.53279775
  C  2.00543894  1.88496064 -1.80811390
  C  0.63711122  0.61827990 -0.26082214
  C -0.46409528 -0.11045000 -0.50941903
  C -1.91407483  0.30997771 -0.75369120
  C -2.86346877 -0.68413510 -0.08265570
  C -2.66685719 -0.90256400  1.28056267
  C -3.56241755 -1.65970552  2.01110864
  C -4.66825384 -2.21751132  1.39387096
  C -4.87885334 -1.98797854  0.04731232
  C -3.99747179 -1.21014658 -0.68381822
  C -2.17589409  0.40206843 -2.26739851
  F -2.33155915 -0.76193993 -2.90542880
  F -3.28989912  1.10404044 -2.56300951
  F -1.17760546  1.03204952 -2.91960292
  C -2.39327850  1.67460543 -0.12597668
  C -1.52446775  2.34634616  0.94324070
  C -0.76064251  3.52013314  0.34765839
  C  0.08523278  3.09538216 -0.84497079
  C -0.04483092 -1.60685605 -0.62681342
  C  0.14053075 -1.90742445 -2.13489887
  C -0.95927013 -2.71925753 -0.05472958
  C -0.63565376 -3.24310923  1.32164331
  O -1.81574802 -3.23181254 -0.73197871
  N  1.21421918 -1.63783044  0.09586539
  C  2.20546211 -2.64481875 -0.18251190
  C  1.70892754 -0.29674968  0.28602129
  C  1.75816384 -0.13718101  1.82050931
  N  2.97499694 -0.34497119  2.36319708
  C  3.20253207 -0.34166488  3.78860652
  O  0.76086833  0.05989901  2.48461177
  H  2.25479851  3.59061489  0.45157529
  H  1.52517464  2.43564013  1.57172158
  H  2.96635434  1.99898744  0.66402029
  H  2.18616258  2.86232538 -2.24736023
  H  1.49675102  1.27598666 -2.55116558
  H  2.97485555  1.44047467 -1.59782635
  H -1.80870901 -0.46018118  1.76578216
  H -3.39556939 -1.81064759  3.06829449
  H -5.36599521 -2.81575560  1.96001892
  H -5.74330680 -2.40663439 -0.44534527
  H -4.21772021 -1.03153879 -1.72299443
  H -2.60786855  2.40084506 -0.90854780
  H -3.34696324  1.43644114  0.34789131
  H -2.19091282  2.74854957  1.70965330
  H -0.86859934  1.62516774  1.42352908
  H -1.48696768  4.25729803 -0.00627100
  H -0.15193622  4.00197606  1.11165719
  H  0.60652870  3.97372141 -1.23087180
  H -0.57022774  2.73146450 -1.63096310
  H -0.77998105 -2.30365667 -2.55100067
  H  0.91276840 -2.65619798 -2.27838530
  H  0.42156050 -1.01237656 -2.68501199
  H -1.08633649 -2.59451653  2.06532363
  H -1.06398941 -4.23678764  1.42229223
  H  0.42923627 -3.26152086  1.50863663
  H  2.78155800 -2.83878756  0.72704711
  H  2.90937658 -2.34601318 -0.97484491
  H  1.72252733 -3.57159455 -0.48211332
  H  2.70140226 -0.15111862 -0.15903288
  H  3.76583377 -0.51696983  1.76445023
  H  3.71731247 -1.25164816  4.09710507
  H  2.22857213 -0.28582712  4.27091653
  H  3.79390523  0.52712277  4.08721541
