39
opt_min/./Product_798_opt.xyz
  C -2.25118385 -3.09676098  1.97370919
  O -1.33361769 -2.22259292  1.32146853
  C -1.68281812 -1.82101745  0.09270283
  O -2.64865815 -2.19995046 -0.50022518
  C -0.67499185 -0.79540740 -0.42598218
  C  0.77394942 -1.29109739 -0.27909494
  C  1.23541137 -1.31573689 -1.77021210
  C  1.33118218  0.11590304 -2.24373516
  C  0.07667426  0.52135470 -2.38775063
  C -0.77196829 -0.66664758 -1.98584588
  O  0.03590594 -1.75919172 -2.38154708
  N  1.42990949 -0.36356218  0.60410503
  C  2.73910041 -0.48368504  0.93921054
  C  3.21973840  0.48511639  1.99307382
  O  3.43413770 -1.32283649  0.40914706
  N  0.53017861  0.54798894  1.20690012
  C -0.73720299  0.48042282  0.46954656
  C -1.00143072  1.80010790 -0.33328136
  N  0.00935700  2.67351057 -0.25915501
  C -0.05089920  3.98186711 -0.86228333
  O -2.05538708  1.98537386 -0.89285034
  C -1.84734623  0.41133677  1.40373882
  N -2.69026660  0.38317528  2.17439482
  H -2.50080637 -3.93288061  1.31851474
  H -1.75234391 -3.44313813  2.87468604
  H -3.16258598 -2.54950867  2.21937731
  H  0.84633255 -2.31733468  0.10152490
  H  2.07840485 -1.96577486 -1.97855423
  H  2.24982386  0.64970538 -2.38266199
  H -0.31061373  1.45033185 -2.75238968
  H -1.78175192 -0.74567097 -2.37399737
  H  2.75634581  1.46031933  1.88030918
  H  2.97553179  0.08768846  2.97785929
  H  4.30104314  0.56763295  1.91995390
  H  0.37805237  0.28783046  2.18674134
  H  0.83800072  2.40704335  0.25330314
  H -0.94938170  4.02334499 -1.47755309
  H  0.82853817  4.15873744 -1.48141605
  H -0.11352966  4.75798509 -0.09655678
