52
opt_min/./Product_1811_opt.xyz
  C -2.91489900 -1.07986200  2.75625200
  O -2.13893248 -0.34888321  1.81553686
  C -2.00539243 -0.90437081  0.60701489
  O -2.55841122 -1.92291636  0.29480407
  C -1.06106310 -0.07311376 -0.26044053
  C  0.38373689 -0.71684956 -0.25225199
  O  0.28258389 -1.99254282  0.30308420
  C  1.41780457 -2.84594189  0.27643064
  C  0.75498627 -0.69667612 -1.76144544
  C  0.00470823 -1.82560842 -2.48363961
  C -1.46578031 -1.37904271 -2.38607111
  C -1.36959248  0.02411833 -1.77454749
  C -0.01553330  0.51096324 -2.29745144
  C  1.21922205  0.32443336  0.59779682
  C  1.28815149 -0.04966178  2.10336567
  C  0.60491993  0.89698300  3.04647898
  O  1.92216589 -0.99468380  2.49285611
  C  2.67017118  0.51806975  0.15378890
  O  3.13184213  1.59365161 -0.11490026
  O  3.35706433 -0.61723044  0.14753322
  C  4.74162626 -0.52184501 -0.16627890
  N  0.51692189  1.55567835  0.30836862
  N -0.87133694  1.23012817  0.32129085
  C -1.76177888  2.21036229  0.64772189
  N -3.06077448  1.96383815  0.31903035
  C -4.10827159  2.85513142  0.75406102
  O -1.38944419  3.22918012  1.20670110
  H -2.79468596 -0.56970312  3.70820941
  H -2.55612881 -2.10869141  2.81598111
  H -3.96447345 -1.08831426  2.45486340
  H  2.17462954 -2.52653424  0.99150819
  H  1.03145173 -3.82282013  0.56444836
  H  1.86402057 -2.90532657 -0.71792724
  H  1.82848285 -0.69050455 -1.93581355
  H  0.15335750 -2.81132900 -2.05444618
  H  0.33991010 -1.85106284 -3.52202138
  H -2.03268828 -2.04605136 -1.74338066
  H -1.94901280 -1.34718913 -3.36178043
  H -2.21844363  0.66857339 -1.99498718
  H  0.00963676  0.56151786 -3.38482570
  H  0.30893833  1.46037043 -1.88221835
  H  0.61707023  0.46253202  4.04378081
  H  1.15696285  1.83736709  3.06922944
  H -0.41711510  1.10845469  2.74671231
  H  4.89370921  0.17613347 -0.99198914
  H  5.06233406 -1.52460035 -0.43714763
  H  5.29567227 -0.16903929  0.70523682
  H  0.68093277  2.32238077  0.95732194
  H -3.33401827  1.06473355 -0.03951867
  H -3.66327934  3.83758111  0.90168426
  H -4.55507231  2.52755083  1.69832443
  H -4.88297152  2.91135314 -0.00964520
