46
opt_min/./Product_1506_opt.xyz
  C -3.50446700 -0.78122700  2.68756800
  N -2.38191173 -0.52431140  1.81213623
  C -2.56358894 -0.11586153  0.54754860
  O -3.66514392  0.10192722  0.07954714
  C -1.32103190  0.02420605 -0.35179430
  C  0.00613964  0.65779780  0.15669991
  C -0.04394782  1.06797163  1.61913459
  C -0.72451182  2.35676918  1.98033315
  O  0.38604737  0.33213090  2.47550709
  C  0.11913285  1.89629910 -0.80787864
  C  0.42847153  1.40961768 -2.20623009
  C -0.70365023  0.87461887 -2.64158875
  C -1.68263415  1.04118990 -1.50532367
  O -1.24565959  2.25689038 -0.92239048
  C  1.02182942 -0.48801228 -0.12839111
  C  2.45793657 -0.03409619 -0.16087568
  O  2.74042607  0.64415195  0.94520975
  C  4.08809176  1.06808092  1.12102089
  O  3.24295143 -0.24126321 -1.04905900
  C  0.70228118 -1.62467326  0.89291819
  O  1.39527772 -2.11892556  1.72237334
  O -0.49986904 -2.08114224  0.50985772
  C -0.83193487 -1.38424623 -0.76835652
  C -1.81277684 -2.22327855 -1.55684340
  N  0.46328758 -1.12098769 -1.32719319
  C  1.20034232 -2.24890932 -1.86628676
  H -3.36177996 -0.25540925  3.63184444
  H -4.40569955 -0.42199954  2.19482393
  H -3.59998698 -1.84945249  2.88539724
  H -1.49078987 -0.85869367  2.14244819
  H -1.68803255  2.09939618  2.42149239
  H -0.90728003  3.01408271  1.14031144
  H -0.13970804  2.85353293  2.75107297
  H  0.72997969  2.71053188 -0.42604079
  H  1.39587179  1.47665203 -2.65932506
  H -0.92519630  0.38524744 -3.56711244
  H -2.74383645  1.06893875 -1.73229825
  H  4.05790869  1.94477760  1.76246717
  H  4.53608096  1.30482231  0.15414936
  H  4.65490444  0.27024532  1.60277885
  H -2.76621568 -1.70946987 -1.63658588
  H -1.43380179 -2.42434768 -2.55314564
  H -1.96243731 -3.16588181 -1.03747215
  H  0.73675710 -2.54086193 -2.80589709
  H  2.21319147 -1.91482985 -2.06608233
  H  1.23018330 -3.11355909 -1.19271205
