49
opt_min/./Product_1816_opt.xyz
  C -2.83823444  2.58198349 -2.23176256
  C -2.47988997  1.34262047 -1.45295943
  O -3.27991838  0.44911869 -1.28566189
  C -1.10461572  1.25899948 -0.92936289
  C -0.45148165  0.13110027 -0.58870565
  C -1.06176533 -1.18478093 -0.41116793
  C -2.07782519 -1.31505122  0.53737751
  C -2.65667946 -2.54554654  0.77444332
  C -2.24060493 -3.65990000  0.06410020
  C -1.23232498 -3.53985927 -0.87628650
  C -0.63936758 -2.31207134 -1.10995077
  C  1.00876533  0.42412892 -0.25181306
  C  1.21603145  0.28248394  1.25038874
  C  0.90084775 -0.90004312  1.90696657
  C  1.09262497 -1.01394333  3.27230983
  C  1.60482556  0.04664587  3.99805548
  C  1.94514742  1.21837171  3.34480518
  C  1.75740378  1.33400900  1.97977243
  C  1.97828663 -0.42397896 -1.05274030
  C  1.81030024 -0.49215045 -2.43178840
  C  2.70403197 -1.19217427 -3.22039071
  C  3.78735533 -1.82584964 -2.63455409
  C  3.96509221 -1.75319556 -1.26454851
  C  3.07062810 -1.05309254 -0.47273104
  N  1.19203317  1.82908419 -0.64747805
  C -0.13110288  2.43759724 -0.76632457
  C -0.10391714  3.51770853 -1.72986058
  N -0.00240477  4.40838046 -2.43755099
  C -0.53704244  3.03298295  0.51250542
  N -0.90577176  3.42848293  1.51736089
  H -3.78422015  2.41413525 -2.74086891
  H -2.07497520  2.85340000 -2.95528647
  H -2.96202494  3.41124784 -1.53419186
  H -2.38771953 -0.45210800  1.10648134
  H -3.44259127 -2.63236645  1.50900459
  H -2.70055099 -4.62089750  0.24119398
  H -0.90182908 -4.40447104 -1.43232703
  H  0.13671914 -2.22714322 -1.85464243
  H  0.51807184 -1.74404390  1.35472873
  H  0.83907545 -1.93829596  3.77009872
  H  1.74863606 -0.04519526  5.06416935
  H  2.35662769  2.05068168  3.89538328
  H  2.03354887  2.24492141  1.47276914
  H  0.95849388 -0.00668723 -2.89344836
  H  2.55398941 -1.23840143 -4.28857410
  H  4.48618072 -2.37645696 -3.24556741
  H  4.81689380 -2.23280866 -0.80545973
  H  3.21598973 -1.00039736  0.59439134
  H  1.70215056  1.89841037 -1.52185077
