44
opt_min/./Product_4473_opt.xyz
  C  0.32221400 -0.11490100  2.56998700
  C  0.03069084 -1.34815118  1.71401469
  C  0.67389849 -2.58800992  2.33081451
  C  0.42748701 -1.14107046  0.22609326
  C  1.54440594 -0.17266275 -0.00648657
  C  2.82294082 -0.49240400  0.19273585
  C  3.95772318  0.39133576 -0.00473589
  C  3.71849942  1.75107044 -0.58583344
  C  5.18225627 -0.01449194  0.33406950
  C -0.93663961 -0.76285012 -0.41181759
  C -1.28818624  0.73557743 -0.26951543
  N -2.34560917  0.97687869  0.51688978
  C -2.80162439  2.31047321  0.82007463
  O -0.67105854  1.60169902 -0.86125262
  C -0.98310078 -1.14567688 -1.90074165
  C -2.12838121 -0.54282651 -2.65901518
  O -0.16102390 -1.86858454 -2.39617329
  N -1.90584092 -1.55555791  0.35693281
  C -2.07906158 -2.93048382 -0.08086946
  O -1.40241868 -1.52417779  1.69106301
  H  0.00215833  0.78946353  2.05840876
  H -0.21754093 -0.19628014  3.51105631
  H  1.38913331 -0.04558413  2.76629851
  H  0.39869855 -2.64956262  3.38071417
  H  0.32254175 -3.48791788  1.83089601
  H  1.75568094 -2.53448984  2.24936240
  H  0.71974255 -2.10976002 -0.20029427
  H  1.26625082  0.80965754 -0.35155839
  H  3.07778066 -1.49119518  0.53326353
  H  3.08451066  2.33871871  0.07523893
  H  4.65815314  2.27646634 -0.73053094
  H  3.21167563  1.66661735 -1.54676714
  H  5.35957361 -0.99177935  0.75154307
  H  6.04767241  0.61249021  0.20374399
  H -2.78851804  0.19108784  0.97221931
  H -3.85890070  2.41747457  0.57457861
  H -2.21696972  3.00705665  0.22017650
  H -2.65866878  2.53471539  1.87951983
  H -1.85009666  0.48300440 -2.90264148
  H -3.03271471 -0.51570400 -2.05559268
  H -2.29163303 -1.08677649 -3.58698617
  H -2.69094868 -3.42964265  0.66986924
  H -2.61303418 -2.91884367 -1.02870912
  H -1.14277231 -3.48353703 -0.20817260
