71
opt_min/./Product_3069_opt.xyz
  C  1.18609800  1.19517800 -2.94106000
  C -0.12424579  1.15008612 -3.12104326
  C -0.56947076 -0.09599068 -2.37526082
  O  0.53008852 -0.95835324 -2.57218455
  C  1.52562889 -0.04016889 -2.13911109
  C  1.07165946  0.15178660 -0.65533926
  C  1.88661648  1.16723897  0.10683355
  C  1.63728775  1.37991686  1.46341366
  C  2.41321025  2.24246969  2.21147528
  C  3.46762326  2.91680080  1.61856632
  C  3.73320098  2.70727136  0.27929556
  C  2.95635166  1.83694794 -0.46797478
  C -0.48202999  0.34277605 -0.85176642
  C -1.14312712  1.71159845 -0.76447385
  C -2.35433316  1.87306924 -1.44642231
  C -3.04025380  3.07158857 -1.43327801
  C -2.54117775  4.15530377 -0.73119522
  C -1.35157595  4.01040459 -0.04725126
  C -0.66335667  2.80636428 -0.06161234
  C -1.13885268 -0.65658229  0.15805225
  C -2.25138439 -1.55700605 -0.42320570
  O -3.03425643 -1.21769181 -1.28562598
  N -2.30080417 -2.76295773  0.17860513
  C -3.35265578 -3.71620948 -0.07733156
  C -1.84512781  0.01556099  1.34194818
  C -3.07914401  0.63771207  1.17805120
  C -3.70585938  1.25042237  2.24678525
  C -3.12735443  1.23237571  3.50440737
  C -1.93183703  0.56340294  3.68939847
  C -1.30301580 -0.04940282  2.61941819
  O -0.09750705 -1.49210738  0.66581649
  C  1.15998022 -1.24268110  0.05184248
  C  1.54275194 -2.41223056 -0.90823955
  N  0.60903433 -3.38612503 -1.00652802
  C  0.79788768 -4.44340958 -1.97448962
  O  2.65086714 -2.50851529 -1.37935707
  C  2.29088945 -1.34488082  1.09890766
  O  3.41004913 -0.93825540  0.90254977
  N  1.92199620 -2.01765939  2.20744334
  C  2.84821952 -2.31807053  3.26907437
  H  1.89330974  1.91940540 -3.29098609
  H -0.77602751  1.82706591 -3.63522622
  H -1.48836665 -0.57211335 -2.69447618
  H  2.52307614 -0.45419100 -2.24496068
  H  0.81231641  0.87296834  1.93733328
  H  2.19521407  2.38476080  3.26005443
  H  4.08049613  3.58910902  2.20044471
  H  4.56282528  3.21247176 -0.19253346
  H  3.21828586  1.66810398 -1.49770327
  H -2.78305519  1.04451068 -1.98673274
  H -3.97150400  3.15527515 -1.97427752
  H -3.07403481  5.09422729 -0.71897215
  H -0.93959633  4.83900119  0.50953607
  H  0.26056307  2.75854548  0.48314786
  H -1.66171158 -2.93907952  0.93927835
  H -2.93282755 -4.71406177 -0.20002567
  H -3.85692755 -3.41255406 -0.99311092
  H -4.07718017 -3.72712066  0.74016030
  H -3.55869299  0.63940620  0.21383912
  H -4.65545888  1.74019558  2.09382699
  H -3.61467928  1.71872389  4.33600133
  H -1.48175599  0.51302756  4.66978608
  H -0.38625127 -0.59339898  2.78997311
  H -0.34721391 -3.13958575 -0.80174252
  H  0.56929877 -4.10099555 -2.98683724
  H  1.84169398 -4.74978691 -1.94092135
  H  0.15535593 -5.28230488 -1.71461876
  H  0.97877603 -2.36474945  2.26904933
  H  2.98736501 -3.39636567  3.36953698
  H  2.49333806 -1.91034321  4.21737179
  H  3.79804782 -1.85548264  3.00655532
