24
opt_min/./Product_3289_opt.xyz
  C -1.41279283  0.69203918  1.08622611
  C -0.11743203  1.35519866  0.60505355
  C  0.30298477  0.56722324 -0.66375274
  C  1.57670780 -0.24414971 -0.42123857
  O  2.57967453  0.56633721 -0.05182186
  C  3.82762837 -0.05643701  0.23278594
  O  1.68604822 -1.42730873 -0.55537103
  N -0.77858769 -0.33054636 -1.00551868
  C -1.61515531 -0.54198362  0.16553675
  C -3.07673955 -0.74633150 -0.22951287
  C -1.15479858 -1.73864032  0.86066556
  N -0.82105788 -2.67230069  1.42859620
  H -2.26537629  1.36538139  0.99431955
  H -1.33762757  0.37720134  2.12773563
  H -0.27438318  2.40585925  0.36230044
  H  0.66315979  1.29991094  1.36180136
  H  0.52652283  1.24782532 -1.49161706
  H  4.38732330 -0.20389281 -0.69310712
  H  4.36533880  0.61488579  0.89799140
  H  3.66042385 -1.02433614  0.70890029
  H -1.31503078 -0.01701293 -1.80278502
  H -3.16417346 -1.62193571 -0.87063270
  H -3.68537935 -0.89928516  0.66023663
  H -3.45017845  0.12517147 -0.76442248
