30
opt_min/./Product_321_opt.xyz
  N -0.23674071 -0.54527982 -2.85048106
  C -0.15313263 -0.41697834 -1.71692405
  C -0.08548119 -0.24423347 -0.29184875
  C  0.79522736 -1.27147085  0.48219426
 Br  1.62737635 -2.67509551 -0.61302953
  C  1.83711647 -0.38929734  1.18048020
  C  2.79104004  0.20830011  0.13927446
  C  1.90783383  1.22636026 -0.60964493
  C  0.55751077  1.10762300  0.10854637
  C  0.99586492  0.83584299  1.54812745
  C -0.21879282 -1.94446576  1.42954570
  O -1.25090412 -1.01475040  1.61497844
  C -1.49864465 -0.47790276  0.33929417
  C -2.33288860  0.79736385  0.42100803
  C -2.97952696  1.18256222 -0.87996098
  O -2.45753967  1.41446546  1.44240002
  H  2.34026507 -0.90640866  1.99593419
  H  3.62538394  0.70119654  0.63959791
  H  3.21061209 -0.54326702 -0.52839784
  H  2.29614295  2.24043019 -0.50641770
  H  1.83214385  1.00816918 -1.67533814
  H -0.10889596  1.95428409 -0.04482483
  H  0.16741180  0.62525459  2.21885616
  H  1.59743879  1.64611265  1.95781143
  H  0.20160671 -2.21623800  2.39816984
  H -0.61687182 -2.85242548  0.94526037
  H -2.03052412 -1.22482489 -0.28313154
  H -3.89469208  0.59847381 -0.98636743
  H -2.33746004  0.96607876 -1.73005291
  H -3.25157111  2.23572435 -0.85940210
