36
opt_min/./Product_4042_opt.xyz
  C -1.11833700 -1.55906700 -1.18546300
  C -0.80430597 -0.77144037  0.08802354
  C -0.31952371 -1.71813121  1.19882875
  C -2.02356970  0.07163147  0.59200461
  C -3.30980256 -0.11898592 -0.15402587
  O -4.30301610 -0.57616629  0.34034106
  C -1.47563435  1.53531445  0.51166391
  C -2.25527675  2.58976856  1.25981488
  N -0.07090793  1.38369571  0.85647021
  C  0.23425085  0.39126779 -0.16525802
  C  1.71167598  0.13042001 -0.30748669
  C  2.54105657  1.24600759 -0.23385497
  C  3.90944230  1.11657636 -0.37637064
  C  4.46938845 -0.13038521 -0.59673819
  C  3.64977953 -1.24138863 -0.67832208
  C  2.27768269 -1.11495426 -0.53782914
  O -0.21997421  1.07671830 -1.35075142
  C -1.28821456  1.79518375 -0.98699455
  O -1.96041690  2.44982165 -1.72279860
  H -0.24809721 -2.12837825 -1.50176434
  H -1.39371697 -0.90328021 -2.00711860
  H -1.93591584 -2.25253888 -0.99726716
  H  0.50616740 -1.28139242  1.75959591
  H -1.12140289 -1.94632491  1.89832168
  H  0.02023541 -2.66329897  0.78268353
  H -2.22172618 -0.15460840  1.64578175
  H -3.29460230  0.20589188 -1.20995828
  H -3.03184108  2.98827002  0.61028086
  H -1.58763054  3.40031900  1.54332599
  H -2.71728641  2.17846326  2.15456496
  H  0.07990420  1.03704513  1.79835280
  H  2.10040903  2.21565611 -0.06258933
  H  4.54110426  1.99025082 -0.31825608
  H  5.53813376 -0.23593804 -0.70788883
  H  4.07126993 -2.21964501 -0.85567734
  H  1.66332747 -1.99535586 -0.61303998
