36
opt_min/./Product_815_opt.xyz
  C -1.80862800 -0.09210500  1.33649100
  C -0.85276897  0.15232742  0.17019538
  C  0.61409924 -0.36745291  0.33752348
 Br  1.04835863 -1.22477659  2.05808053
  C  0.83171480 -1.30017399 -0.85812405
  C -0.02846079 -2.55793174 -0.70259577
  C -1.46433119 -2.03321528 -0.90395487
  C -1.25603109 -0.53443565 -1.15735951
  C  0.06068491 -0.53780543 -1.93833853
  N  1.40291470  0.84897822  0.24554059
  C  2.78063090  0.95436663  0.32273097
  O  3.32902645 -0.26667948  0.44602646
  C  4.74137467 -0.28836463  0.60364899
  O  3.38221296  1.98536994  0.26535645
  N  0.65835163  1.94033885  0.06754786
  C -0.58736299  1.64719090  0.00078153
  C -1.55288382  2.75501071 -0.18817821
  C -3.02410077  2.41905139 -0.21039997
  O -1.16670771  3.89226627 -0.30944479
  H -2.83801493 -0.11004721  0.98956483
  H -1.70482285  0.69384525  2.08251814
  H -1.59860289 -1.03947644  1.82699597
  H  1.88367097 -1.50292437 -1.04617940
  H  0.24247493 -3.27484492 -1.47743529
  H  0.11012310 -3.04228530  0.26205303
  H -2.09430321 -2.22070651 -0.03784050
  H -1.94021197 -2.49880963 -1.76660680
  H -2.09389044 -0.05435100 -1.65852057
  H  0.45155290  0.45795444 -2.14372985
  H -0.00567138 -1.09402664 -2.87097005
  H  5.21340375  0.37577780 -0.12201763
  H  5.01143866  0.03142272  1.61147626
  H  5.04404630 -1.32037856  0.44225782
  H -3.23455580  1.45795279 -0.66415398
  H -3.54809857  3.20596593 -0.74783054
  H -3.39221784  2.41081025  0.81487985
