46
opt_min/./Product_1234_opt.xyz
  C -1.06649243  1.56546690  1.07507417
  C -0.56627190  0.24909697  0.49201036
  C -1.60806817 -0.49095267 -0.39982383
 Cl -3.06162713  0.49467857 -0.79799819
  C -1.97881062 -1.71533417  0.44245370
  C -2.62282534 -1.25554349  1.76412422
  C -1.41678760 -0.84185205  2.62824350
  C -0.28565435 -0.81258180  1.59594215
  C -0.58484221 -2.14555102  0.90566184
  C -0.86805748 -0.81080101 -1.73206498
  C -0.88635901 -2.26760841 -2.25619166
  C -1.44487251 -0.04543681 -2.84397519
  N -1.82410534  0.46078832 -3.79580360
  O  0.48618498 -0.44560671 -1.54333077
  C  0.66112003  0.47075561 -0.47180505
  C  0.80137307  1.90163654 -1.06204689
  C  1.05426653  1.98758093 -2.54109556
  O  0.80690392  2.88998920 -0.37262939
  C  1.99958954  0.17905479  0.19643393
  C  2.61074348  1.11232574  1.02601669
  C  3.80699985  0.81534599  1.65443540
  C  4.41598864 -0.41222420  1.45950211
  C  3.81977332 -1.34075985  0.62520522
  C  2.62193698 -1.04849485 -0.00048052
  H -1.87078488  1.40866739  1.78214935
  H -1.44477395  2.22161239  0.29519981
  H -0.25362481  2.07989618  1.57794438
  H -2.59108106 -2.43960507 -0.08852432
  H -3.18885286 -2.06656491  2.21962068
  H -3.30789930 -0.42788702  1.58929690
  H -1.56799250  0.07623063  3.18774875
  H -1.18479770 -1.62030469  3.35665317
  H  0.70671102 -0.71291211  2.02876676
  H  0.10713875 -2.40299382  0.11475069
  H -0.62583316 -2.96934342  1.61541417
  H -0.00003112 -2.79400743 -1.91690440
  H -0.86052846 -2.25334144 -3.34417881
  H -1.77810992 -2.79806840 -1.94410180
  H  0.21789698  2.50871115 -3.00621431
  H  1.17703475  1.01646685 -3.00593292
  H  1.94319795  2.59542561 -2.69882777
  H  2.15293683  2.07523287  1.18881235
  H  4.26495340  1.55257424  2.29664480
  H  5.35072700 -0.63738134  1.95054894
  H  4.28656527 -2.30038377  0.45799776
  H  2.18063356 -1.76909300 -0.66987703
