32
opt_min/./Product_364_opt.xyz
  C -1.34029798 -1.29670801  2.75086600
  O -0.34694259 -1.04432436  1.77602581
  C -0.75309113 -0.58587667  0.58964860
  C -1.97951770 -0.35335670  0.06908877
  C -3.25615804 -0.52740052  0.62097145
  N -4.30240490 -0.65986253  1.07256083
  N -1.83581244  0.16937422 -1.22805374
  C -2.79681745  0.41221377 -2.08264286
  N -3.64364576  0.66372184 -2.81660260
  N -0.45423386  0.25638853 -1.58500154
  C -0.12155084  1.54696094 -2.15407941
  C  0.30422331 -0.18559265 -0.41660460
  C  1.17837448 -1.40497229 -0.81319974
  O  1.90661950 -1.79115949  0.22457512
  C  2.75727914 -2.92069292  0.04329564
  O  1.16426880 -1.90955172 -1.89692751
  C  1.20487483  0.91848915  0.18135042
  O  0.82115354  1.71148877  0.99578926
  O  2.41704783  0.89275826 -0.35123387
  C  3.32866695  1.88963700  0.10783454
  H -1.89311958 -0.38301069  2.98501931
  H -0.80409563 -1.64456789  3.63084095
  H -2.04191778 -2.06414242  2.41187214
  H  0.91853953  1.51193682 -2.46961615
  H -0.27538437  2.38465661 -1.46090975
  H -0.74788820  1.69228941 -3.03312714
  H  2.98980610 -3.04622755 -1.01540346
  H  2.25201219 -3.81337975  0.41518037
  H  3.65964948 -2.73352405  0.62063835
  H  3.39871631  1.85902984  1.19614658
  H  4.28581685  1.65526631 -0.34897749
  H  2.98484920  2.87891976 -0.19899514
