36
opt_min/./Product_3753_opt.xyz
  C -1.65530747 -0.29150937 -1.85611667
  C -1.67045169  0.37596231 -0.47006898
  C -1.52478617  1.88389674 -0.66079947
  C -0.53943367 -0.16033633  0.44523256
  C  0.82608444 -0.28433103 -0.13350019
  C  1.76776872  0.64418730  0.02914788
  C  3.11846717  0.58308620 -0.50552086
  C  3.53112695 -0.63633860 -1.27276484
  C  3.96122091  1.59533010 -0.29818467
  C -1.16127853 -1.49794187  0.94246527
  C -0.48273759 -1.94743693  2.14043793
  N  0.06407905 -2.24902176  3.09718259
  C -1.04817830 -2.56246331 -0.04666060
  N -0.95366552 -3.40622823 -0.81073901
  N -2.57411616 -1.18972799  1.17161163
  C -2.94903770 -0.04738271  0.32195188
  C -3.58807974  1.04561769  1.17297923
  H -1.96974449  0.42117634 -2.61532968
  H -2.32449826 -1.14688621 -1.90212139
  H -0.65853483 -0.63380008 -2.11874294
  H -1.35477195  2.40244030  0.27958215
  H -2.41557808  2.29558182 -1.12860678
  H -0.67267508  2.08083089 -1.30844600
  H -0.50180201  0.50031535  1.32326692
  H  1.02760418 -1.18738583 -0.69142343
  H  1.53551730  1.53640883  0.59767780
  H  3.44247138 -1.52431667 -0.64863061
  H  4.56226582 -0.54610498 -1.60386158
  H  2.89699281 -0.77072744 -2.14784941
  H  4.96923355  1.57784564 -0.67608352
  H  3.67383911  2.47310895  0.25451240
  H -2.71611745 -0.95835991  2.14964647
  H -3.70265532 -0.40439431 -0.39216321
  H -4.35315050  0.59966260  1.80638499
  H -4.06586505  1.79477286  0.54818388
  H -2.85464574  1.53587230  1.81032288
