45
opt_min/./Product_4791_opt.xyz
  C -0.85719000 -1.73771900 -2.45179800
  C  0.17423188 -0.71069804 -1.96729948
  C  1.56717660 -1.11529377 -2.44559434
  C  0.08687870 -0.51168318 -0.43486836
  C  1.29805348  0.17418693  0.10644602
  C  2.02502744 -0.29133578  1.11956589
  C  3.17003277  0.37829296  1.71522531
  C  3.55503357  1.72625525  1.18483153
  C  3.83426778 -0.19011292  2.72165134
  C -1.12371157  0.45787350 -0.33769865
  C -2.46506196 -0.27173545 -0.16936433
  O -2.37425017 -1.28605810  0.69993715
  C -3.59417699 -1.95417033  0.99857448
  O -3.48715615  0.05198168 -0.70793139
  C -1.04790967  1.41130348  0.84456223
  C -1.14682061  2.77834962  0.64940140
  C -1.06887799  3.64002420  1.73068001
  C -0.90095497  3.14104566  3.00955642
  C -0.82044252  1.77224648  3.20890169
  C -0.89882278  0.90805479  2.13337755
  O -1.14097480  1.17305540 -1.55800090
  N -0.11489876  0.64246696 -2.42849092
  H -1.87054311 -1.37310481 -2.29119828
  H -0.73705415 -2.68279187 -1.92595308
  H -0.72752002 -1.91944436 -3.51866024
  H  1.59798527 -1.12580270 -3.53237226
  H  2.31562470 -0.41659324 -2.08494383
  H  1.80649882 -2.10990177 -2.07720395
  H -0.10438286 -1.44677129  0.09044848
  H  1.52515781  1.11593070 -0.36846906
  H  1.76333421 -1.24367848  1.56564062
  H  2.73342474  2.42824522  1.32587206
  H  4.43200065  2.10571187  1.70372152
  H  3.77472568  1.67439030  0.11959288
  H  3.55204443 -1.15427240  3.11040283
  H  4.67820180  0.28733398  3.19043495
  H -3.97475732 -2.46098702  0.10969451
  H -3.36357967 -2.67426316  1.77952413
  H -4.34174794 -1.23652652  1.34236237
  H -1.28182899  3.15430859 -0.35204185
  H -1.14202414  4.70604258  1.57175425
  H -0.83745334  3.81550402  3.85078902
  H -0.69673912  1.37774881  4.20674109
  H -0.84168788 -0.15740057  2.28799165
  H -0.54126301  0.65205360 -3.35484243
