45
opt_min/./Product_4616_opt.xyz
  C  0.84206600 -2.43877800  0.31534500
  C -0.14474551 -1.35565076  0.76269143
  C -1.45400406 -1.18834834 -0.07151951
  C -1.67514874 -2.07569759 -1.28730097
  C -1.43929771  0.31464443 -0.42456680
  C -2.78583302  0.92667876 -0.78399477
  N -2.77602488  2.27119139 -0.69752730
  C -3.93348504  3.06608057 -1.04037030
  O -3.74794734  0.28423730 -1.14932207
  N -0.77602182  0.97123193  0.69979133
  C -1.66216795  1.04862196  1.86661550
  C  0.41317764  0.11345875  0.87711943
  C  1.11941387  0.34446551  2.21763424
  C  2.27483951 -0.58083587  2.51253810
  O  0.81513584  1.21783871  2.98897594
  C  1.41639645  0.56181225 -0.18284279
  C  1.58973558 -0.06353636 -1.41225737
  C  2.51115791  0.41833758 -2.32721632
  C  3.27005324  1.53767842 -2.04026658
  C  3.08480892  2.18809217 -0.83299605
  C  2.16773652  1.70535906  0.08274799
  H  0.60086288 -2.82273478 -0.67052850
  H  0.81118514 -3.27977916  1.00547312
  H  1.86050461 -2.06604417  0.27882841
  H -0.45874648 -1.60968953  1.78138999
  H -2.30343264 -1.34875587  0.60054851
  H -2.72193669 -2.00814405 -1.57057771
  H -1.44723650 -3.11652654 -1.06964469
  H -1.08003576 -1.74818150 -2.13876036
  H -0.79543887  0.45108104 -1.30441188
  H -1.92306563  2.72522802 -0.41487581
  H -4.29835015  2.77230438 -2.02685690
  H -3.66536523  4.11835753 -1.04546063
  H -4.73909355  2.89721234 -0.32196409
  H -1.58311982  2.04654541  2.29989022
  H -2.69556677  0.87514603  1.56896243
  H -1.41512846  0.32750870  2.64591998
  H  1.89683228 -1.57217768  2.75279893
  H  2.82107474 -0.19499498  3.37019858
  H  2.93974820 -0.66045085  1.65750477
  H  1.01161891 -0.93126510 -1.67605164
  H  2.63019665 -0.08979192 -3.27329832
  H  3.99128757  1.90628000 -2.75428576
  H  3.65481674  3.07575446 -0.60216719
  H  2.01725778  2.23754982  1.00918724
