31
opt_min/./Product_3547_opt.xyz
  C -1.02414000 -1.51360100  0.89981900
  C  0.37673397 -2.05887582  0.63835127
  C  0.97002828 -1.04286842 -0.34254465
  C  1.97855776 -1.63107885 -1.33042813
  C  1.69738122  0.07441384  0.43444219
  O  2.17707105 -0.07325872  1.52899807
  O  1.77781572  1.17942693 -0.28888806
  C  2.45577142  2.29597041  0.27547079
  O -0.12118161 -0.51957050 -1.07565351
  C -1.33196686 -0.65900081 -0.35245179
  C -1.87740764  0.70856170  0.08908080
  O -1.16373884  1.71957433 -0.38602211
  C -1.62212244  3.02262817 -0.04863120
  O -2.84876962  0.83534092  0.79061847
  C -2.37652900 -1.30696584 -1.26582001
  H -1.04337880 -0.89198994  1.79443866
  H -1.75911539 -2.30699664  1.01830702
  H  0.97639297 -2.10880414  1.54510078
  H  0.33659024 -3.04664090  0.17797641
  H  1.62999775 -2.58937355 -1.70511509
  H  2.08482717 -0.94070560 -2.16376428
  H  2.94527152 -1.76760442 -0.84987890
  H  1.76712912  3.14019527  0.26813142
  H  3.32627461  2.52366526 -0.34260370
  H  2.77185455  2.06337288  1.29374941
  H -0.88042620  3.71699058 -0.43721802
  H -1.72053411  3.12701506  1.03525426
  H -2.59635475  3.21012652 -0.50538003
  H -2.17616993 -2.37099247 -1.37082172
  H -3.37470979 -1.16590993 -0.85029205
  H -2.32113992 -0.84146268 -2.24724488
