41
opt_min/./Product_1059_opt.xyz
  C -1.11283374  3.53406906 -0.79730307
  O -1.17137114  2.32317733 -0.05518808
  C -0.87106809  1.20209017 -0.72126417
  O -0.56130383  1.16994138 -1.87766937
  C -0.92942826  0.00820885  0.22224128
  C -1.14478522 -1.37992830 -0.45002190
  F -1.17903928 -1.40060444 -1.81713248
  C -2.45789457 -1.89746104  0.16911154
  C -3.59715662 -1.03708446 -0.38622983
  C -3.40851944  0.30315192  0.35503332
  C -2.13631885  0.07456274  1.18587452
  C -2.33155016 -1.38526948  1.60301685
  C  0.03125992 -2.18160879  0.08090108
  C  0.18560712 -3.55006657 -0.22912421
  N  0.29602802 -4.65387720 -0.51066804
  N  0.80565508 -1.56087673  0.86599832
  C  0.46903390 -0.16344733  0.93562452
  C  0.44990475  0.24901524  2.32720614
  N  0.46621238  0.58210937  3.41921142
  C  1.59117170  0.64640401  0.27514565
  C  2.55495220  0.03320009 -0.51091068
  C  3.54093106  0.79334575 -1.11595657
  C  3.57859926  2.16378572 -0.93304448
  C  2.64239620  2.77113368 -0.11336547
  C  1.65927905  2.01639285  0.49940829
  H -2.04552293  3.68200572 -1.34525377
  H -0.28250699  3.49950835 -1.50533414
  H -0.97339644  4.33395935 -0.07415748
  H -2.58427095 -2.97101913  0.03099030
  H -4.56091005 -1.49242934 -0.16223796
  H -3.51541850 -0.92504847 -1.46666927
  H -3.32379808  1.14044794 -0.33342352
  H -4.24465934  0.50583106  1.02427542
  H -2.00384841  0.78857517  1.99656590
  H -1.50255749 -1.80974623  2.16777277
  H -3.25062148 -1.52256577  2.16914764
  H  2.53804882 -1.03524188 -0.66136968
  H  4.27601693  0.30579949 -1.73808822
  H  4.34113925  2.75470571 -1.41729291
  H  2.68337778  3.83582506  0.06252150
  H  0.95369021  2.49320035  1.16446532
