37
opt_min/./Product_581_opt.xyz
  C  0.13277073  3.82020891 -0.33491471
  O  0.07529720  2.50293028  0.18697026
  C  0.62882471  1.52611380 -0.54143571
  O  1.17594798  1.70134996 -1.60238958
  C  0.43058571  0.23617728  0.14479752
  C  1.33356766 -0.68809098  0.57317189
  C  2.76670439 -0.80207563  0.40248071
  C  3.39890527 -0.22009340 -0.70225321
  C  4.76093440 -0.36175359 -0.88341472
  C  5.51922548 -1.08200586  0.02460678
  C  4.90271499 -1.66521047  1.12119173
  C  3.54106229 -1.53576474  1.30830481
  C  0.52721167 -1.71758859  1.35752927
  C  0.84756835 -1.72169579  2.76970762
  N  1.04749219 -1.67438294  3.89350268
  N -0.85617926 -1.31767443  1.24287187
  C -0.89841125 -0.21590128  0.58822820
  C -2.14782958  0.46962259  0.28178225
  C -3.17403456  0.48928300  1.22312568
  C -4.36218134  1.13776720  0.94095488
  C -4.54160082  1.75519765 -0.28671267
  C -3.53378110  1.71673247 -1.23639647
  C -2.34091566  1.07746394 -0.95656209
  H -0.75839621  4.33848500  0.00954793
  H  0.17509591  3.79374727 -1.42496052
  H  1.02260559  4.32412973  0.04406266
  H  2.81531990  0.33151421 -1.42045229
  H  5.23156374  0.09093474 -1.74323075
  H  6.58384169 -1.19245658 -0.11859704
  H  5.48646809 -2.22583121  1.83521436
  H  3.08053437 -1.98447686  2.17518699
  H  0.65287727 -2.73265634  0.96100303
  H -3.01990652  0.00279587  2.17311929
  H -5.15077288  1.16136559  1.67832181
  H -5.47022998  2.26085202 -0.50679307
  H -3.68064579  2.18257101 -2.19986168
  H -1.56637855  1.02584875 -1.70999643
