45
opt_min/./Product_2651_opt.xyz
  C -3.77258590 -2.34269475  1.71610927
  N -3.42780105 -1.40591455  0.67013598
  C -2.17024991 -0.98073561  0.52205418
  O -1.25234496 -1.31669875  1.23926909
  C -1.92334465  0.03117775 -0.64345861
 Br -2.86979567 -0.69040936 -2.26183251
  C -0.43450812 -0.01135144 -0.84331592
  C  0.63203028  0.66136954 -0.38133567
  C  0.71601053  1.93629266  0.40573891
 Cl  0.51034053  1.55938011  2.14862956
 Cl  2.38447135  2.61410098  0.23544133
  C -0.24082829  3.04038395 -0.07108879
  C -1.48742920  3.26113945  0.77940045
  C -2.38407862  2.04102206  0.95701747
  C -2.69213634  1.32916249 -0.35961277
  C  1.91072821 -0.11598343 -0.66851057
  C  2.61916437 -0.60376921  0.66782750
  N  2.93508021 -1.90073789  0.62786237
  C  3.59054226 -2.53516354  1.74973993
  O  2.87279350  0.13683020  1.58082423
  C  2.91845546  0.58568546 -1.44408885
  N  3.71960780  0.95088673 -2.17559130
  N  1.48677991 -1.29276057 -1.42995458
  C  0.06337868 -1.17958445 -1.71016381
  C -0.57927788 -2.45905973 -1.44798283
  N -1.02587950 -3.49357095 -1.26438225
  C -0.10950596 -0.74980251 -3.10289444
  N -0.08534221 -0.32080640 -4.16190095
  H -3.95236649 -1.81847913  2.65744497
  H -4.66167480 -2.89499160  1.42769659
  H -2.93871077 -3.02983215  1.85950514
  H -4.14428053 -1.14780347  0.01118029
  H  0.30921272  3.98144587 -0.06680157
  H -0.50622530  2.82885491 -1.10851745
  H -2.06509185  4.05258919  0.29689916
  H -1.18669748  3.62335476  1.76218158
  H -1.96078623  1.34227602  1.67548397
  H -3.32650073  2.40082594  1.37528804
  H -2.59027462  2.01659128 -1.20190155
  H -3.74544423  1.03364173 -0.33051009
  H  2.61570487 -2.46360374 -0.14506466
  H  3.70275637 -3.59503287  1.54344299
  H  4.57182752 -2.08501679  1.91037581
  H  3.00098908 -2.39802634  2.65835991
  H  2.02977368 -1.43890466 -2.27655069
