53
opt_min/./Product_1597_opt.xyz
  C -2.95068682 -1.63117481  0.24220155
  C -1.47969893 -1.32160908  0.54292156
  C -1.29748457 -1.32080449  2.07205317
  C -1.00008335  0.02994141  0.05611128
  C  0.26175859  0.39665341 -0.24218387
  C  1.53582900 -0.37646692 -0.45594724
  C  2.72360050  0.48156016 -0.06328902
  C  3.54838984  1.12210044 -0.98033542
  C  4.61125898  1.89558642 -0.54831825
  C  4.86512533  2.04454035  0.80329406
  C  4.05095806  1.41065592  1.72513112
  C  2.99237693  0.63490160  1.29159841
  C  1.59931037 -0.94021771 -1.88628177
  C  0.98446165 -2.33268441 -2.01438996
  C -0.47910454 -2.42853631 -1.58061299
  C -0.67289059 -2.49435669 -0.05577073
  N  0.37161785  1.79327303 -0.30440302
  C  0.97803282  2.51900517 -1.22437775
  N  1.52661987  3.20537843 -1.96225408
  O -0.80466694  2.33752444  0.25888685
  C -1.81539376  1.34729755  0.10963236
  C -2.49391715  1.64358966 -1.27936464
  C -3.67772324  0.84466105 -1.70835378
  O -2.01677492  2.52248792 -1.94385121
  C -2.81653228  1.57736810  1.24081686
  C -2.34984368  2.52925237  2.30059648
  O -3.91638877  1.08278927  1.24655103
  H -3.09826292 -1.84015904 -0.81318925
  H -3.23299478 -2.52495680  0.79495189
  H -3.61397359 -0.83476881  0.55041547
  H -1.51514011 -2.30784612  2.47339740
  H -0.27706308 -1.05570833  2.34286657
  H -1.97571913 -0.60817031  2.53538118
  H  1.53559986 -1.21377734  0.24409370
  H  3.36456757  1.03130025 -2.03870133
  H  5.23825349  2.38939914 -1.27390438
  H  5.69357495  2.65137561  1.13695538
  H  4.23980662  1.51700024  2.78332226
  H  2.36124225  0.14159190  2.01815078
  H  2.64396417 -1.01088285 -2.19168022
  H  1.09776746 -0.25276897 -2.57194276
  H  1.57612763 -3.04379474 -1.43306813
  H  1.05993282 -2.63087382 -3.06255547
  H -1.02529946 -1.58177134 -1.99455977
  H -0.89551184 -3.33324237 -2.02748675
  H  0.28803633 -2.59412843  0.44164133
  H -1.22830704 -3.40087630  0.19343048
  H -4.39542246  0.75851146 -0.89839550
  H -4.13217768  1.33517813 -2.56601777
  H -3.36131031 -0.15308843 -1.99883241
  H -2.20384861  3.50879838  1.84843454
  H -1.39089142  2.21349195  2.70360447
  H -3.09778173  2.59237506  3.08672063
