47
opt_min/./Product_4314_opt.xyz
  C  4.53178300 -1.02323700  1.37053000
  C  4.79413933  0.39016653  0.93380306
  C  6.19321062  0.87438286  1.15830291
  C  3.85885046  1.18540933  0.40055259
  C  2.48173852  0.83235864  0.16515161
  C  1.58805314  1.68430656 -0.34682683
  C  0.12651849  1.41732694 -0.58661263
  C -0.36111811  2.40061456 -1.64989172
  C -0.12029761 -0.04374662 -1.01703754
  C -0.82754160 -0.73572342  0.16974938
  C -2.30020490 -1.06645664 -0.00050254
  C -3.01061188 -1.36579175  1.15897916
  C -4.35057644 -1.69724327  1.11111166
  C -5.01001457 -1.74706004 -0.10592726
  C -4.31225944 -1.46543984 -1.26546595
  C -2.96899225 -1.13009045 -1.21421201
  N -0.67061530  0.16846071  1.30895497
  C -0.66716010  1.52671619  0.78042972
  C -0.02618966  2.47067413  1.79483248
  C -2.11911897  1.96804772  0.57882491
  H  3.99603575 -1.03556145  2.32033652
  H  5.46871941 -1.55788324  1.50713943
  H  3.93289408 -1.56172389  0.63939518
  H  6.30118348  1.91896579  0.87894761
  H  6.89552738  0.28262988  0.56992639
  H  6.46722413  0.76121317  2.20722211
  H  4.13137589  2.19546860  0.11868118
  H  2.18860517 -0.17270553  0.43137675
  H  1.91130554  2.68885928 -0.58206237
  H -0.29441943  3.42466761 -1.28881126
  H  0.26738292  2.31073167 -2.53499661
  H -1.38797341  2.20083002 -1.93947384
  H -0.70323900 -0.08158871 -1.93224960
  H  0.82547226 -0.54280175 -1.22608044
  H -0.33892692 -1.68879608  0.40992724
  H -2.49527858 -1.31490611  2.10540675
  H -4.88318060 -1.91993928  2.02419538
  H -6.05815321 -2.00624186 -0.15048247
  H -4.81351094 -1.50618831 -2.22193918
  H -2.45815446 -0.92614144 -2.14485313
  H  0.22174961 -0.00435709  1.76261573
  H  0.97528927  2.14750679  2.06530409
  H -0.63615919  2.49253791  2.69504775
  H  0.03184055  3.47763903  1.39040017
  H -2.65681152  1.80855709  1.50956949
  H -2.61492880  1.39147240 -0.19416137
  H -2.16543458  3.02352167  0.32436419
