37
opt_min/./Product_888_opt.xyz
  C -4.14916300 -1.70221000 -0.52482600
  O -2.97978448 -1.23543430  0.14145131
  C -2.03222195 -0.68431564 -0.61712048
  O -2.09055473 -0.59071634 -1.81066965
  C -0.82907385 -0.28913455  0.23217192
  C  0.03016169  0.86277090 -0.34761035
  F -0.43300052  1.41293675 -1.52048637
  C -0.10763933  1.93899253  0.76957800
  C  0.64795517  1.47126294  1.99549711
  C -0.09160298  0.49470646  2.50592994
  C -1.28500968  0.37265992  1.58320813
  O -1.45787391  1.71446360  1.15357799
  C  1.35799795  0.10848950 -0.70028882
  C  2.24287611  0.85363279 -1.70047539
  O  2.63797403  2.00082501 -1.17438946
  C  3.46174030  2.81703431 -2.00593665
  O  2.49952477  0.45801596 -2.79803771
  N  0.89494280 -1.20082051 -1.10615235
  C  0.18006261 -1.49034315  0.13876908
  C -0.39480221 -2.88201961  0.26861337
  C  1.36286420 -1.19977522  1.07782451
  O  1.67300336 -1.75274983  2.08268209
  O  2.05896344 -0.19492510  0.49997395
  H -4.90738824 -0.91758568 -0.51848009
  H -3.91242030 -1.96982436 -1.55560115
  H -4.50178988 -2.56818526  0.03131531
  H  0.04745211  2.95413170  0.41854333
  H  1.59139334  1.86460718  2.31282971
  H  0.08170325 -0.11192679  3.37128378
  H -2.19868810 -0.03922307  1.99832605
  H  3.73951502  3.67600039 -1.40190466
  H  2.90323717  3.12799177 -2.89045373
  H  4.34536069  2.25999862 -2.32044264
  H  0.31418001 -1.17890205 -1.94003811
  H -1.07714997 -2.92332572  1.11378594
  H -0.92461041 -3.16035900 -0.63936983
  H  0.41375759 -3.58928101  0.43596934
