49
opt_min/./Product_3010_opt.xyz
  C -2.62336700  3.59731100  1.27150400
  N -2.26261751  2.35564107  0.62532401
  C -2.13531184  2.27139992 -0.71798141
  O -2.33350360  3.20002590 -1.46099190
  C -1.76233349  0.84671414 -1.19442796
 Br -1.66375476  0.99843218 -3.18216734
  C -0.36403993  0.54041573 -0.75103624
  C  0.38788657 -0.53139948 -0.44378901
  C  0.09612287 -1.96700461 -0.21999755
 Br  1.15041851 -3.12862065 -1.42122281
 Br  0.65359256 -2.37363061  1.68231361
  C -1.33102235 -2.46471779 -0.32309737
  C -1.91801797 -2.17870421 -1.71014418
  C -3.16573325 -1.31072883 -1.62044432
  C -2.94915093 -0.03829717 -0.80045220
  C  1.85169262 -0.01574999 -0.31254330
  C  2.89739516 -0.87703443  0.41581919
  C  3.53102594 -0.42301120  1.69630152
  O  3.28865195 -1.87532297 -0.13987483
  C  2.41671675 -0.03052286 -1.76976305
  O  1.83373132 -0.46626547 -2.72112401
  O  3.61819254  0.51786714 -1.78502413
  C  4.26662941  0.55160091 -3.05248990
  N  1.71310505  1.39993693  0.01762176
  C  1.46716010  1.73109474  1.41405755
  C  0.56742860  1.75292706 -0.80103221
  H -3.23467557  3.39139832  2.14751062
  H -1.73607802  4.15954819  1.57554474
  H -3.18672456  4.19785835  0.55894026
  H -2.04273926  1.57225282  1.21419730
  H -1.31927954 -3.53849382 -0.12701413
  H -1.93555441 -2.01270819  0.46449895
  H -2.17231176 -3.11323846 -2.20851577
  H -1.17340702 -1.68517117 -2.33568869
  H -3.97767762 -1.87452501 -1.15252495
  H -3.48750604 -1.04434051 -2.62758609
  H -2.84748909 -0.29030436  0.25820802
  H -3.85193055  0.57412295 -0.89535026
  H  4.06571497  0.50514304  1.50526941
  H  4.24234212 -1.18789223  2.00020230
  H  2.80575490 -0.27623106  2.48988720
  H  3.76107121  1.25675453 -3.71466576
  H  4.24917516 -0.44033317 -3.50762998
  H  5.28720315  0.87182859 -2.86133850
  H  1.01512146  2.72132913  1.44739167
  H  2.40537173  1.79095996  1.95459652
  H  0.79497732  1.02392863  1.91800093
  H  0.88670848  1.90802124 -1.83950499
  H  0.11926115  2.68170287 -0.45688969
