58
opt_min/./Product_2821_opt.xyz
  F  0.78515500  1.06862600 -1.80935500
  C  0.51676889  0.05662999 -0.91505020
  C -1.00191661 -0.29742286 -0.86932095
 Br -1.87474928  0.55078138 -2.43225210
  C -0.98783181 -1.83921979 -1.06953516
  C -0.73623010 -2.18859081 -2.54182189
  C  0.65574344 -1.57941220 -2.79349065
  C  1.15960608 -1.25853886 -1.37414622
  C  0.38457494 -2.25531822 -0.51853569
  C -1.53527461  0.33454084  0.47741611
  C -2.40159553  1.55686156  0.15990075
  C -1.90779222  2.84799785  0.22237471
  C -2.72413629  3.93102249 -0.06606511
  C -4.04371766  3.73768420 -0.42404193
  C -4.54208254  2.44705520 -0.51372397
  C -3.72992665  1.36951303 -0.22819125
  C -2.29395787 -0.52009119  1.51354101
  C -3.26991733  0.09407694  2.30119340
  C -3.93872824 -0.59005204  3.29903734
  C -3.63559430 -1.91147321  3.56830910
  C -2.61896579 -2.51252483  2.85308334
  C -1.94851502 -1.82263597  1.85658187
  O -0.36040332  0.76282569  1.18778308
  C  0.85924760  0.55394712  0.51078139
  C  1.73898100 -0.40191726  1.37451803
  N  2.99850961 -0.53381228  0.93172018
  C  3.97636900 -1.32202246  1.64307792
  O  1.29532957 -0.94058712  2.36488267
  C  1.71370310  1.84298056  0.51937350
  O  2.71756068  1.94875683 -0.16020553
  N  1.31506949  2.73962928  1.42519291
  C  2.03954285  3.96845317  1.65257216
  H -1.87550476 -2.31629281 -0.65960469
  H -0.70387464 -3.27372365 -2.65593411
  H -1.50557759 -1.82613334 -3.21763608
  H  0.61100822 -0.68428518 -3.41179591
  H  1.32265870 -2.28977480 -3.28097225
  H  2.24248193 -1.26189569 -1.28808482
  H  0.54172769 -2.10344049  0.54237833
  H  0.61947204 -3.29061540 -0.76054249
  H -0.87572057  3.02340154  0.47398376
  H -2.31623856  4.92982139 -0.01343689
  H -4.67808729  4.58255071 -0.64550809
  H -5.56466791  2.27745053 -0.81470699
  H -4.12114800  0.36589587 -0.31971856
  H -3.51390942  1.13420009  2.15806538
  H -4.69422727 -0.07597236  3.87486711
  H -4.16121956 -2.45254094  4.34079533
  H -2.32556926 -3.52784969  3.07537100
  H -1.13403623 -2.33014108  1.38287369
  H  3.32089820  0.08738355  0.19648694
  H  3.44324297 -2.01236213  2.29523682
  H  4.58665797 -1.87769496  0.93220372
  H  4.62373824 -0.68914785  2.25462473
  H  0.52424077  2.49713311  2.00384053
  H  3.07919738  3.74929866  1.90411151
  H  2.03320930  4.57831407  0.74714727
  H  1.57269908  4.51479802  2.46653384
