47
opt_min/./Product_5449_opt.xyz
  C  0.14663325 -1.10539289 -1.65415704
  C -1.09129996 -1.58099816 -2.35169688
  C -2.30557050 -1.40291994 -1.83972300
  N -2.53759890 -0.79645159 -0.63195319
  C -3.87198731 -0.71758086 -0.10054017
  C -1.45726281 -0.24063319  0.08901375
  C -0.08546677 -0.92735880 -0.14534093
  C -0.15432714 -2.26429396  0.60874047
  N  0.87493665 -3.12298952  0.44550509
  O -1.10898682 -2.56526164  1.29290577
  C  0.86978295  0.13092325  0.47800741
  C  0.95105646 -0.01827610  2.01350726
  C  2.30212511  0.28955162 -0.02038215
  C  3.09982911 -0.68988276 -0.59032570
  C  4.41406320 -0.42638723 -0.94386421
  C  4.96215771  0.82295386 -0.73074127
  C  4.18029286  1.81182454 -0.15831655
  C  2.87235460  1.54541574  0.19525306
  O  0.25041815  1.39294210  0.14936398
  C -1.10929185  1.26451087 -0.18103196
  C -1.93814941  2.16327359  0.74352968
  O -3.14937058  2.38634016  0.23750578
  C -4.02874703  3.19588286  1.00862094
  O -1.54941189  2.57224302  1.80119175
  C -1.34488183  1.65849469 -1.55796101
  N -1.51923711  2.00989853 -2.63172048
  H  0.47033151 -0.14538292 -2.07486817
  H  0.94582694 -1.82146416 -1.84497649
  H -0.96781996 -2.06463903 -3.30513857
  H -3.19048725 -1.75455188 -2.34629024
  H -4.44828893 -1.58121546 -0.43072074
  H -3.83340458 -0.73214104  0.98936344
  H -4.38360344  0.19472406 -0.42766337
  H -1.68627715 -0.30602751  1.16146666
  H  0.84493185 -3.96517933  0.99840573
  H  1.77233250 -2.82388527  0.10686261
  H  1.02955160  0.97247945  2.45460056
  H  1.83244575 -0.59396417  2.28905161
  H  0.07379392 -0.50833737  2.42612843
  H  2.72297063 -1.67939717 -0.79449695
  H  5.00758273 -1.21036754 -1.39191685
  H  5.98610810  1.02395983 -1.00829205
  H  4.59158735  2.79487777  0.01757880
  H  2.26824322  2.32124680  0.63598356
  H -3.79539665  4.24976315  0.84551631
  H -3.92230153  2.96350915  2.07006831
  H -5.03524617  2.97582561  0.66178029
