58
opt_min/./Product_2820_opt.xyz
  F  1.21806200 -1.52812300 -1.45267600
  C  0.39832285 -1.26910967 -0.37396918
  C -1.10970047 -1.25249712 -0.76437630
 Br -1.28833738 -1.15920102 -2.71685948
  C -1.63418147 -2.56939562 -0.17877134
  C -0.94898673 -3.75801640 -0.86093192
  C  0.47649076 -3.74562205 -0.27359338
  C  0.47431139 -2.48003061  0.59228188
  C -0.92748697 -2.56149871  1.18161375
  C -1.67060146  0.00713556 -0.07541091
  C -2.65963446 -0.25549290  1.10072651
  N -2.35865400  0.44331493  2.21166274
  C -3.21366312  0.44927750  3.37448141
  O -3.64320196 -0.94801165  0.98591525
  C -2.62900548  0.88752743 -0.92243797
  O -3.44511288  0.42374216 -1.67795692
  N -2.50684819  2.19970958 -0.64011341
  C -3.37150933  3.19355235 -1.22861957
  O -0.56869288  0.76899798  0.39783301
  C  0.70514931  0.18297624  0.11229039
  C  1.37128227  0.97136668 -1.02873122
  C  2.74725767  0.94844465 -1.21451596
  C  3.32755088  1.64312367 -2.25966214
  C  2.54591009  2.37008307 -3.13955686
  C  1.17461775  2.38851780 -2.96777133
  C  0.59310913  1.69365814 -1.92240838
  C  1.57356951  0.30226283  1.34801559
  C  2.69547421 -0.49715735  1.54118041
  C  3.48756083 -0.33801446  2.66523897
  C  3.17958619  0.62444158  3.61036105
  C  2.08408887  1.44567206  3.41035692
  C  1.29548857  1.29000599  2.28486451
  H -2.71948555 -2.61923665 -0.17103497
  H -1.47273295 -4.68255490 -0.62264093
  H -0.94001013 -3.65085974 -1.94430665
  H  1.24495495 -3.74008989 -1.04267791
  H  0.64770521 -4.61273089  0.36665858
  H  1.28269413 -2.42861326  1.31376767
  H -1.08797176 -3.48893682  1.73020097
  H -1.17278055 -1.72699234  1.83062085
  H -1.50364739  0.98013547  2.22529651
  H -3.89491788 -0.39723442  3.29367791
  H -2.61255509  0.35546383  4.27832279
  H -3.80157563  1.36933824  3.42355429
  H -1.79149276  2.49707906  0.00680845
  H -4.06389046  3.59536009 -0.48525595
  H -2.78033125  4.00714439 -1.65013592
  H -3.94156635  2.70718673 -2.01911214
  H  3.38324508  0.38942895 -0.54837306
  H  4.39963434  1.61028697 -2.38675936
  H  3.00054944  2.90988087 -3.95656864
  H  0.54537676  2.93606590 -3.65325339
  H -0.47941540  1.70849472 -1.82466305
  H  2.96895096 -1.24382486  0.81055044
  H  4.35301254 -0.97031309  2.79751585
  H  3.79578930  0.74232865  4.48874313
  H  1.84364208  2.21712948  4.12674014
  H  0.46501524  1.96002857  2.11937113
