31
opt_min/./Product_3592_opt.xyz
  C -1.15128004 -1.86755605  0.67304578
  C -1.05865681 -0.61227846 -0.19063287
  C -1.92259383 -0.82691037 -1.43726483
  C -1.60338085  0.64481749  0.53589259
  C -1.15780745  0.89428065  1.96849764
  O -0.80267325  0.08900732  2.77803656
  N -1.05256572  1.68583050 -0.30775350
  C -1.58416418  2.85438875 -0.54591417
  N -2.07046284  3.87827688 -0.73555053
  N  0.25860299  1.34887053 -0.71608921
  C  0.38098182 -0.11520776 -0.57951078
  C  1.49220773 -0.48878158  0.41971627
  O  2.35297675  0.52922322  0.56907117
  C  3.48554252  0.28056019  1.39635417
  O  1.64735258 -1.55611074  0.94255067
  C  0.90509768 -0.66638253 -1.91443501
  H -0.99532775 -2.74897674  0.05506935
  H -2.14358405 -1.92312799  1.11623839
  H -0.42273892 -1.88297305  1.47281797
  H -1.95982994  0.06447128 -2.05997204
  H -2.94024548 -1.06386295 -1.13025162
  H -1.55146721 -1.66003095 -2.02637166
  H -2.69775825  0.69155598  0.52212246
  H -1.17396238  1.97902889  2.20698261
  H  0.95095525  1.82221323 -0.13393992
  H  3.19825973 -0.31735880  2.26226136
  H  3.86340532  1.25311656  1.70211919
  H  4.24392269 -0.25960271  0.82685041
  H  1.91926366 -0.30714080 -2.07688906
  H  0.29014755 -0.30026155 -2.73006770
  H  0.91068488 -1.75243753 -1.89919199
