35
opt_min/./Product_618_opt.xyz
  C -1.96152450  3.36049127  1.60725398
  O -1.74245656  2.21154192  0.79631942
  C -0.74826225  1.41535071  1.13104783
  O  0.02951256  1.59285876  2.03612456
  C -0.64391804  0.25248404  0.21351554
  C -1.54669801 -0.69327463 -0.12663810
  C -2.90931139 -0.88255649  0.41766202
  C -3.38916252 -2.30812506  0.44129893
  O -3.54995546  0.03998708  0.85542573
  C -0.72496858 -1.70392344 -0.91268723
  C -1.34016718 -2.73280864 -1.70510495
  N -1.77994788 -3.52102949 -2.40421358
  O  0.12009021 -2.37638126  0.21640121
  C  0.96419736 -1.44682200  0.58110027
  O  1.79151074 -1.49456656  1.43728695
  C  0.67529428 -0.18549212 -0.36556478
  C  1.76096602  0.86581517 -0.55358026
  N  2.47158813  1.11697933  0.55030218
  C  3.47080252  2.15864725  0.58724420
  O  1.91600496  1.41282397 -1.62534565
  N  0.22272489 -0.88358743 -1.55828356
  C  1.21472308 -1.45930711 -2.44312597
  H -1.74634785  3.13189807  2.65230870
  H -3.00698658  3.62562188  1.47410142
  H -1.31447170  4.17435379  1.27428106
  H -4.26485913 -2.38267099  1.08044058
  H -3.66259186 -2.61310376 -0.56806772
  H -2.60785808 -2.97634684  0.79871795
  H  2.23865203  0.65737979  1.41938709
  H  3.82363870  2.33314477 -0.42805417
  H  4.29638649  1.84274883  1.22074691
  H  3.05023267  3.08751363  0.97922074
  H  1.97817885 -2.03148304 -1.90361346
  H  1.68956427 -0.63942056 -2.97779480
  H  0.71344506 -2.11543548 -3.15179092
