60
opt_min/./Product_3056_opt.xyz
  N -3.04468202  1.98925129  2.31264850
  C -2.51932060  1.05645777  1.91293083
  C -1.95085881 -0.21207612  1.46367268
  C -1.28471645 -0.74077141  2.65075623
  N -0.80630739 -1.18706532  3.58756271
  C -0.88073162  0.06573619  0.42370786
  C -0.14503803 -0.68076516 -0.40857372
  C -0.29696443 -2.15351164 -0.71673600
 Br  1.44634159 -2.95886887 -1.29499585
  C -1.16080460 -2.40251062 -1.97358932
  F -2.33862092 -1.76338813 -1.92655012
  F -0.60373277 -2.03307154 -3.12608151
  F -1.42974884 -3.70460192 -2.13090485
  C -0.77588676 -3.06066661  0.44940154
  C -2.26868774 -3.40860733  0.57793936
  C -3.10790755 -2.52463391  1.49144534
  C -3.18697640 -1.06431743  1.06430127
  C  0.94070991  0.19650866 -1.06033269
  C  0.78121745  0.31511486 -2.57902414
  C  2.33966003 -0.21207722 -0.60854366
  C  3.43221708 -0.22130486 -1.46633748
  C  4.69910136 -0.50345648 -0.98479693
  C  4.89480480 -0.77101029  0.35771937
  C  3.81387753 -0.74292395  1.22324389
  C  2.54985732 -0.45522652  0.74702904
  N  0.72859659  1.49008375 -0.41818284
  C  1.41401148  2.66298747 -0.87625109
  C -0.51240470  1.54126874  0.30144540
  C -1.64854839  2.18036687 -0.52385185
  O -1.43874272  3.45556385 -0.82989304
  C -2.42654784  4.07043575 -1.65366243
  O -2.58582633  1.54162109 -0.93349956
  C -0.17303433  2.15742263  1.68557715
  C -0.35692557  3.62612288  1.89981093
  O  0.29911008  1.43054009  2.52270938
  H -0.26794960 -4.01773551  0.31934922
  H -0.40720759 -2.63510935  1.38452777
  H -2.31783797 -4.42078733  0.98992169
  H -2.75908105 -3.45838296 -0.39089303
  H -4.12159081 -2.93214234  1.48787810
  H -2.74131690 -2.59682482  2.51794302
  H -3.33626801 -0.96116799 -0.00999960
  H -4.05271705 -0.61717756  1.56118551
  H -0.26506867  0.48248929 -2.82947387
  H  1.13511472 -0.57256272 -3.09169961
  H  1.35408667  1.16484928 -2.94067020
  H  3.30636419 -0.03004521 -2.52020447
  H  5.53628510 -0.51158715 -1.66701224
  H  5.88326162 -0.99628953  0.72910149
  H  3.95347439 -0.94001002  2.27532595
  H  1.72142952 -0.40973395  1.43822934
  H  1.56834148  3.34688779 -0.04216126
  H  0.88347032  3.20162234 -1.67407174
  H  2.39533729  2.36150211 -1.24065957
  H -3.36673101  4.15406609 -1.10604411
  H -2.04110099  5.05492368 -1.90523096
  H -2.59390539  3.47464867 -2.55242972
  H -1.29450608  3.76166224  2.44056813
  H  0.44497649  3.99542380  2.53622830
  H -0.40568659  4.18307548  0.97207746
