38
opt_min/./Product_3983_opt.xyz
  C -0.62584600  0.43630600 -1.50931900
  C -0.92948965 -0.47120399 -0.31721149
  C -0.90887716 -1.91973858 -0.78973183
  C  0.08358576 -0.26287469  0.84345267
  C  1.45122380  0.14936793  0.40207007
  C  2.47452370 -0.69842521  0.34695827
  C  3.82289028 -0.40214203 -0.11267033
  C  4.26277102  1.02644065 -0.28013114
  C  4.65899046 -1.40512160 -0.38198446
  O -0.44502374  0.76736217  1.64246557
  O -1.87164542  0.75617946  1.49910164
  C -2.24962589 -0.04862055  0.40746882
  C -3.08545050 -1.26826031  0.87963639
  C -3.24123905 -1.43559832  2.36392232
  O -3.60903637 -1.99720696  0.08190552
  C -3.17567436  0.75533213 -0.54223720
  C -3.31098486  2.21967890 -0.24733170
  O -3.78050774  0.20486271 -1.42055712
  H -0.59910064  1.48481091 -1.21745797
  H -1.38696757  0.30687465 -2.27562887
  H  0.33986127  0.16539094 -1.93204532
  H -1.70695295 -2.08975981 -1.50796948
  H  0.04936279 -2.12206967 -1.26302164
  H -1.04214450 -2.62026781  0.03314661
  H  0.15160956 -1.20023021  1.42275548
  H  1.54280245  1.18904047  0.13566763
  H  2.31500768 -1.73242834  0.62894974
  H  5.24033735  1.17193005  0.17339956
  H  3.56710623  1.71891222  0.18080893
  H  4.34391580  1.27551298 -1.33652210
  H  4.36580014 -2.43455007 -0.26642474
  H  5.66383759 -1.23073945 -0.72485796
  H -3.14622530 -2.49146158  2.61060836
  H -2.52823773 -0.84000940  2.92293643
  H -4.24897939 -1.12235205  2.63678764
  H -2.49464957  2.59813422  0.35730809
  H -4.24225822  2.36230947  0.30137967
  H -3.38873407  2.76242178 -1.18648725
