37
opt_min/./Product_606_opt.xyz
  C  0.75391700  1.31916600  2.24581400
  C -0.53320386  1.09177480  1.49273920
  O -1.56818158  1.60852708  1.85746512
  C -0.48062358  0.23461981  0.30996307
  C -1.48886138 -0.09368907 -0.55513267
  C -2.92553182  0.04496513 -0.57776060
  C -3.56547982  0.03516251 -1.82233924
  C -4.93993194  0.13420276 -1.89840694
  C -5.69502687  0.22472389 -0.73876894
  C -5.06898205  0.21123473  0.49815632
  C -3.69349624  0.12403177  0.58644273
  N -0.90159197 -0.82778079 -1.65862541
  C -0.66814072 -2.10987064 -0.93801662
  O -1.33459247 -3.07991663 -1.06357449
  O  0.38685195 -1.94475225 -0.15453199
  C  0.73527836 -0.48627363 -0.31571033
  C  2.14716757 -0.23616774  0.09224640
  C  2.83721993  0.82921294 -0.47477220
  C  4.15104563  1.06678680 -0.11400308
  C  4.78095318  0.24294925  0.80453265
  C  4.09612440 -0.82562057  1.36001429
  C  2.78073526 -1.06803057  1.00739263
  N  0.41785773 -0.27521958 -1.69309639
  H  1.14833312  0.37332832  2.60991751
  H  1.50188582  1.77496550  1.60359146
  H  0.54880003  1.97378318  3.08863538
  H -2.96651286 -0.04102267 -2.71576823
  H -5.42654104  0.13600133 -2.86224437
  H -6.77053839  0.30150986 -0.79890203
  H -5.65789610  0.26868049  1.40112735
  H -3.21385119  0.11036127  1.55005729
  H  2.33705428  1.46223334 -1.19304799
  H  4.68432535  1.89629296 -0.55294011
  H  5.80661541  0.43059826  1.08346822
  H  4.58742714 -1.47348363  2.06929374
  H  2.24096523 -1.90328248  1.42548892
  H  1.00547934 -0.78133847 -2.35274807
