44
opt_min/./Product_961_opt.xyz
  C -2.08059203 -1.94578170 -1.65312741
  O -2.46517811 -0.93418336 -0.73906413
  C -1.52753937 -0.10820302 -0.10824356
  C -0.19594649  0.28782382 -0.84196018
  F -0.08573232 -0.22916838 -2.11231697
  C -0.26897736  1.82257199 -0.91966279
  C -1.34439658  2.18521166 -1.95300797
  C -2.65650499  1.80604490 -1.24063722
  C -2.17744776  1.28172208  0.11829120
  C -0.96487839  2.16970373  0.39334341
  C  0.94234633 -0.28559015  0.04714508
  C  2.13420849  0.67648454  0.26033496
  N  2.54339352  0.73871743  1.52971144
  C  3.63149039  1.58285929  1.95798405
  O  2.64924257  1.28379197 -0.65811520
  C  1.52157215 -1.58770618 -0.57433830
  C  2.34638037 -1.45008297 -1.81246465
  O  1.30140606 -2.64483111 -0.04016575
  O  0.37463814 -0.56024638  1.31225976
  C -1.04081938 -0.73867354  1.25231709
  C -1.42824277 -2.21115261  1.44499680
  C -1.58207987 -0.03530272  2.40872441
  N -1.97173597  0.46922790  3.35768476
  H -2.91292367 -2.64929478 -1.65873876
  H -1.17221198 -2.47141247 -1.35634881
  H -1.94949441 -1.53989551 -2.65933697
  H  0.69498670  2.28250649 -1.11854732
  H -1.20359962  1.64881025 -2.88918656
  H -1.29941512  3.25224940 -2.16685013
  H -3.29860110  2.67406444 -1.09692560
  H -3.22297812  1.04686666 -1.77493927
  H -2.95917313  1.25604018  0.87331370
  H -1.23084132  3.22224491  0.45526946
  H -0.39976120  1.89309120  1.28187096
  H  2.04095548  0.20794720  2.22550601
  H  4.03535860  2.07835183  1.07679566
  H  4.41294644  0.98507552  2.42875400
  H  3.27672610  2.33200047  2.66707781
  H  3.20761112 -2.11063553 -1.73435482
  H  2.65840538 -0.42625517 -1.99232646
  H  1.74794216 -1.78650009 -2.65891977
  H -2.49040046 -2.34029778  1.25658435
  H -0.84659904 -2.83963544  0.77811562
  H -1.20290458 -2.50291549  2.46836735
