36
opt_min/./Product_4067_opt.xyz
  C  3.18140200 -0.65021600 -0.28140200
  C  2.15251089  0.46249156 -0.48165460
  C  2.81747766  1.83040958 -0.32280909
  C  0.87336201  0.34996564  0.40229323
  C  0.83414102 -0.84798709  1.30177251
  O  0.71156033 -0.77972050  2.49523073
  C -0.25816236  0.28587034 -0.67183742
  C -1.24068636  1.48374910 -0.73373384
  N -1.42557146  2.15001315  0.42427146
  C -2.37069595  3.23939803  0.51664009
  O -1.80953912  1.76332033 -1.76033893
  C -1.14358883 -0.94496349 -0.55732175
  C -1.08965402 -1.95075789 -1.51197553
  C -1.88817258 -3.07427150 -1.38313498
  C -2.74223476 -3.20268860 -0.30062943
  C -2.80148660 -2.19917902  0.64951534
  C -2.00916108 -1.07286628  0.52211235
  N  0.45068579  0.29237100 -1.94018395
  N  1.65119144  0.38003282 -1.84737326
  H  3.49178430 -0.69564685  0.76213807
  H  4.05270435 -0.44697558 -0.90132954
  H  2.77464871 -1.61688071 -0.57242969
  H  2.09053856  2.62971622 -0.46193585
  H  3.26993126  1.91790516  0.66422696
  H  3.58906844  1.94284001 -1.08133038
  H  0.80711207  1.23894475  1.03445708
  H  0.93036907 -1.82190977  0.79397140
  H -1.04021507  1.81113002  1.29165239
  H -1.92676522  4.07023676  1.06604829
  H -2.61349426  3.55444432 -0.49731533
  H -3.28741416  2.92367706  1.02113266
  H -0.43040362 -1.84116150 -2.35988533
  H -1.83903493 -3.85109430 -2.13003587
  H -3.36345334 -4.08116407 -0.19903830
  H -3.46792794 -2.28963612  1.49406363
  H -2.06493304 -0.29300240  1.26933643
