38
opt_min/./Product_3504_opt.xyz
  C -1.04318900  1.06395100 -1.34953800
  C -1.18847086  0.50594359  0.07139173
  C -0.96784543  1.63963238  1.07884603
  C -0.24518929 -0.70546074  0.26216050
  C  1.19324574 -0.65006130 -0.13180243
  C  1.96540621  0.42551646 -0.26512078
  C  3.37644285  0.41084636 -0.62649454
  C  4.05865513 -0.90759890 -0.83445373
  C  4.02748031  1.56337250 -0.78529201
  C -1.09117761 -1.79331782 -0.39920081
  C -0.53488859 -3.07578145 -0.91515627
  N -2.32412323 -1.52415965 -0.43073715
  C -2.57166853 -0.22456386  0.18701211
  C -2.99249764 -0.50133776  1.65095235
  C -3.73936266  0.43317458 -0.54393821
  H -0.03315875  1.41890614 -1.52870467
  H -1.25909639  0.29029153 -2.08550191
  H -1.72207226  1.90146741 -1.49380828
  H -0.34248082  2.41552678  0.64191285
  H -1.91082164  2.09450677  1.37263839
  H -0.46096080  1.27655278  1.97231140
  H -0.24716370 -0.98527263  1.33232349
  H  1.63861732 -1.63115127 -0.23512497
  H  1.57036433  1.41462144 -0.08542743
  H  5.11295438 -0.76006342 -1.05986699
  H  3.61057692 -1.42833129 -1.68309025
  H  3.96080958 -1.53939848  0.04549684
  H  3.53886128  2.51281479 -0.64627841
  H  5.06898490  1.59757466 -1.05613363
  H -1.28584831 -3.85500979 -0.81774620
  H  0.37177437 -3.35717080 -0.38785390
  H -0.29580603 -2.95930176 -1.97319041
  H -2.58850535 -1.46057980  1.97209817
  H -4.07563222 -0.54892677  1.72595942
  H -2.62846201  0.26617617  2.32374048
  H -3.97546705  1.39983282 -0.10156179
  H -3.50940687  0.57765351 -1.59609066
  H -4.59790534 -0.22809664 -0.48212297
