44
opt_min/./Product_743_opt.xyz
  C -2.57024900  3.46925400  0.63593700
  N -1.60544854  2.50054763  0.17949020
  C -1.92506710  1.20123336 -0.00285691
  O -3.05466568  0.77714959  0.10634135
  C -0.74600906  0.33684179 -0.48468942
  C  0.34119117 -0.08229331  0.55490721
  C  0.00083955  0.16209248  2.01776478
  C  0.92207577 -0.46155558  3.03088153
  O -0.91161823  0.87905921  2.34812847
  C  0.55916252 -1.57216391  0.21622461
  C -0.60600184 -2.35624824  0.83375089
  C -1.80437979 -1.90219490 -0.02279305
  C -1.16321841 -1.01482765 -1.09832329
  C  0.20473209 -1.67350511 -1.26976798
  C  1.54247899  0.85709598  0.18420025
  C  2.89681186  0.17460618  0.26721568
  O  3.45629813 -0.09186665  1.30008140
  O  3.38675706 -0.08756574 -0.93753195
  C  4.66548552 -0.70607377 -0.98085744
  N  1.27194013  1.38377711 -1.12489337
  C  0.07943301  1.14073069 -1.47342462
  C -0.47961523  1.62358350 -2.76286895
  H -2.27766609  3.87924667  1.60397242
  H -3.52350632  2.95364587  0.73790278
  H -2.66901970  4.28287239 -0.08626539
  H -0.65078874  2.80952094  0.09081157
  H  1.63775996  0.30178440  3.33679184
  H  0.35340768 -0.75146034  3.91225158
  H  1.47941398 -1.30360759  2.64052329
  H  1.54775551 -1.94898209  0.47903704
  H -0.42737607 -3.42772202  0.72692737
  H -0.75571392 -2.14342065  1.88995641
  H -2.54073187 -1.34774815  0.55249064
  H -2.30607662 -2.75098153 -0.48750589
  H -1.78053242 -0.90320549 -1.98682984
  H  0.88491532 -1.13246337 -1.92495946
  H  0.13527677 -2.71030786 -1.59653364
  H  1.56350993  1.71039074  0.88033980
  H  4.98621496 -0.67057180 -2.01864595
  H  5.36807041 -0.17092343 -0.33947154
  H  4.59590847 -1.74115442 -0.63836356
  H  0.31306415  1.69285828 -3.50319399
  H -0.90315785  2.61890367 -2.62775322
  H -1.26943997  0.96844288 -3.11835029
