36
opt_min/./Product_4170_opt.xyz
  C -0.91320100  1.11294600 -1.76046100
  C -0.52675098  0.77451793 -0.31201729
  C -1.57771114  1.33805495  0.64445143
  C  0.92039993  1.27197880  0.01565475
  C  0.92311207  2.08742844  1.30022223
  O  1.02291618  1.67966749  2.41282398
  C  1.66577127 -0.06881946  0.17478098
  C  3.11780556  0.04942763  0.66738570
  C  4.15087456 -0.66894371 -0.15184044
  O  3.39321810  0.69745730  1.63784735
  O  1.64072660 -0.74401239 -1.13181005
  C  0.41096410 -1.24168588 -1.27920951
  O  0.03497262 -1.88351664 -2.21314201
  C -0.35507864 -0.77287233 -0.02693772
  C -1.60846525 -1.53326406  0.36301539
  C -2.62243793 -1.76580401 -0.72322237
  O -1.76931510 -1.94502771  1.48196157
  N  0.71594946 -0.78133056  0.97157887
  C  1.13211840 -2.05729412  1.53852716
  H -1.36308694  0.27055792 -2.27670836
  H -1.63144324  1.93079554 -1.77002609
  H -0.04804732  1.41910696 -2.34580935
  H -1.39415317  0.99969766  1.66235898
  H -2.56733998  0.99925552  0.34250722
  H -1.56847190  2.42654793  0.62540977
  H  1.35024781  1.88938929 -0.77494158
  H  0.77840376  3.16723218  1.08277300
  H  3.86832526 -0.74834494 -1.19624561
  H  4.26546775 -1.67621785  0.25261089
  H  5.10347459 -0.15462614 -0.04119255
  H -2.90166801 -2.81959842 -0.69893206
  H -3.52072944 -1.19282654 -0.49409021
  H -2.25838889 -1.52066999 -1.71202849
  H  0.42123003 -2.84468204  1.29970383
  H  2.11459699 -2.35691940  1.16730384
  H  1.17939358 -1.94520280  2.62266568
