40
opt_min/./Product_5055_opt.xyz
  O -1.33593600 -2.42950800  2.61241700
  C -1.54492865 -2.70463116  1.52090058
  O -1.76024811 -2.99624650  0.43694517
  C -0.23272000 -0.05664648  0.65049993
  C  1.03164068 -0.37626990  0.40865828
  C  1.36653780 -3.51673853  0.49922953
  O  1.06618207 -3.69146800 -0.58899035
  O  1.68641857 -3.37228802  1.58914220
  C  1.38353095 -0.01971194 -1.01404808
  C  2.13463960  1.33498283 -0.97044593
  O  2.94361255  1.39061552  0.09503342
  C  3.73293926  2.56583533  0.24514737
  O  2.03425127  2.22183210 -1.77283087
  C  2.29929965 -1.00048249 -1.75041742
  N  0.06845147  0.05642901 -1.62027878
  C -0.08573678  0.49442463 -2.98656476
  C -0.89467841  0.44546254 -0.60108098
  C -2.28063753 -0.17507765 -0.83327814
  C -3.29486908  0.12341575  0.24542681
  O -2.55568004 -0.79847893 -1.81929844
  C -1.09706890  1.99218946 -0.62946440
  C -0.64700473  2.76412639  0.58434556
  O -1.55834660  2.52830219 -1.59999183
  H -0.73755823 -0.08740093  1.59843597
  H  1.76619864 -0.70556258  1.11896900
  H  3.17204370  3.31938276  0.80118692
  H  4.62288660  2.27631126  0.79868577
  H  3.99757411  2.96736995 -0.73439602
  H  1.73298002 -1.88591295 -2.02320674
  H  3.13485762 -1.27868813 -1.11250202
  H  2.68878687 -0.54087629 -2.65598001
  H  0.31729873  1.49353553 -3.17367023
  H -1.14430818  0.49274547 -3.22806045
  H  0.41429429 -0.22500617 -3.63445968
  H -2.86800937  0.61210130  1.11435061
  H -4.05887304  0.76899964 -0.18653621
  H -3.78546218 -0.80244136  0.53864756
  H -1.47615421  2.81096388  1.28965012
  H -0.39747374  3.78055992  0.28698661
  H  0.20035537  2.29241578  1.07333544
