55
opt_min/./Product_1921_opt.xyz
  C  1.67131100 -1.03001200 -1.88024400
  C  1.15746999 -0.47266626 -0.54086074
  C  2.29837012  0.14491498  0.24127424
  C  2.49204374 -0.12398948  1.59124257
  C  3.51038558  0.48593183  2.30130165
  C  4.35451243  1.38599178  1.67716288
  C  4.17354336  1.66358372  0.33425410
  C  3.15835712  1.04864111 -0.37497608
  C -0.03124299  0.55550314 -0.70726004
  C -0.02997220  1.31040052 -2.03131250
  C -0.00498379  1.50447180  0.48721447
  C -0.29336770  1.04236363  1.76949836
  C -0.24196614  1.88076827  2.86648774
  C  0.10806998  3.21011386  2.71669898
  C  0.40174387  3.68364664  1.45305987
  C  0.34458753  2.84344844  0.35461869
  C -1.28895668 -0.38690072 -0.59308991
  C -2.46226992  0.27463164  0.14820403
  N -3.05185038 -0.54268788  1.02877896
  C -4.15401430 -0.13157180  1.85955544
  O -2.82809076  1.40807828 -0.09636712
  C -1.78021184 -0.87953358 -1.97454375
  C -2.83479112 -0.07575197 -2.67572825
  O -1.32437923 -1.88981058 -2.44955910
  N -0.83459943 -1.54461013  0.12926462
  C  0.43087751 -1.60179217  0.17498789
  C  1.03294634 -2.74063231  0.93294730
  C  2.28352604 -3.35306265  0.36892091
  O  0.50150099 -3.14271252  1.94006295
  H  2.54368891 -1.65557023 -1.71079612
  H  0.90585619 -1.62694305 -2.36929627
  H  1.96888677 -0.22989942 -2.55077343
  H  1.84360200 -0.81480675  2.10713790
  H  3.63803672  0.25782454  3.34912748
  H  5.14507279  1.86836833  2.23255976
  H  4.82363084  2.36625183 -0.16617786
  H  3.03819064  1.28939201 -1.41958726
  H -0.15329793  0.63033936 -2.87043811
  H -0.85514630  2.01878662 -2.03626929
  H  0.90048829  1.85472445 -2.16940891
  H -0.55951376  0.00982402  1.93739869
  H -0.47446339  1.48670322  3.84503820
  H  0.14933344  3.86636643  3.57320313
  H  0.67540608  4.71949154  1.31231104
  H  0.57859161  3.26453839 -0.60842324
  H -2.63566708 -1.45489038  1.16710070
  H -4.35961866  0.91613532  1.64415947
  H -3.89850969 -0.24137491  2.91430626
  H -5.04294138 -0.72756378  1.64224022
  H -2.55320574  0.05136931 -3.72023685
  H -3.00538984  0.89017728 -2.21483871
  H -3.75708719 -0.65646000 -2.66102769
  H  2.61293948 -4.15996232  1.01977760
  H  2.06682074 -3.75137229 -0.62133548
  H  3.06891614 -2.60576293  0.28373043
