47
opt_min/./Product_1728_opt.xyz
  C  1.77609900 -0.24452600 -2.86302100
  O  2.00395599 -0.00240708 -1.48245071
  C  0.98802955  0.48510641 -0.72958461
 Cl  0.40659332  2.06761947 -1.44822871
  C -0.23083730 -0.46663524 -0.41842700
  O  0.31852296 -1.64099659  0.13547170
  C  0.80434054 -2.66673469 -0.71986700
  O -1.06427360 -0.85947997 -1.44879111
  C -1.70491435  0.05367191 -2.32509021
  C -0.87915457  0.22861441  0.83996564
  C -1.28840576 -0.86850399  1.86901181
  C -2.26406257 -1.89712832  1.40705165
  O -0.86194983 -0.79309811  2.99031303
  C -2.15684912  1.05187100  0.59610322
  C -2.05582773  2.50370869  0.95075839
  O -3.18710077  0.53944063  0.23363596
  N  0.17793491  1.07201114  1.39128798
  C  1.43001806  0.82767728  0.70370043
  C  2.24557332 -0.26817682  1.42231349
  O  3.04688177 -0.96012475  0.64177464
  C  3.88273228 -1.90345193  1.30109540
  O  2.17450240 -0.38013023  2.61772477
  C  2.39454829  2.04197617  0.71296269
  C  1.89710027  3.29067694  1.37348756
  O  3.47725702  1.94626402  0.20647187
  H  2.70613305 -0.67265111 -3.23110441
  H  1.57735383  0.69273791 -3.38990006
  H  0.95702487 -0.94768560 -3.02933203
  H  0.98386565 -3.50596038 -0.05057409
  H  0.05799882 -2.94286117 -1.46710514
  H  1.73961815 -2.37455994 -1.19896738
  H -1.99675335  0.98070698 -1.83944989
  H -2.60158068 -0.46572206 -2.66363260
  H -1.06996433  0.28158074 -3.18571442
  H -3.23112641 -1.41547103  1.26478379
  H -2.35002653 -2.67800476  2.15813666
  H -1.96952265 -2.31393499  0.44917614
  H -1.14089355  2.93995482  0.56774223
  H -2.03342715  2.57707075  2.03745225
  H -2.93021519  3.02949276  0.57622668
  H  0.28729337  0.83717399  2.38645675
  H  4.48124423 -2.37050483  0.52307895
  H  4.52216916 -1.39539363  2.02467440
  H  3.27379931 -2.64455417  1.82277384
  H  2.72577284  3.77631529  1.88378523
  H  1.54418751  3.96786921  0.59534486
  H  1.08408983  3.08700813  2.06150000
