51
opt_min/./Product_2058_opt.xyz
  C -2.21851200  3.95693200 -1.38671000
  N -2.40143426  2.79408373 -0.54580711
  C -1.48672061  1.81359533 -0.53146079
  O -0.52712115  1.78113910 -1.26797482
  C -1.81404974  0.64255175  0.43920909
 Cl -2.31525356  1.37178312  2.02007675
  C -0.52320693 -0.09253106  0.66061012
  C  0.17883642 -0.99076256 -0.06821200
  C -0.18051024 -1.91775171 -1.19532249
  F  0.92200946 -2.14320821 -1.97424928
  F -0.42978095 -3.16220214 -0.65004402
  C -1.34202412 -1.52752534 -2.10628123
  C -2.67246999 -2.08231213 -1.60178627
  C -2.99656128 -1.61296815 -0.18575690
  C -3.06535852 -0.08600013 -0.11347975
  C  1.54386358 -1.13651425  0.56291174
  C  2.03120367 -2.56693762  0.79420974
  C  2.61872274 -0.34999391 -0.21852879
  C  2.39100418  0.25741396 -1.44062766
  C  3.42127294  0.93569856 -2.07377489
  C  4.67044241  1.02490374 -1.49153320
  C  4.89289416  0.44065834 -0.25535629
  C  3.87074539 -0.23875221  0.37808554
  N  1.46995337 -0.36880423  1.77322929
  C  0.36659195  0.27816779  1.77480734
  C  0.20604172  1.31710474  2.84086709
  C  0.04661000  0.73393594  4.21772835
  O  0.34860447  2.49201229  2.61096462
  H -1.24207958  4.40634175 -1.19736186
  H -3.00288804  4.67815418 -1.17891333
  H -2.25825594  3.66572357 -2.43794520
  H -3.12820926  2.81234483  0.15151650
  H -1.36267674 -0.44158642 -2.19238248
  H -1.12616545 -1.94247774 -3.09350404
  H -2.63588732 -3.17195834 -1.62632212
  H -3.46425505 -1.75671185 -2.27901056
  H -3.96104222 -2.03000735  0.10532141
  H -2.25201477 -1.99285538  0.51297932
  H -3.90655626  0.19390344  0.52133902
  H -3.27087874  0.30041883 -1.11497611
  H  2.79072198 -2.55118420  1.56975300
  H  2.45707456 -2.97137893 -0.11947123
  H  1.21577989 -3.20567215  1.12431514
  H  1.41821141  0.24137373 -1.90152824
  H  3.23396031  1.40007341 -3.02908375
  H  5.46652385  1.55761368 -1.99144599
  H  5.85812665  0.52021561  0.22199735
  H  4.03409842 -0.67547731  1.35025638
  H -0.26362894  1.49773891  4.92596778
  H  1.02686472  0.35334497  4.50370654
  H -0.65416289 -0.09676141  4.21587132
