28
opt_min/./Product_3877_opt.xyz
  O -0.47837085 -0.11271143  3.29517193
  C -0.56066589  0.85152193  2.68333461
  O -0.65418418  1.82218617  2.08464829
  C  0.39271207 -0.57737150  0.25464141
  C -0.87098474 -0.86861546 -0.00032022
  C -0.01273298 -3.03771898 -1.91729781
  O -1.00871524 -2.87975183 -2.45507007
  O  0.98041523 -3.22605208 -1.38003183
  C -1.48013690  0.09274141 -0.98247337
  C -2.68668749  0.83767453 -0.38086394
  N -0.36008289  0.95432905 -1.35796915
  C  0.84309335  0.54101511 -0.65844607
  C  1.53373766  1.61492354  0.01648429
  N  2.06748810  2.49016161  0.52249176
  C  1.83303304 -0.12012474 -1.65816695
  O  1.57780434 -0.33196958 -2.80782550
  O  2.95021243 -0.46184567 -1.02870542
  C  3.96099101 -1.13176356 -1.77591595
  H  1.08623303 -1.07063967  0.90967856
  H -1.44723891 -1.65929142  0.44616998
  H -1.80286490 -0.44261539 -1.88643863
  H -2.49415645  1.90754023 -0.34799497
  H -3.58209364  0.67212270 -0.97250522
  H -2.88220721  0.50433864  0.63615411
  H -0.55527714  1.94238438 -1.27520583
  H  4.82561939 -0.47181671 -1.85176062
  H  4.22829510 -2.03770969 -1.23436645
  H  3.58808337 -1.37701283 -2.77144259
