34
opt_min/./Product_3728_opt.xyz
  C  3.87534436  1.35101809 -0.42903673
  C  2.69449124  0.43220571 -0.35717086
  C  2.87193946 -0.72290609  0.57917785
  C  1.59632035  0.66206433 -1.06669468
  C  0.36650727 -0.19721828 -1.06276841
  C -0.58665730  0.11103018  0.12416406
  C -0.89093488 -1.11626687  0.94481999
  C -1.68583539 -2.19604682  0.26388848
  C -0.48598113 -1.23100300  2.19857589
  C -1.81427916  0.63456925 -0.60836196
  C -3.06408651  1.12878654 -0.01426738
  C -3.10162837  1.28308512  1.48554928
  O -4.02645143  1.38598208 -0.70299702
  N -1.68471514  0.59302266 -1.88557300
  N -0.49009356  0.11470090 -2.22262333
  C -0.07985030 -0.03200050 -3.46357644
  N  0.32207977 -0.19562072 -4.52530714
  H  4.70646326  0.84466428 -0.92424538
  H  3.64051256  2.25258325 -0.99166489
  H  4.20838274  1.62849152  0.57048607
  H  2.09255025 -1.47164498  0.47454533
  H  3.84333530 -1.18821623  0.40544458
  H  2.86070963 -0.36653941  1.61077261
  H  1.53219191  1.54742571 -1.68894186
  H  0.62974607 -1.26376245 -1.09649595
  H -0.14406386  0.89654980  0.74698321
  H -1.75630825 -2.03146978 -0.80999370
  H -2.70057035 -2.21683319  0.66462994
  H -1.24033700 -3.17352481  0.44065966
  H  0.07644172 -0.45669835  2.69492509
  H -0.69606775 -2.11321700  2.77960487
  H -2.17060507  1.00494413  1.96643329
  H -3.34451958  2.32014873  1.71615145
  H -3.91174051  0.66699699  1.87623716
