60
opt_min/./Product_2927_opt.xyz
  C  4.44170100 -2.36970200 -1.68322200
  O  3.65950139 -1.78864255 -0.64751977
  C  2.67530228 -0.96146809 -1.00871077
  O  2.42789734 -0.66504345 -2.15003686
  C  2.00329885 -0.34088098  0.20034902
  C  0.66764077  0.29750793 -0.08343218
  C -0.61906335 -0.08699614 -0.17542630
  C -1.21999570 -1.48519095 -0.21141914
  C -2.73795338 -1.53415941  0.08604180
  F -3.51883321 -0.94951488 -0.82215794
  F -3.17446595 -2.80257814  0.13731276
  F -3.04383625 -0.99393545  1.26553619
  C -1.07919015 -2.10915764 -1.62499446
  F -1.98044331 -1.64184801 -2.49892315
  F  0.09708756 -1.87310131 -2.19908099
  F -1.23398908 -3.43601679 -1.59576074
  C -0.57586304 -2.39614438  0.86789293
  C  0.77024835 -3.02211419  0.48196725
  C  1.86191649 -2.64103774  1.46592802
  C  2.07334716 -1.12881929  1.52952079
  C -1.46644009  1.18508231 -0.05619729
  C -2.74189624  1.41823027 -0.90166908
  C -2.46771906  1.47917815 -2.37155017
  O -3.80721672  1.62772084 -0.39579301
  C -1.70737586  1.38182979  1.46799647
  O -1.17586237  0.69127104  2.29992187
  O -2.43134850  2.45225902  1.71118770
  C -2.71313434  2.76697786  3.07144114
  O -0.59638896  2.22537005 -0.47001304
  C  0.73870308  1.81261645 -0.20913748
  C  1.27873130  2.49653638  1.07461763
  N  0.49566726  3.48117780  1.52696583
  C  0.85251668  4.26277241  2.68850153
  O  2.34499558  2.19924864  1.57601244
  C  1.61840529  2.26518730 -1.38166515
  H  3.93962082 -2.24809503 -2.64466505
  H  5.41594823 -1.87941103 -1.71165155
  H  4.56495185 -3.42571236 -1.44724546
  H  2.66169604  0.51873857  0.40343352
  H -1.27471467 -3.19135797  1.12606308
  H -0.45656647 -1.77249297  1.75458327
  H  0.67474953 -4.10777002  0.43434326
  H  1.08871477 -2.68972402 -0.50136106
  H  1.60939676 -2.99907421  2.46645662
  H  2.78926479 -3.13297851  1.17150301
  H  1.34957141 -0.66501155  2.20133504
  H  3.05887227 -0.94939008  1.95936053
  H -2.16655012  2.50056642 -2.60271362
  H -3.37372907  1.24677609 -2.92287912
  H -1.65953655  0.81618032 -2.66247912
  H -1.99265598  2.27578109  3.72742209
  H -3.72138126  2.42623409  3.30685267
  H -2.65539833  3.84979956  3.16862657
  H -0.35877049  3.68193560  1.02897211
  H  1.69877033  4.91526521  2.46209901
  H  1.14779451  3.59618611  3.49980228
  H  0.00175919  4.86330174  2.99657888
  H  1.27236134  3.24047564 -1.71289181
  H  1.54632700  1.55720965 -2.20334195
  H  2.65696961  2.34312506 -1.07249993
