32
opt_min/./Product_365_opt.xyz
  C -4.02082000 -0.13711326 -1.04476038
  O -3.38094243  0.15397646  0.18703177
  C -2.05181241  0.17524107  0.18827532
  C -1.10969126 -0.03360321 -0.76640087
  C -1.26554872 -0.31626823 -2.12297146
  N -1.39465886 -0.53959939 -3.24245317
  C  0.25690571  0.12014000 -0.12343814
  C  1.04707650  1.28371380 -0.75185364
  O  1.70723985  1.96095076  0.17452185
  C  2.49277059  3.06425728 -0.26610582
  O  1.03069389  1.53037462 -1.92566511
  C  1.06894690 -1.17501737 -0.35588342
  O  0.57435803 -2.26778316 -0.34403995
  O  2.34639082 -0.90343398 -0.56858107
  C  3.21418460 -2.00067037 -0.84880662
  N -0.01942817  0.38263382  1.29627654
  C  0.54999865 -0.54195256  2.25909041
  N -1.44543097  0.43146842  1.40295340
  C -2.04012854  0.85135182  2.50019799
  N -2.55020274  1.19043904  3.46885903
  H -3.83494836  0.65174041 -1.77726297
  H -5.08214348 -0.18803284 -0.81265616
  H -3.68032975 -1.09069068 -1.45251243
  H  2.07626906  3.47928265 -1.18525452
  H  3.51408041  2.72819132 -0.45147892
  H  2.47932166  3.80042103  0.53407829
  H  2.63728291 -2.84251682 -1.23298304
  H  3.73243207 -2.29340863  0.06526953
  H  3.92846943 -1.65314554 -1.59167514
  H  0.27370729 -0.19432657  3.25396017
  H  0.21348815 -1.57552861  2.12961548
  H  1.63258675 -0.48596630  2.15948578
