42
opt_min/./Product_1451_opt.xyz
  C  3.70478711  1.41888141  0.11118661
  O  2.39616136  1.03105394 -0.29174885
  C  1.46147228  1.05842720  0.65201737
  O  1.67935494  1.38995051  1.78497446
  C  0.08555149  0.58725816  0.17540045
  C -0.41641452  1.00610502 -1.22858032
 Cl  0.79030525  1.53773142 -2.40952410
  C -1.45615191  2.11172455 -0.88134339
  C -0.73127155  3.24930173 -0.19683569
  C -0.46258075  2.80707860  1.02317452
  C -0.97522513  1.37772636  1.04458906
  O -2.10777853  1.46612860  0.19708753
  C -1.17092640 -0.24879115 -1.74546748
  C -1.04429271 -0.39544243 -3.18956443
  N -0.99418040 -0.51090739 -4.32432095
  C -2.62312447 -0.23205702 -1.49979824
  N -3.73437590 -0.46735922 -1.36447236
  N -0.72346206 -1.39408776 -0.96485279
  C -0.33942212 -2.58905051 -1.68346973
  C  0.02281726 -0.97777411  0.21928223
  C -0.71436526 -1.41054685  1.52113564
  N -1.92231689 -1.95341159  1.32912314
  C -2.75881538 -2.38462951  2.42329444
  O -0.20303350 -1.25010435  2.60898022
  C  1.41488487 -1.61820169  0.29739512
  H  3.97164798  0.92288961  1.04600692
  H  3.74470646  2.49949350  0.25854383
  H  4.37002887  1.12023568 -0.69478903
  H -2.13735294  2.37260211 -1.68740381
  H -0.50699390  4.18835235 -0.66017013
  H  0.03375010  3.28390155  1.84273123
  H -1.22509086  0.94204289  2.00396797
  H -0.45312278 -3.45029676 -1.02416366
  H  0.68464647 -2.56319882 -2.07155218
  H -1.01999891 -2.71932783 -2.52449356
  H -2.26814447 -2.05234731  0.38755089
  H -2.47695539 -1.82150898  3.31240300
  H -3.80170464 -2.19670563  2.17842320
  H -2.61699124 -3.44887776  2.62775539
  H  2.04180468 -1.32170317 -0.53995645
  H  1.88303268 -1.31578816  1.23158078
  H  1.32034576 -2.70106330  0.31498955
