32
opt_min/./Product_305_opt.xyz
  C  0.34599300  0.59605400  1.20861400
  C -0.65479244  0.28203607  0.37295551
  C -1.90787028  0.99304084  0.11081251
  O -2.60058711  0.80882883 -0.85739607
  O -2.17575760  1.88123009  1.07897581
  C -3.35114406  2.66028986  0.89163787
  C -0.20473235 -0.89813039 -0.47298363
  C -1.20191046 -2.05819124 -0.29022952
  C -0.86819807 -2.97672959  0.84843461
  O -2.17765457 -2.17053808 -0.97885974
  C  0.04574915 -0.40846123 -1.93923230
  C -0.30883734 -1.36389341 -3.02417609
  O  0.54201506  0.67173731 -2.10030595
  O  1.07077493 -1.24173654  0.09148176
  N  1.40048541 -0.26947163  1.06349458
  C  2.72415982  0.02173175  1.32676632
  O  3.52794020 -0.87135072  0.75486118
  C  4.92365363 -0.72960900  0.99288231
  O  3.04511471  0.92452065  2.05447329
  H  0.42346118  1.38870205  1.92732695
  H -4.18817735  2.01969624  0.60821036
  H -3.54199881  3.15454566  1.84049742
  H -3.19190742  3.39937719  0.10386720
  H -1.58271493 -3.79402058  0.88069382
  H -0.90416351 -2.42326681  1.78509449
  H  0.14283734 -3.35828343  0.72523561
  H  0.06481629 -1.00284687 -3.97814167
  H -1.39528079 -1.44145265 -3.05660306
  H  0.08935710 -2.35166426 -2.80323563
  H  5.42294925 -0.56578949  0.03744043
  H  5.10469194  0.11662673  1.65808282
  H  5.28254794 -1.65363951  1.44542225
