43
opt_min/./Product_4565_opt.xyz
  C -0.87739200  1.03338300 -0.18706200
  C -0.51834672 -0.32310517  0.41252630
  C -1.34532363 -1.44181437 -0.24613627
  N -2.63446510 -1.02572463 -0.74431717
  C -3.44798509 -2.08455968 -1.27874727
  C -3.13631962  0.21289813 -0.52333572
  C -2.36272401  1.25497358 -0.15810355
  C -2.84884522  2.57587030  0.21983868
  N -4.20833403  2.79833969  0.06331388
  O -2.14042823  3.43276725  0.72168806
  N -0.50423067 -1.97573300 -1.32046959
  N  0.72247557 -1.23976060 -1.29238310
  C  1.78046731 -1.94810256 -1.96143493
  C  0.93337564 -0.75741129  0.08316428
  C  1.36310151 -1.87251943  1.05841327
  C  1.91496726  0.39483250  0.07097090
  C  2.06576227  1.16477960 -1.08070365
  C  2.94620493  2.22841222 -1.12367176
  C  3.70896282  2.55357919 -0.01528470
  C  3.57656807  1.79332096  1.13114757
  C  2.69210138  0.72829031  1.17219101
  H -0.55296824  1.03341081 -1.22997612
  H -0.36840097  1.83895741  0.34096658
  H -0.69728902 -0.29845276  1.49023734
  H -1.55567507 -2.24299475  0.49001755
  H -4.40306845 -1.68546094 -1.61263830
  H -2.93752049 -2.54516549 -2.12736755
  H -3.63267730 -2.85819568 -0.52378868
  H -4.21084223  0.29257699 -0.62053513
  H -4.66594393  2.43529451 -0.75508610
  H -4.49148545  3.73462630  0.31180247
  H -0.32522633 -2.97083070 -1.15522447
  H  2.56500908 -1.24350353 -2.23409713
  H  2.23111648 -2.75599023 -1.36489894
  H  1.36651957 -2.38080451 -2.87080413
  H  2.29313109 -2.33208042  0.72973084
  H  1.50939905 -1.47397433  2.05563205
  H  0.60127747 -2.64831990  1.11745481
  H  1.48506618  0.92714332 -1.95801942
  H  3.03415774  2.80810980 -2.03157921
  H  4.39494352  3.38685571 -0.04380000
  H  4.16379043  2.02708129  2.00794741
  H  2.61924783  0.17700667  2.09643998
