35
opt_min/./Product_4000_opt.xyz
  C -1.13539900 -0.77078800 -1.74667700
  C -0.52390009 -1.27549847 -0.43228472
  C -1.00718218 -2.69958317 -0.18637118
  C  1.02804477 -1.20506312 -0.48829090
  C  1.62385325 -1.20226418 -1.87937060
  O  2.11003591 -2.16540060 -2.39691352
  C  1.29239438  0.08364113  0.25414422
  C  2.64897413  0.69125168  0.20624240
  O  2.82913198  1.63158122  1.11926713
  C  4.09440097  2.28118111  1.11084112
  O  3.47692669  0.34815506 -0.60468612
  N  0.30966996  0.58207595  0.87076845
  C -0.84792801 -0.26875948  0.73988981
  C -1.06211763 -0.91479343  2.11817445
  C -2.07262529  0.59253605  0.42901957
  O -2.04635830  1.74474846  0.10322010
  O -3.19209412 -0.13516688  0.53611308
  C -4.42593538  0.51937021  0.26683239
  H -2.21610742 -0.88517265 -1.72437335
  H -0.90128815  0.27907627 -1.91148338
  H -0.75580640 -1.35003651 -2.58549222
  H -0.73038460 -3.32192220 -1.03423845
  H -2.09004263 -2.71643241 -0.08820118
  H -0.56567211 -3.12897775  0.70756514
  H  1.47298059 -2.04837091  0.05043752
  H  1.53991930 -0.23763253 -2.40729737
  H  4.04513934  3.04963587  1.87682098
  H  4.89035358  1.56689131  1.33253386
  H  4.28588567  2.72481204  0.13212169
  H -0.18248131 -1.48708738  2.40180988
  H -1.20346054 -0.12353545  2.84996943
  H -1.93479844 -1.55748983  2.10649696
  H -4.81052855  0.18225511 -0.69690422
  H -4.27476749  1.59966990  0.24456739
  H -5.12081312  0.24680390  1.05892827
