40
opt_min/./Product_758_opt.xyz
  C  4.09005500 -0.33486400  0.77324500
  O  2.75396332 -0.74974280  0.98166940
  C  2.07354498 -1.18824019 -0.08771694
  C  1.16486844 -2.16154439 -0.18830858
  F  0.68708355 -2.99036722  0.74545429
  C  0.64897059 -2.15029645 -1.60589626
  C -0.25937345 -0.89867446 -1.82846132
  C  0.75840391  0.22965188 -1.61649803
  C  2.09186567 -0.60063626 -1.50263944
  O  1.81550308 -1.73051474 -2.30675318
  N  0.35384420  0.85928727 -0.38947105
  C  1.07780932  1.76166520  0.34704658
  N  2.12314318  2.32485033 -0.33728791
  C  2.98070501  3.28600888  0.31338796
  O  0.80462454  2.07715045  1.48359658
  N -0.81676916  0.25429075  0.18790442
  C -1.75675046  1.24040165  0.69628951
  C -1.37230732 -0.63041033 -0.81961087
  C -1.91275946 -1.93168336 -0.21644923
  O -2.30803964 -2.84198701 -0.90006604
  O -1.93003348 -1.89941570  1.09903023
  C -2.38197208 -3.06476847  1.77676512
  H  4.47213951 -0.08137736  1.76066618
  H  4.68892153 -1.14232777  0.33970980
  H  4.14533542  0.54654938  0.12786001
  H  0.24784177 -3.08633490 -1.98175028
  H -0.61563658 -0.96609248 -2.85552778
  H  0.79364556  0.95053281 -2.44179668
  H  2.99514761 -0.10594667 -1.84534221
  H  2.29251252  2.11129530 -1.30404784
  H  3.99427655  3.20774168 -0.07963273
  H  2.97797131  3.06819643  1.38169803
  H  2.61713969  4.30849224  0.16915631
  H -1.65826653  2.19995608  0.17597655
  H -2.77432660  0.87261698  0.57574824
  H -1.55238540  1.39870655  1.75440436
  H -2.22229015 -0.16618744 -1.35359412
  H -2.74795046 -2.73526612  2.74676024
  H -1.54600865 -3.75471686  1.90383035
  H -3.17266373 -3.55386558  1.20356863
