40
opt_min/./Product_901_opt.xyz
  C -2.77983500 -2.96168400  0.00971900
  C -2.40708208 -1.58068682  0.39791000
  C -3.10631371 -0.45735832  0.49327096
  F -4.39696480 -0.22336659  0.22597173
  C -2.13795254  0.65328881  0.85345022
  C -1.37698862  0.89715430 -0.49075496
  C -0.47781858 -0.36274140 -0.51099106
  C -0.98986601 -1.11789688  0.73497159
  O -1.22003046 -0.05625109  1.64407600
  C  0.96738484  0.23274111 -0.41944051
  C  1.53917246  0.10469582  1.04820830
  N  2.15500688 -1.06367784  1.28370351
  C  2.67544614 -1.38760471  2.59573788
  O  1.40975876  0.99154298  1.84834263
  C  1.88394131 -0.44438076 -1.41275627
  O  2.04174291 -1.64656628 -1.44793547
  O  2.46469025  0.40586594 -2.23460594
  C  3.36300466 -0.13938906 -3.19367331
  N  0.84932427  1.63790210 -0.64783082
  C -0.35946865  2.01373700 -0.58611010
  C -0.71576111  3.45791246 -0.73794595
  C -2.19333484  3.74874927 -0.84170945
  O  0.12174028  4.31812315 -0.79649177
  H -2.27440594 -3.23398754 -0.91851059
  H -2.46686988 -3.66603281  0.78121181
  H -3.85640845 -3.03567242 -0.12930869
  H -2.52889207  1.51854933  1.38095315
  H -2.08033397  0.95849673 -1.32586302
  H -0.57448018 -0.95510595 -1.42221756
  H -0.32066703 -1.86640748  1.14828390
  H  2.26103367 -1.75436332  0.55488547
  H  3.64849699 -1.87054413  2.50166778
  H  2.76483033 -0.46016908  3.16057731
  H  1.99111877 -2.05465136  3.12807451
  H  3.72309670  0.70362522 -3.77992080
  H  2.84525451 -0.85923946 -3.83276025
  H  4.19166442 -0.64493162 -2.69237105
  H -2.58963176  3.31246484 -1.75814957
  H -2.72884067  3.32148812  0.00177009
  H -2.34689696  4.82594143 -0.87093762
