42
opt_min/./Product_839_opt.xyz
 Cl -0.53469000  2.90440200 -3.52408500
  C -1.27823802  1.65352851 -2.64539219
  C -2.54277114  1.50439892 -2.26516527
  C -2.53679816  0.25056957 -1.41173670
  C -1.91215028  0.57086074 -0.03019195
  C -0.53501580  1.09262418 -0.45372385
  C -0.50713805  0.55125626 -1.93135783
  O -1.46420011 -0.49194951 -1.97316348
  C  0.46687695  0.57006529  0.59369442
  C  0.66712206  1.64740511  1.69290597
  C  1.83814404  0.25888754  0.03366408
  C  2.62293753 -0.74939268  0.58400596
  C  3.89245370 -1.00276260  0.09744643
  C  4.40980719 -0.24079474 -0.93523154
  C  3.65834529  0.79796431 -1.45404791
  C  2.38864087  1.05223506 -0.96703621
  N -0.20107502 -0.55732038  1.23445529
  C -1.57758358 -0.70935669  0.78625322
  C -1.63726692 -2.02873653 -0.04495752
  C -2.97769868 -2.66444083 -0.30543108
  O -0.61568899 -2.62092587 -0.29134898
  C -2.49130350 -0.85710353  2.00760053
  H -3.40962897  2.09317881 -2.48381898
  H -3.46993932 -0.29894044 -1.40438699
  H -2.48563831  1.28189136  0.56275972
  H -0.48044264  2.18112323 -0.50065372
  H  0.44404191  0.22555198 -2.33081255
  H  1.62896385  1.50604358  2.18001540
  H -0.11089931  1.53575866  2.44413616
  H  0.63208398  2.65428255  1.28722028
  H  2.24577221 -1.33164590  1.41149571
  H  4.48260038 -1.79623847  0.53271471
  H  5.39808345 -0.44443980 -1.32051362
  H  4.05971703  1.41903373 -2.24307749
  H  1.83241613  1.89072430 -1.36118986
  H  0.27879310 -1.43677203  1.06006408
  H -3.11608798 -3.42573413  0.46306158
  H -3.81252796 -1.97529748 -0.26744135
  H -2.94790053 -3.16368756 -1.27128847
  H -3.53880828 -0.90297879  1.72429211
  H -2.22835867 -1.75807157  2.55721546
  H -2.33943981 -0.00471058  2.66585823
