41
opt_min/./Product_1247_opt.xyz
  C  2.69534285 -0.29943056  2.56425450
  C  1.68864220 -1.22942637  1.89167172
  C  0.53349515 -0.45015337  1.37661862
  C -0.69566955 -0.74007338  0.86438956
  C -1.44286670 -2.00456878  0.70235224
 Cl -1.23131342 -2.96763866  2.21290847
 Cl -3.21322861 -1.68262156  0.59094974
  C -0.99225728 -2.83815165 -0.50329685
  C  0.47950094 -2.65696237 -0.89705490
  C  1.51737519 -3.13374851  0.13381432
  C  2.36499038 -2.01842283  0.75478381
  N -1.11374770  0.62401874  0.68869488
  C -3.46767420  1.97619970  1.79686633
  O -4.19483647  1.43393113  1.09743240
  O -2.77189771  2.52386132  2.51963135
  C  0.22686394  0.98508541  1.26191933
  C -1.66854367  1.22261979 -0.35346405
  N -2.10730270  0.39936282 -1.32090770
  C -2.94242875  0.89887011 -2.38806181
  O -1.73385736  2.42398275 -0.39579645
  N  0.81980093  2.00691535  1.62860237
  C  0.34205320  3.35122213  1.59165190
  H  3.08245683  0.41872421  1.84741669
  H  3.52318090 -0.87300278  2.97448270
  H  2.21833569  0.25348352  3.36771528
  H  1.32427168 -1.95394811  2.62907282
  H -1.19884981 -3.88896890 -0.29482863
  H -1.60408122 -2.55215282 -1.36274047
  H  0.65950468 -1.60794971 -1.13770313
  H  0.61310324 -3.22216760 -1.82168253
  H  1.02639498 -3.69716105  0.92604620
  H  2.20442492 -3.81949412 -0.36595527
  H  2.68073741 -1.32152719 -0.02454447
  H  3.26602091 -2.47240458  1.17268470
  H -2.17488419 -0.58731467 -1.12200267
  H -3.99534483  0.67075049 -2.20722109
  H -2.81425440  1.97849212 -2.43447048
  H -2.63071079  0.45176403 -3.33191203
  H  1.15786460  3.97333831  1.22252993
  H -0.55432749  3.49171215  0.98814873
  H  0.13735203  3.64419832  2.62265867
