58
opt_min/./Product_2573_opt.xyz
  C -4.89444267  1.76216299 -0.21575504
  C -3.91477352  2.71555481  0.41885129
  O -4.24053703  3.59641104  1.17948221
  C -2.50893686  2.50519640  0.04178041
  C -1.42072897  3.17288730  0.48842360
  C -1.30103046  4.21057567  1.41387589
  N -1.13674390  5.05418263  2.17464851
  C -0.23687713  2.46318986 -0.15511813
  C -0.12248072  1.14731185  0.67673383
  C -1.34335436  0.37606498  0.13628987
  C -1.93400972  1.42642037 -0.85572171
  O -0.77750551  2.03765785 -1.38214239
  C -0.74606596 -0.85591604 -0.59106990
  C -0.84303699 -2.03281929  0.26961816
  N -0.89608734 -2.99293048  0.88983901
  C -1.48420899 -1.18920840 -1.87609438
  C -2.76320789 -1.73483616 -1.79516315
  C -3.47126780 -2.02617562 -2.94626939
  C -2.90595974 -1.77083500 -4.18604813
  C -1.63823893 -1.22107937 -4.26663076
  C -0.92364479 -0.93239457 -3.11556476
  N  0.63523910 -0.47579035 -0.82603067
  C  1.10507709  0.27637375  0.33378278
  C  1.49949706 -0.68753350  1.45220495
  C  2.62081204 -1.48028152  1.21649831
  C  3.02969914 -2.42625118  2.13431029
  C  2.32076565 -2.60363049  3.31175452
  C  1.20535551 -1.82426462  3.55463096
  C  0.79579936 -0.87422417  2.63173582
  C  2.30360366  1.13493588 -0.01825162
  C  2.65587605  1.37145779 -1.34061009
  C  3.74309236  2.17358911 -1.63832981
  C  4.48185546  2.74989617 -0.62006505
  C  4.12901989  2.52553911  0.70035072
  C  3.04453304  1.72206660  1.00175194
  H -4.64038676  0.73711029  0.04884840
  H -4.85043667  1.85127095 -1.29876488
  H -5.89916248  1.98949463  0.12743428
  H  0.67654066  3.03436612 -0.28209569
  H -0.15920539  1.38647144  1.73781076
  H -2.07272812  0.08665872  0.89307157
  H -2.56482809  1.02709600 -1.64206493
  H -3.20203226 -1.93299799 -0.82658310
  H -4.46020789 -2.45305540 -2.87378292
  H -3.45543900 -1.99906857 -5.08615893
  H -1.19929338 -1.01448490 -5.23093845
  H  0.05908078 -0.49308404 -3.18032357
  H  1.22937061 -1.27174028 -1.03469320
  H  3.18727704 -1.34292531  0.30497533
  H  3.90333632 -3.02633545  1.92905146
  H  2.63396239 -3.34531377  4.03028582
  H  0.64021328 -1.95625158  4.46411585
  H -0.09089753 -0.29959882  2.85508803
  H  2.06348410  0.93323048 -2.12772280
  H  4.01147929  2.35095274 -2.66954971
  H  5.33115422  3.37508277 -0.85238329
  H  4.69900073  2.97748559  1.49868099
  H  2.77137657  1.54324645  2.03139794
