55
opt_min/./Product_1901_opt.xyz
  C -1.14214900  2.86251100  3.09939900
  N -0.61226087  2.25972897  1.89674067
  C -0.64693513  0.92810357  1.71594807
  O -1.00719598  0.16092855  2.59022647
  C -0.21119523  0.42178332  0.33274636
  C -1.53581847  0.12460624 -0.44284355
  O -2.64152791  0.46057113  0.37457098
  C -3.92519481  0.36376560 -0.20584525
  C -1.42172750  1.15589692 -1.61651616
  C -0.33108987  0.69706556 -2.54963190
  C  0.79769375  0.96319622 -1.90985511
  C  0.37532886  1.55711361 -0.57930652
  O -0.80851994  2.25294471 -0.94997022
  C -1.45398908 -1.35555777 -0.83830951
  C -2.44292793 -2.25618687 -0.06432635
  N -2.46141418 -2.09432702  1.26674773
  C -3.33442639 -2.87306264  2.11025994
  O -3.10938545 -3.08695577 -0.65573543
  N -0.05636662 -1.73522213 -0.65776592
  C  0.13895372 -3.16891400 -0.57809021
  C  0.62445147 -0.89831500  0.33564107
  C  0.79262308 -1.59930240  1.70114311
  C  2.06387727 -0.61319320 -0.09650382
  C  2.64389556 -1.23088394 -1.19724501
  C  3.97679751 -1.01789186 -1.50596580
  C  4.75003708 -0.17743220 -0.72541293
  C  4.17596337  0.46017241  0.36127456
  C  2.84817579  0.23793509  0.67632636
  H -2.09957244  3.34902953  2.90492768
  H -0.43594453  3.59916942  3.48445947
  H -1.28592403  2.07250137  3.83501422
  H -0.57626870  2.85641539  1.08424992
  H -4.16520989  1.24859139 -0.80459253
  H -4.03183978 -0.53118526 -0.82255343
  H -4.61907471  0.30854875  0.63213810
  H -2.36596694  1.45161304 -2.06160582
  H -0.49460684  0.25432102 -3.51060566
  H  1.81117080  0.84673784 -2.22943311
  H  1.11365430  2.20786135 -0.11749473
  H -1.69091966 -1.48579377 -1.90469755
  H -2.00557153 -1.29617723  1.69861955
  H -4.12305675 -2.24867528  2.53555184
  H -2.76571741 -3.32413971  2.92520869
  H -3.78448011 -3.65535562  1.49972544
  H -0.32170798 -3.63797193  0.29842745
  H  1.20486150 -3.38884320 -0.56990444
  H -0.30303458 -3.61378802 -1.46944944
  H  1.52994085 -2.39217116  1.59178687
  H  1.15778495 -0.90109885  2.44616534
  H -0.13351180 -2.02783536  2.06386069
  H  2.03611227 -1.84888916 -1.83694399
  H  4.41169300 -1.51094453 -2.36350341
  H  5.79080004 -0.01483164 -0.96407955
  H  4.76754623  1.12796252  0.97079686
  H  2.41344006  0.74056326  1.52837503
