29
opt_min/./Product_3360_opt.xyz
  C -0.54194200  0.23098500  1.79504900
  C -0.53504694 -0.14731878  0.31386175
  C -0.91413565 -1.62591344  0.19182899
  C -1.37993983  0.80626598 -0.60499652
  C -1.87860503  2.08098049  0.08328991
  C -2.55947911  0.14880285 -1.32217974
  N -0.37043214  1.18870967 -1.60024174
  N  0.84996944  0.78823617 -1.33945323
  C  0.85842797  0.04705530 -0.28475527
  C  2.05990186 -0.57923890  0.24185473
  O  3.15830206 -0.22515534 -0.45406307
  C  4.37693890 -0.80162296 -0.01435913
  O  2.09461940 -1.33716400  1.18844174
  H -1.54781310  0.18304531  2.20597024
  H  0.08924998 -0.46965204  2.33569232
  H -0.13941904  1.22806132  1.95581420
  H -1.91962782 -1.79888680  0.56854534
  H -0.21430901 -2.21001187  0.78487593
  H -0.85284742 -1.97324840 -0.83654273
  H -2.60565190  1.84310211  0.85449603
  H -2.35966839  2.72113945 -0.65502700
  H -1.05901941  2.63594994  0.53095423
  H -2.23656469 -0.67562176 -1.95085977
  H -3.28670586 -0.21875115 -0.60376109
  H -3.04923367  0.88374220 -1.95978312
  H -0.53456894  1.83636933 -2.35119959
  H  4.48745457 -0.68012255  1.06546256
  H  5.17067217 -0.28015604 -0.54386086
  H  4.39738338 -1.86834012 -0.25139905
