25
opt_min/./Product_3576_opt.xyz
  O -2.65518900  2.49173200  0.21310600
  C -3.13848913  1.46734507  0.37817408
  O -3.63963317  0.45452069  0.54744189
  C -0.81340700 -0.05148053 -0.88937872
  C  0.30147776  0.38851213 -0.29892192
  C -0.19619050  2.18239658  2.11097605
  O  0.63295528  2.89298717  1.77415740
  O -1.02611073  1.47380085  2.45900425
  C  0.82889576 -0.74216331  0.54120959
  C  2.25047418 -1.15404795  0.14252176
  O  2.63855522 -2.27490249  0.00611742
  O  2.99852997 -0.05807619 -0.00967052
  C  4.36912285 -0.23521168 -0.35638242
  N -0.11183296 -1.81432799  0.37893839
  C -1.02765291 -1.42338599 -0.42603145
  C -2.17593456 -2.26809679 -0.83011730
  H -1.44836370  0.47227001 -1.57998473
  H  0.81316415  1.32359214 -0.41389664
  H  0.89087551 -0.48561697  1.60564166
  H  4.53756689  0.21676030 -1.33400528
  H  4.97428748  0.27021012  0.39558102
  H  4.61112508 -1.29856029 -0.38738903
  H -2.23736525 -2.31884760 -1.91597716
  H -2.05661687 -3.26685715 -0.42231623
  H -3.10142724 -1.83233714 -0.45623960
