43
opt_min/./Product_5213_opt.xyz
  C  1.97375600 -0.47750000 -0.49119600
  C  0.77992335 -0.98598168  0.31239353
  C -0.12025910  0.14176601  0.87426710
  N  0.50599714  1.42557415  0.97228800
  C -0.26773234  2.49565492  1.54629567
  C  1.84401454  1.59296211  0.78444463
  C  2.63124043  0.69512137  0.17016427
  C  4.09427636  0.76997264  0.09177517
  N  4.66950029  1.96578712  0.45967664
  O  4.78517648 -0.18167825 -0.22128780
  C -1.37760986  0.02130577 -0.08416196
  C -2.30555721  1.20037669 -0.22403410
  O -2.97134594  1.37943563  0.91262654
  C -3.98809149  2.37544432  0.93892544
  O -2.46540552  1.84536122 -1.22653583
  C -2.04956529 -1.22857955  0.54843284
  O -3.01318955 -1.30174136  1.24428319
  O -1.28111911 -2.25520441  0.17849407
  C -0.21419011 -1.69265936 -0.64369157
  C  0.38105674 -2.76187338 -1.56171238
  C  0.04756109 -4.16730091 -1.17604795
  O  1.06675372 -2.45735051 -2.49869771
  N -0.79876726 -0.54334093 -1.29253200
  C -1.69786741 -0.80486989 -2.39801607
  H  1.61055670 -0.16779865 -1.47622763
  H  2.70714851 -1.27063832 -0.64017475
  H  1.11072048 -1.64671075  1.11656229
  H -0.47123495 -0.12286375  1.88521912
  H -0.82877475  3.03601595  0.77825100
  H  0.39781892  3.20102680  2.04409788
  H -0.97189461  2.09961817  2.28211029
  H  2.24258473  2.49094400  1.23550000
  H  4.16554850  2.82031268  0.29256238
  H  5.65584450  2.01450056  0.24774027
  H -4.95130380  1.87650234  1.04108841
  H -3.80475669  3.01571780  1.80117919
  H -3.96088602  2.95859453  0.01629295
  H -1.03134144 -4.28956962 -1.11293999
  H  0.45494229 -4.37177512 -0.18760422
  H  0.46792576 -4.85620937 -1.90375475
  H -2.51466692 -1.49193758 -2.13760229
  H -2.11561115  0.14204792 -2.72834373
  H -1.11243541 -1.23145937 -3.21110364
