55
opt_min/./Product_5926_opt.xyz
  C -1.16529910  0.79552085 -0.00948902
  O -1.05672767  1.96776747  0.27755363
  C -0.43487829  0.21039309 -1.22467922
  O -1.30721983 -0.02321509 -2.28721695
  C -2.09731549  1.06590210 -2.74479275
  C  0.24702328 -1.13212044 -0.82451846
  O  0.98646346 -1.68824940 -1.88192097
  C  0.33156836 -2.37118605 -2.94197016
  C -0.78441543 -2.08001469 -0.23616578
  O -0.75598408 -3.26466332 -0.46850929
  C -1.84887525 -1.47773914  0.59821500
  C -2.71064157 -2.45142597  1.32766072
  C -2.00894769 -0.14255896  0.72928576
  C -3.00770490  0.46444032  1.65897167
  C  1.35919612 -0.59490726  0.12673246
  C  2.54051344 -1.61185589  0.08156024
  C  3.79297779 -1.10795729 -0.55350664
  O  2.40769215 -2.70942501  0.54694729
  C  0.94842993 -0.40169328  1.57117874
  C  0.51238918 -1.48051224  2.33480579
  C  0.15180884 -1.29464708  3.65656505
  C  0.21874874 -0.03620022  4.23131784
  C  0.67455392  1.03282141  3.48199099
  C  1.04747806  0.85176260  2.16158439
  O  1.74722451  0.64236778 -0.46312517
  C  0.84359701  1.07350194 -1.46293930
  C  0.63734703  2.60376470 -1.36088468
  O  1.40425027  3.11381082 -0.41843326
  C  1.35063279  4.52222228 -0.22094717
  O -0.04047173  3.22628737 -2.13362592
  C  1.38982983  0.81896680 -2.78926633
  N  1.84391552  0.64099228 -3.82179642
  H -1.47973270  1.88037465 -3.12556244
  H -2.74641097  1.44795612 -1.95086571
  H -2.70325290  0.65073387 -3.54822560
  H -0.43431418 -1.75146566 -3.40658857
  H -0.10439748 -3.31005450 -2.59517065
  H  1.12708261 -2.57280641 -3.65753987
  H -2.45821178 -2.45261859  2.38853446
  H -2.53963650 -3.44983743  0.93098374
  H -3.76143486 -2.18878681  1.22856615
  H -3.03644759 -0.07508821  2.60252334
  H -4.00410800  0.43848346  1.21574536
  H -2.74066523  1.50363517  1.83775052
  H  3.67269856 -1.19994695 -1.63366093
  H  4.63421293 -1.72050672 -0.23785036
  H  3.95632893 -0.06078140 -0.31822554
  H  0.47790415 -2.46790670  1.90341520
  H -0.18044307 -2.13980749  4.24228172
  H -0.07343105  0.10666537  5.26088019
  H  0.74495450  2.01557183  3.92454325
  H  1.41005653  1.68500220  1.58130826
  H  0.60168725  4.96353251 -0.88032681
  H  1.08964253  4.70130661  0.82166959
  H  2.33623872  4.93594623 -0.43857883
