37
opt_min/./Product_5035_opt.xyz
  C -0.81130700  2.28871500  1.32701400
  O -1.48641930  2.52091247  2.30266473
  C -0.63058601  3.25833007  0.24073614
  C  0.43655173  3.21764660 -0.55269735
  C  1.43131465  2.11985523 -0.57400899
  O  2.13792371  1.98379670 -1.53153685
  C  1.44562015  1.21072602  0.66859541
  C  0.03035696  1.03111299  1.24512373
  C -0.42017376 -0.25896649  0.43542621
  C -1.79265846 -0.48896047 -0.10143390
  C -2.83735610  0.41290684  0.02746199
  C -4.08428013  0.11077020 -0.49541226
  C -4.29449762 -1.08843183 -1.15271313
  C -3.25425637 -1.98921748 -1.28744874
  C -2.00936472 -1.69407655 -0.76255259
  C  0.11339910 -1.27477998  1.46201505
  O -0.43940463 -1.99941456  2.22376620
  O  1.45557493 -1.14228629  1.34654756
  C  1.69706625 -0.26128258  0.22224946
  C  3.06817536 -0.67844324 -0.40542572
  N  3.59812222 -1.75142738  0.20492978
  C  4.85704372 -2.31612164 -0.22957772
  O  3.59180856 -0.09703299 -1.31647100
  O  0.57076439 -0.44719232 -0.57866922
  H -1.34834735  4.06690393  0.19712730
  H  0.59620905  3.96396541 -1.32029919
  H  2.15610661  1.60475182  1.39607433
  H  0.10042722  0.71257349  2.29876857
  H -2.69658385  1.34956289  0.53766941
  H -4.89092528  0.82001924 -0.38532973
  H -5.26789742 -1.32070743 -1.55895038
  H -3.41083801 -2.92747840 -1.79891925
  H -1.19385197 -2.39265021 -0.86813824
  H  3.13077515 -2.20741815  0.97591599
  H  4.69183349 -3.23320540 -0.79905477
  H  5.35008164 -1.58516505 -0.87036973
  H  5.48244372 -2.53363235  0.63500580
