44
opt_min/./Product_4476_opt.xyz
  C  5.72509933 -0.37589834  0.66785337
  C  5.03470629  0.95084985  0.68090113
  C  5.90891922  2.10182968  1.09542786
  C  3.74566015  1.16426686  0.38249518
  C  2.76124847  0.18137703  0.00886342
  C  1.50975789  0.50236145 -0.32464187
  C  0.49392426 -0.51461893 -0.74938902
  C  0.80395660 -0.94732186 -2.18901041
  C  0.46399371 -1.78591599  0.12320792
  O -0.74512842 -2.41148552 -0.20639487
  N -1.73188518 -1.37385058 -0.44221116
  C -2.56262682 -1.77603851 -1.55742719
  C -0.99460087 -0.09135736 -0.52088601
  C -1.14471912  0.58434356  0.86829854
  N -2.13264978  0.06460170  1.61647889
  C -2.41974576  0.51744233  2.95354734
  O -0.46972940  1.52716338  1.23358672
  C -1.57762070  0.82666657 -1.60148179
  C -2.32433272  2.03411032 -1.10879832
  O -1.46920206  0.58986959 -2.77853764
  H  6.13809308 -0.58789764  1.65316359
  H  6.55497345 -0.34500420 -0.03989638
  H  5.06187388 -1.18687657  0.38379844
  H  5.80312083  2.27598769  2.16781749
  H  6.95443143  1.89062291  0.88885462
  H  5.61873467  3.01834858  0.58755319
  H  3.38394801  2.18377522  0.42184555
  H  3.06449737 -0.85624613  0.01725014
  H  1.20314479  1.53495854 -0.31896674
  H  0.63505107 -0.13999179 -2.89459178
  H  1.85146203 -1.23581447 -2.24085835
  H  0.19401878 -1.80029862 -2.47695936
  H  1.25850831 -2.49481428 -0.10674030
  H  0.50464354 -1.52385888  1.19060738
  H -2.08584919 -1.69071273 -2.53798783
  H -2.83759093 -2.81466831 -1.38187230
  H -3.46099721 -1.15878901 -1.54549509
  H -2.65036205 -0.71316217  1.22757738
  H -1.84634241  1.42652727  3.12941684
  H -3.48474623  0.72829664  3.05926336
  H -2.12841244 -0.23466149  3.69039952
  H -1.61981078  2.71453629 -0.63253486
  H -3.07256871  1.75762018 -0.36988950
  H -2.79623144  2.53441031 -1.95108073
