50
opt_min/./Product_1202_opt.xyz
  C  0.55069574  0.30486368  1.77510816
  C  0.35798891  0.46798840  0.26374451
  C -1.06574909  0.91168928 -0.21667392
  C -2.06136022  1.37198704  0.83793689
  C -0.72278323  2.05063622 -1.21588496
  C -0.30301718  3.31405212 -0.45699006
  C  1.03124163  2.89296185  0.19093724
  C  1.28586997  1.50419253 -0.40920570
  C  0.63473140  1.63601042 -1.78588719
  C -1.60435199 -0.38101674 -0.96163567
  C -2.11843637 -0.08397453 -2.28638574
  N -2.52490895  0.13370381 -3.33183588
  C -2.71640659 -1.11350011 -0.21109549
  C -4.04803315 -0.76226991 -0.41401979
  C -5.05345169 -1.41582046  0.27502686
  C -4.74442320 -2.42740589  1.16734807
  C -3.42271262 -2.78530387  1.36691728
  C -2.41351662 -2.13462752  0.68088055
  N -0.47910192 -1.27372445 -1.10055601
  C  0.53480570 -0.86087212 -0.45921370
  C  1.78261535 -1.62433954 -0.53278520
  C  1.87119771 -2.61495231 -1.51557179
  C  3.02618638 -3.35727297 -1.65786977
  C  4.11086325 -3.12790918 -0.82794346
  C  4.03126383 -2.15269163  0.15191145
  C  2.87700504 -1.40461847  0.29931897
  H  1.52178738  0.68956215  2.08603064
  H -0.21503783  0.83969657  2.33130262
  H  0.47943875 -0.74546054  2.05877370
  H -2.37768871  0.54603049  1.47379964
  H -1.64249744  2.14472540  1.47594514
  H -2.94457058  1.77803417  0.34752150
  H -1.50558414  2.23153917 -1.95071282
  H -0.14793043  4.12720520 -1.17037683
  H -1.03990226  3.65961657  0.26463947
  H  1.83748399  3.57467277 -0.08563898
  H  0.97414809  2.86436352  1.27728716
  H  2.33312641  1.20430542 -0.39227852
  H  1.08482693  2.41997520 -2.39533268
  H  0.61826287  0.71262145 -2.36381016
  H -4.29707590  0.02226601 -1.11399818
  H -6.08396393 -1.13690673  0.11230702
  H -5.53487632 -2.93574789  1.70066229
  H -3.16823518 -3.57653830  2.05620187
  H -1.38775491 -2.42867621  0.83955484
  H  1.01838387 -2.78132526 -2.15462878
  H  3.08360344 -4.11751241 -2.42297330
  H  5.01581391 -3.70651201 -0.94400262
  H  4.87252686 -1.97099074  0.80612007
  H  2.83682251 -0.65845673  1.07540412
