38
opt_min/./Product_1331_opt.xyz
  F  1.29050000  0.47990400 -1.67381800
  C  0.62211674  0.42578810 -0.49117584
  C -0.92740264  0.33847834 -0.59078844
  C -1.52206620  0.45608409 -1.98769712
  F -1.24514724 -0.57383384 -2.79628222
  F -1.12187585  1.53999690 -2.66544244
  F -2.85985175  0.53491304 -1.92794960
  C -1.30852647  1.57903506  0.31026061
  C -0.95491810  2.81682924 -0.48657278
  C  0.36903529  2.88923834 -0.44805041
  C  0.80432063  1.71435882  0.39202415
  O -0.28167476  1.54605669  1.28520510
  C -1.24674105 -1.02173201  0.13675502
  C -2.42663360 -0.93161840  1.11213134
  C -2.10333483 -1.32771314  2.51250635
  O -3.50865444 -0.54156593  0.75215525
  C -1.42660919 -2.20260986 -0.91820187
  C -2.82012850 -2.59378584 -1.28577423
  O -0.44322576 -2.72909350 -1.34325566
  N -0.04801187 -1.39594756  0.81818020
  C  0.95729725 -0.76621635  0.38537382
  C  2.33557078 -1.07499188  0.85783492
  O  3.21588173 -0.23312744  0.31611038
  C  4.58012324 -0.45304895  0.65344134
  O  2.61149779 -1.95745275  1.62105646
  H -2.29549430  1.54148635  0.75926990
  H -1.66868805  3.43800805 -0.98793842
  H  1.02546266  3.59144619 -0.91838737
  H  1.76035432  1.77477494  0.90074457
  H -1.41713922 -2.16864669  2.52758649
  H -1.60058655 -0.48488616  2.98814826
  H -3.01893957 -1.54587422  3.05708005
  H -2.99132818 -3.60161731 -0.91046607
  H -2.87961108 -2.63877282 -2.37281724
  H -3.57902523 -1.92014408 -0.90581120
  H  5.12147966  0.42463037  0.30926473
  H  4.68416610 -0.57902880  1.73328617
  H  4.95086525 -1.34938388  0.15416796
