33
opt_min/./Product_3800_opt.xyz
  C  1.85650624 -2.01866993  0.28431376
  C  0.87938713 -0.85619779  0.21172306
  C -0.61283276 -1.20517289  0.40517459
  C -0.98084257 -2.66372925  0.15939471
  C -1.33128468 -0.24078328 -0.58779371
  C -2.31387527  0.66247940  0.19522758
  N -1.97247811  1.95524714  0.17185376
  C -2.77379901  2.98637955  0.78100473
  O -3.25172593  0.18987201  0.79540784
  C -2.10426625 -0.94506730 -1.60409367
  N -2.68379880 -1.43751756 -2.45695025
  O -0.33481091  0.53260349 -1.24828199
  C  0.89109161 -0.16380957 -1.16520953
  C  2.04333922  0.81463853 -1.30822472
  O  3.05333389  0.58723741 -1.91537523
  O  1.81501094  1.92320331 -0.60495244
  C  2.82974151  2.92097429 -0.62734129
  H  2.86520302 -1.65702449  0.09787624
  H  1.83102104 -2.47507858  1.26957844
  H  1.62442275 -2.77370355 -0.45991777
  H  1.15907188 -0.10543957  0.95908210
  H -0.92633372 -0.95024649  1.42014037
  H -0.66274874 -2.99530961 -0.82614832
  H -0.52536588 -3.30001439  0.91324971
  H -2.06052002 -2.77699654  0.22785950
  H -1.17928356  2.21786130 -0.39615082
  H -3.45317127  2.52103669  1.49276507
  H -3.36593714  3.51027844  0.02603146
  H -2.13607131  3.70135249  1.29780141
  H  0.96881034 -0.91129837 -1.96858521
  H  3.81370728  2.45092964 -0.66625028
  H  2.71470508  3.49870259  0.28674646
  H  2.70486313  3.56432060 -1.49833614
