24
opt_min/./Product_3531_opt.xyz
  O  1.04404815  3.16580641  0.13911333
  C  0.97942263  2.43583820  1.01880112
  O  0.92282916  1.69138634  1.88332797
  C -0.32196133  0.24609785 -0.81266478
  C  0.36041185 -0.60137194 -1.56444998
  C  3.11792700  0.01699977 -0.17802058
  O  2.82879646 -0.43361184  0.83079710
  O  3.39055106  0.49135404 -1.18453648
  C  0.07826147 -2.02110110 -1.13355737
  C  1.22452312 -2.66234633 -0.50969625
  N  2.07216361 -3.22542195  0.01252501
  N -1.05945749 -1.86107191 -0.23036246
  C -1.07536604 -0.49258290  0.26529919
  C -2.48649292  0.07496178  0.41795020
  C -3.50501046 -0.52346425 -0.50275184
  O -2.71396056  0.95798356  1.20301897
  H -0.40714903  1.30906221 -0.93576964
  H  0.97660357 -0.38217040 -2.41630236
  H -0.20872698 -2.65767436 -1.98712898
  H -1.09823692 -2.55786507  0.50332357
  H -0.54371816 -0.35228083  1.22377397
  H -3.74013349 -1.52790949 -0.15575117
  H -4.41023431  0.07712873 -0.50725513
  H -3.09312315 -0.61067486 -1.50419722
