54
opt_min/./Product_1915_opt.xyz
  C -3.58521200 -1.11089600  0.50925700
  O -2.64758082 -0.21589353 -0.07282227
  C -1.29249696 -0.54690655  0.06682713
  C -0.91362677 -1.80223870 -0.78172622
  C -1.85539709 -2.19881678 -1.88775604
  O  0.07807619 -2.43302718 -0.53281735
  C -0.43006655  0.63251050 -0.52339935
  O -0.33052475  0.53148580 -1.91663114
  C -1.47416588  0.89527754 -2.68036473
  C -0.90894637  2.00332344 -0.03449881
  C -0.62235991  3.17139417 -0.94026449
  O -1.37771781  2.15217425  1.06678220
  C  0.95739848  0.43855103  0.20381694
  C  1.64039762  1.80976565  0.48389817
  N  1.34913037  2.37083258  1.67748200
  C  1.91351647  3.64078622  2.07089172
  O  2.41039542  2.31261486 -0.30544407
  C  2.00906280 -0.35509378 -0.57089152
  C  2.77847602 -1.27601568  0.13015872
  C  3.79360481 -1.97263248 -0.49718585
  C  4.06976215 -1.75014129 -1.83448150
  C  3.32744334 -0.81270803 -2.52819830
  C  2.31112979 -0.11158839 -1.90211709
  N  0.61417502 -0.24834916  1.42228161
  C -0.72831860 -0.79137781  1.48812388
  C -1.45939469 -0.26874885  2.72930969
  C -0.74772879 -0.66547921  4.00837297
  O -2.46992488  0.37409634  2.74685732
  H -3.85648315 -0.77090420  1.50879567
  H -4.46760069 -1.09324434 -0.12992797
  H -3.18913990 -2.12748899  0.55349732
  H -1.28303707 -2.30267277 -2.80635448
  H -2.66293669 -1.49010504 -2.01746649
  H -2.26293103 -3.18060454 -1.64696167
  H -1.53115849  0.18426330 -3.50482065
  H -1.35375982  1.89762996 -3.09471791
  H -2.38498873  0.84679897 -2.08527338
  H -0.34986486  4.02656682 -0.32506207
  H -1.53187715  3.43126704 -1.47898286
  H  0.17445044  2.94448328 -1.64158380
  H  0.53796138  2.05472876  2.18871216
  H  2.47850042  4.03306866  1.22594718
  H  2.59168638  3.50989294  2.91739504
  H  1.12484796  4.33926363  2.34882011
  H  2.56599816 -1.46687567  1.16957195
  H  4.37383674 -2.69082624  0.06452686
  H  4.86126609 -2.29695831 -2.32589033
  H  3.54594301 -0.61723966 -3.56841698
  H  1.76995165  0.63309121 -2.45654062
  H  0.99112943  0.12811039  2.27542115
  H -0.63997319 -1.88310505  1.63595619
  H -0.37849466  0.22996751  4.50737223
  H -1.47793305 -1.11291407  4.68019346
  H  0.07001101 -1.35579790  3.83655045
