33
opt_min/./Product_4052_opt.xyz
  C  0.87688996 -0.95069700  0.29423109
  C -0.51906896 -0.55756586 -0.20735977
  C -0.67699938  0.92053005 -0.64195546
  N  0.53368432  1.65749299 -0.80947972
  C  0.45909268  3.03185341 -1.25473473
  C  1.72081555  1.00666468 -0.91673082
  C  1.94458387 -0.25439820 -0.49870298
  C  3.25467908 -0.85108788 -0.76114365
  N  3.48917383 -2.07310194 -0.17106170
  O  4.07696943 -0.35131952 -1.50839924
  C -1.70008785  1.43990094  0.45744677
  C -2.33224230  2.70072360  0.21486981
  N -2.86104465  3.69010921 -0.00610947
  N -2.61345301  0.31049941  0.58998519
  C -1.59362424 -0.66234453  0.93083181
  C -2.09731357 -2.04588653  1.28529005
  O -1.00346371 -0.01837166  2.07464788
  C -0.96272603  1.29008993  1.80191491
  O -0.42404694  2.12369924  2.45575980
  H  0.97884375 -0.65010932  1.34175192
  H  0.97368174 -2.03537163  0.24346422
  H -0.79109909 -1.20943815 -1.04087081
  H -1.24941528  0.95434710 -1.58775355
  H  0.92447187  3.68708486 -0.51605671
  H  0.97337028  3.15649564 -2.21053693
  H -0.57722345  3.33617496 -1.37648372
  H  2.52032831  1.55722944 -1.39013724
  H  4.42726846 -2.41593562 -0.32522875
  H  3.12876672 -2.26251359  0.74862743
  H -3.12838311  0.09074857 -0.25554189
  H -3.17276414 -2.09594145  1.14091814
  H -1.61547426 -2.80340051  0.67462775
  H -1.88073336 -2.24387733  2.33059537
