53
opt_min/./Product_5797_opt.xyz
  C -3.23120487 -0.46625277  0.03922385
  C -3.17682858 -1.85486291 -0.51268007
  C -2.03558334 -2.51734468 -0.65775137
  N -0.78662103 -1.98186261 -0.41212426
  C  0.17517977 -2.90618958  0.15141643
  C -0.68134698 -0.53621497 -0.46037791
  C -1.84006161  0.11421015  0.34880476
  C -1.97361640  1.62852680  0.14950105
  N -2.11054156  2.03070823 -1.13485704
  O -2.03459650  2.40107711  1.07823735
  C -1.30851061 -0.16570491  1.77620588
  C -1.83181441  0.70488359  2.83086406
  N -2.20576435  1.20711565  3.78765829
  C -1.73533988 -1.50008334  2.20726602
  N -2.03601488 -2.53603689  2.58609443
  N  0.14287916 -0.05401830  1.67824057
  C  0.89533784 -0.69064228  2.73117711
  C  0.54394892  0.06353412  0.27303562
  C  1.91453752 -0.45322807 -0.13509977
  C  2.09779122 -1.19501018 -1.29796297
  C  3.36763391 -1.54297195 -1.72279193
  C  4.48048093 -1.14342724 -1.00466929
  C  4.31337481 -0.35440658  0.11907165
  C  3.04549177  0.00774457  0.53578838
  C  0.70822195  1.55043579 -0.09082684
  C  0.79614968  2.51812707  0.89844958
  C  1.02271057  3.84176001  0.56576584
  C  1.18142609  4.21188610 -0.75661811
  C  1.12441397  3.24699803 -1.74891663
  C  0.90025480  1.92447449 -1.41706337
  H -3.83562642 -0.45960083  0.95272871
  H -3.75122598  0.18960374 -0.66901650
  H -4.11841054 -2.31560833 -0.75721961
  H -2.02016708 -3.55087143 -0.97477266
  H  0.65972730 -3.49195935 -0.63819606
  H  0.94794450 -2.39117895  0.71017853
  H -0.33006140 -3.59482658  0.83206703
  H -0.72256708 -0.22068059 -1.51168349
  H -2.19776035  1.38855947 -1.89924309
  H -2.30076505  3.00560137 -1.29293062
  H  0.56310159 -1.71802335  2.93456392
  H  1.94917866 -0.72386021  2.47561184
  H  0.77796870 -0.11141493  3.65246834
  H  1.24760542 -1.51028317 -1.88112128
  H  3.48505830 -2.12533358 -2.62456770
  H  5.47014576 -1.42309382 -1.33288170
  H  5.17364902  0.00162472  0.66623786
  H  2.94040476  0.68878050  1.36720887
  H  0.65702787  2.24078026  1.93149580
  H  1.07250809  4.58391057  1.34766353
  H  1.35765574  5.24521863 -1.01591775
  H  1.26371552  3.52335368 -2.78398452
  H  0.88439439  1.17668892 -2.19784107
