53
opt_min/./Product_2866_opt.xyz
  C -4.52795200 -0.02005600  1.24239700
  O -3.13775534  0.24133173  1.38201768
  C -2.55676305  1.00270895  0.45852648
  O -3.11353926  1.50841768 -0.46910799
  C -1.09491798  1.18481229  0.85532545
 Br -1.30812633  2.38737456  2.38599006
  C -0.35923312 -0.15771401  1.10717421
  C -0.21514617 -0.65241683  2.54985399
  O -0.64005082 -0.10111999  3.52271612
  O  0.46028364 -1.78941721  2.55906495
  C  0.64485376 -2.40548475  3.82815682
  C -1.16702825 -1.25375487  0.36668240
  O -1.65948439 -2.19461692  0.92655360
  O -1.30601205 -0.98213118 -0.91565726
  C -2.11256937 -1.85648966 -1.69841524
  C  1.01234203  0.11028056  0.39207020
  C  1.86862850 -1.10002951  0.17010858
  C  2.84328838 -1.47384125  1.08826517
  C  3.59603336 -2.61526494  0.87298356
  C  3.38573242 -3.39183490 -0.25303156
  C  2.42081815 -3.01886364 -1.17223961
  C  1.66505861 -1.87982556 -0.96444588
  C  1.63656366  1.30500711  1.15418228
  O  2.54398296  1.33098779  1.92422672
  O  0.93245303  2.38860469  0.78264101
  C -0.10349899  1.88191454 -0.11846011
  C -0.64463229  2.95928364 -1.07417129
  N -0.38291549  4.20731601 -0.66479964
  C -0.86482958  5.35880009 -1.38926922
  O -1.20057023  2.66321273 -2.10171159
  N  0.52308147  0.79331697 -0.80535855
  C  1.50925147  1.16507278 -1.81170969
  H -4.99438877  0.74915069  0.62380615
  H -4.94620500 -0.01901070  2.24667622
  H -4.66222917 -0.99953187  0.78008249
  H  0.90966477 -1.65774778  4.57821426
  H -0.27536453 -2.90899900  4.12939587
  H  1.44732981 -3.12738909  3.69817584
  H -2.86249147 -2.34564244 -1.07437136
  H -2.58043300 -1.23178080 -2.45689546
  H -1.48196153 -2.61614330 -2.16354430
  H  3.02967268 -0.87155163  1.96159058
  H  4.35042410 -2.89785750  1.59183888
  H  3.97374283 -4.28261243 -0.41640067
  H  2.25393873 -3.61491660 -2.05741338
  H  0.91377186 -1.58391719 -1.67966143
  H  0.15931666  4.35842876  0.17077647
  H -1.23986286  6.10333585 -0.68906058
  H -1.66874975  5.02699877 -2.04418393
  H -0.06947127  5.80047831 -1.99404554
  H  1.84407058  2.19990512 -1.70334859
  H  1.05131351  1.04285680 -2.79361387
  H  2.37734195  0.51165655 -1.73861932
