47
opt_min/./Product_2149_opt.xyz
  C -2.99451817 -2.35739446 -0.08449520
  C -2.24256635 -1.86155590  1.11938054
  O -2.57322082 -2.17516912  2.23240813
  C -1.06475078 -0.88395263  0.93836394
  C  0.01576401 -1.10824109 -0.16513223
 Br -0.06541932 -2.80291138 -1.15305930
  C  1.35461475 -1.02057399  0.60019007
  C  1.57465783 -2.29846131  1.41659218
  C  0.42621231 -2.23690435  2.43865847
  C -0.18552282 -0.84280237  2.21084016
  C  1.02106727 -0.03859780  1.72519756
  C -0.17454110  0.05618882 -1.18055114
  C -1.12499797 -0.27636629 -2.23684344
  N -1.92293525 -0.38827558 -3.04923021
  C  1.10705038  0.49791332 -1.87184199
  C  1.77221805  1.65079203 -1.47445583
  C  2.93920991  2.03103405 -2.11155497
  C  3.45080446  1.26853566 -3.14778638
  C  2.78558677  0.12274592 -3.55023098
  C  1.61565866 -0.26031828 -2.92027673
  N -0.74011890  1.11687502 -0.35438939
  C -1.66680732  0.51784220  0.60017925
  C -1.92546727  1.45311066  1.81977276
  C -1.67742237  2.90857789  1.55126904
  O -2.35603546  1.02872789  2.85236425
  C -3.01469711  0.47255226  0.04692416
  N -4.04846690  0.61845594 -0.42133277
  H -4.06004106 -2.28184790  0.11927536
  H -2.77610368 -3.41820985 -0.20491517
  H -2.77056686 -1.84069154 -1.01326839
  H  2.19273241 -0.77802984 -0.05121033
  H  2.54696757 -2.24023679  1.90432227
  H  1.56368647 -3.20582369  0.81716681
  H  0.79601542 -2.31308186  3.45930927
  H -0.30152120 -3.03216918  2.29609414
  H -0.71169763 -0.47821047  3.08656953
  H  1.81172291  0.02456943  2.46490721
  H  0.76902481  0.95819489  1.37402914
  H  1.37916131  2.24510383 -0.66382204
  H  3.44868285  2.92808668 -1.79556368
  H  4.36154296  1.56773063 -3.64311877
  H  3.17331765 -0.47569781 -4.36016368
  H  1.09896586 -1.14858782 -3.25168545
  H -1.15928680  1.84604881 -0.92361608
  H -0.62627624  3.06538422  1.31814082
  H -1.94310476  3.48201471  2.43359079
  H -2.26738430  3.24899063  0.70360094
