74
opt_min/./Product_2943_opt.xyz
  C  1.00664200 -2.67234300  1.51448100
  C  1.42389250 -2.02207221  0.18880411
  C  1.14234956 -0.53532557  0.22738874
  C  0.03673535  0.21004249  0.35353486
  C -1.43893510 -0.10844713  0.15918550
  C -2.16277246  0.15397857  1.48756360
  C -3.53125179  0.38069702  1.59359221
  C -4.14456137  0.49260922  2.82932082
  C -3.41698498  0.32704800  3.99526983
  C -2.07518250  0.00049604  3.90452175
  C -1.46599024 -0.10062719  2.66659977
  C -1.86458174  0.71179217 -1.05655896
  C -2.85084236  1.69019880 -1.06865939
  C -3.20628391  2.33466522 -2.24225474
  C -2.56754408  2.03847716 -3.43270509
  C -1.52937583  1.12385065 -3.42602492
  C -1.18018127  0.48367353 -2.25059022
  C -1.97169566 -1.56344971 -0.09973902
  C -1.59218143 -2.45769039 -1.28274669
  C -0.43179750 -3.42289980 -1.06321154
  C  0.97752465 -2.84299903 -1.03900755
  C  0.42848632  1.67632514  0.63280071
  C  0.19410947  2.69137141 -0.49797684
  C -0.19758322  2.23471138  1.93049824
  O  0.22812905  2.03529185  3.03182811
  O -1.22888789  3.05764143  1.67788121
  C -1.83674400  3.66474254  2.80987067
  N  1.85159748  1.58401364  0.91522095
  C  2.37789821  0.33775891  0.40438794
  C  3.32170382 -0.27114288  1.47257732
  N  4.50865697 -0.72462303  1.00215582
  C  5.51599598 -1.26092728  1.88762926
  O  2.98413871 -0.38631194  2.62684690
  C  3.12955232  0.68019690 -0.89306062
  O  3.97938571  1.55491602 -0.90651328
  N  2.75235210  0.01508968 -2.00088182
  C  3.29927257  0.31241630 -3.30430054
  H  1.47282596 -2.13176404  2.33383520
  H  1.35037690 -3.70456083  1.53533047
  H -0.06699941 -2.65063540  1.65194150
  H  2.51950439 -2.08895746  0.16183056
  H -4.15942344  0.42885418  0.71613069
  H -5.20594686  0.69050125  2.87709224
  H -3.89576603  0.42262505  4.95878732
  H -1.49366412 -0.18034174  4.79540298
  H -0.42323201 -0.37161493  2.62618454
  H -3.32406320  2.00336869 -0.15256649
  H -3.98231574  3.08575096 -2.22026992
  H -2.85428655  2.53748708 -4.34631462
  H -0.98261713  0.91412821 -4.33424024
  H -0.33259936 -0.18351825 -2.25493117
  H -3.04260806 -1.37720353 -0.22784866
  H -1.87477429 -2.14772856  0.81448023
  H -1.47087159 -1.88798067 -2.20061433
  H -2.46239255 -3.10304001 -1.44155815
  H -0.45534194 -4.13815805 -1.89150618
  H -0.60698463 -3.99539108 -0.15269192
  H  1.65198718 -3.70378798 -1.07319075
  H  1.14346006 -2.28659982 -1.96545107
  H  0.72958084  3.60606599 -0.24565445
  H  0.58658101  2.31323720 -1.44105189
  H -0.85090127  2.94025952 -0.62513849
  H -1.07410544  3.94973293  3.53642051
  H -2.36536279  4.54104342  2.44124805
  H -2.53084356  2.96460914  3.27770089
  H  2.39154804  2.36654650  0.56588816
  H  4.81322923 -0.46076308  0.07976681
  H  6.39360886 -0.61358828  1.92049983
  H  5.07854420 -1.32378988  2.88217765
  H  5.81458948 -2.25687199  1.55548438
  H  1.97842881 -0.62538397 -1.93179648
  H  2.52840729  0.20550313 -4.06449782
  H  4.13162903 -0.35611734 -3.53906759
  H  3.66860299  1.33766320 -3.29472196
