54
opt_min/./Product_2509_opt.xyz
  C -3.69801416  0.98641384 -2.86626005
  O -2.79046705  0.49635891 -1.88742587
  C -2.88320934  1.06794857 -0.68774601
  O -3.76384355  1.79535212 -0.32804184
  C -1.85383323  0.45329422  0.28562466
  C -1.47630005  1.48117560  1.37759495
  O -1.20902212  2.63628799  1.19927881
  O -1.39639881  0.90454777  2.57599930
  C -1.02117606  1.76242021  3.64793865
  C -0.54268118  0.15585097 -0.40568279
  C  0.22080472 -0.95687085 -0.55873434
  C -0.03921650 -2.43871108 -0.60199281
  F -0.72082665 -2.73613759 -1.79661617
  C  1.22922723 -3.16835077 -0.70037859
  N  2.13905423 -3.85526763 -0.75868881
  C -0.78597146 -3.10791375  0.57514170
  C -2.30243437 -3.18377502  0.39596508
  C -2.92423478 -1.85768765 -0.02405613
  C -2.55656259 -0.73766036  0.95405204
  C  1.61577122 -0.49777405 -1.01121283
  C  2.04956256 -1.10519960 -2.25767960
  N  2.32841112 -1.44926885 -3.31094260
  C  2.63786880 -0.73171872  0.13046381
  O  3.63250350 -1.39156080  0.05610708
  O  2.22546606 -0.06738474  1.20844365
  C  3.04273566 -0.12470338  2.37345758
  N  1.49379985  0.95704482 -1.17866237
  N  0.16956397  1.28853751 -0.77346744
  C -0.32642703  2.54693687 -1.18049169
  N  0.63749013  3.48895815 -1.14883406
  C  0.29563191  4.87103489 -1.39958608
  O -1.45110944  2.72180226 -1.58261043
  H -4.72485814  0.74479548 -2.58404648
  H -3.58529045  2.06788415 -2.94589806
  H -3.43106301  0.49769846 -3.79965085
  H -1.72275873  2.59384957  3.72802387
  H -0.01890089  2.16152418  3.48005194
  H -1.04687410  1.15084847  4.54556546
  H -0.41267662 -4.13300969  0.66417405
  H -0.49641961 -2.58483962  1.48818588
  H -2.53650389 -3.93777600 -0.35850456
  H -2.73468535 -3.52576476  1.33949123
  H -2.57225219 -1.60624195 -1.02248325
  H -4.00562001 -1.97881995 -0.08672715
  H -1.90326286 -1.13159975  1.73079645
  H -3.44316330 -0.34694211  1.45447750
  H  3.92884449 -0.72980863  2.17642766
  H  3.32902239  0.89283545  2.63713324
  H  2.45630941 -0.56681046  3.17854759
  H  1.62655333  1.22334129 -2.15820345
  H  1.48226362  3.28807009 -0.63793089
  H  1.20695187  5.44822273 -1.53096815
  H -0.30771702  4.92175485 -2.30460011
  H -0.28936930  5.28510930 -0.57530921
