42
opt_min/./Product_1734_opt.xyz
  C -4.72936701 -0.30251316 -0.93913707
  O -3.43796957 -0.51502463 -0.37976972
  C -2.38851721 -0.26523596 -1.15264310
  O -2.44656012  0.06890667 -2.30270030
  C -1.10448009 -0.41006925 -0.34349533
  C  0.20078121 -0.86321711 -1.04860903
 Cl  0.08873853 -1.23176755 -2.78268793
  C  0.51586978 -2.17299190 -0.26140079
  C -0.55456405 -3.15895243 -0.68913899
  C -1.65555899 -2.76842392 -0.06192695
  C -1.24394689 -1.54713606  0.73546923
  O  0.10230594 -1.82889817  1.04649073
  C  1.19894075  0.33839931 -0.81255681
  C  1.36709002  1.06583045 -2.06959559
  N  1.47212179  1.69404409 -3.01630920
  C  2.55536132 -0.01384814 -0.22689234
  C  3.70747114  0.08404206 -0.99641010
  C  4.93969312 -0.23199747 -0.44841446
  C  5.03234220 -0.64540371  0.86865889
  C  3.88732584 -0.72117909  1.64261841
  C  2.65387191 -0.40442259  1.10365511
  N  0.49558476  1.27890958  0.03094895
  C -0.70042277  0.92277997  0.23341942
  C -1.64928859  1.80375605  0.97865891
  O -1.21178524  3.05253372  0.98949537
  C -1.99724805  4.02731973  1.66592767
  O -2.67471258  1.41305145  1.47870063
  H -5.07622428  0.69273936 -0.65733421
  H -4.68971312 -0.38765380 -2.02647248
  H -5.38518207 -1.05863497 -0.51263504
  H  1.55141329 -2.49569587 -0.29579666
  H -0.40618901 -3.96078502 -1.38281442
  H -2.65201123 -3.15808882 -0.09655981
  H -1.81339620 -1.28111268  1.62000685
  H  3.65130949  0.38789744 -2.03041616
  H  5.82716875 -0.15098811 -1.05781784
  H  5.99289189 -0.89739238  1.29183927
  H  3.94922595 -1.02441466  2.67709535
  H  1.77293770 -0.44290427  1.72355477
  H -1.47691872  4.31756685  2.57990361
  H -2.09279337  4.88567557  1.00275551
  H -2.97852509  3.61779019  1.91419515
