26
opt_min/./Product_3493_opt.xyz
  C -1.29931200  1.35378000 -0.73975200
  C  0.19497687  1.47312332 -0.39072427
  C  0.49831247  0.03726695  0.14374711
  C  1.74208229 -0.12114205  0.98512171
  O  2.80439199  0.32849329  0.32563215
  C  4.05907506  0.18451431  0.98464869
  O  1.75124144 -0.57534525  2.09620258
  N -0.73895846 -0.40795255  0.76816446
  C -1.57202885 -0.12773872 -0.38817771
  C -3.03161821 -0.55259532 -0.18311352
  C -3.22954293 -2.02843264 -0.25585777
  O -3.87804652  0.25767241  0.07723070
  O -0.91075779 -0.90876676 -1.39361881
  C  0.40399613 -0.82238346 -1.13470435
  O  1.26840687 -1.29307111 -1.80053353
  H -1.50434088  1.54734926 -1.79037714
  H -1.93134783  1.99828661 -0.13106109
  H  0.81703184  1.70758516 -1.25136204
  H  0.37993652  2.20770214  0.39184914
  H  4.32626585 -0.86995339  1.06076004
  H  4.00915653  0.60838410  1.98976438
  H  4.78147732  0.71974510  0.37418819
  H -0.99289476  0.12666496  1.59225757
  H -4.27180910 -2.28298034 -0.08566851
  H -2.89676675 -2.39756940 -1.22322310
  H -2.59878532 -2.49359278  0.50173424
