56
opt_min/./Product_5513_opt.xyz
  C  2.37499400 -1.73804300 -1.10428800
  C  1.22865149 -1.15774607 -0.27688363
  C  1.27225961 -1.88125330  1.07809326
  C -0.18424705 -1.22963758 -0.95875697
  C -0.89257319 -2.53686852 -0.59331233
  C -0.06385766 -1.23611479 -2.49629979
  C -0.85375507  0.11739741 -0.45478981
  C -1.39284085  0.04598058  0.97817848
  C -0.94219634  0.91996320  1.96158683
  C -1.46839619  0.89635693  3.24126121
  C -2.48582099  0.01799783  3.56284165
  C -3.00184423 -0.79936346  2.57256979
  C -2.47444567 -0.77147667  1.29457210
  C -2.07844575  0.66573804 -1.17288995
  C -2.44665107  1.97565076 -0.86328106
  C -3.58382783  2.55076175 -1.39408036
  C -4.40488678  1.82001789 -2.23667576
  C -4.07655419  0.50868958 -2.51739992
  C -2.93132157 -0.06396316 -1.98614748
  N  0.25292188  1.08745928 -0.48780732
  C  0.37974634  1.96076741 -1.64123114
  C  1.41558402  0.36662495  0.01883599
  C  2.75321731  0.97304907 -0.38585979
  N  3.40125913  1.56957800  0.64324837
  C  4.66667513  2.24006171  0.45373502
  O  3.22801487  0.95985308 -1.50600846
  H  2.15543111 -2.76575352 -1.38970563
  H  2.58805424 -1.14665331 -1.98817595
  H  3.28090823 -1.74813985 -0.49818737
  H  2.21703259 -1.65441897  1.57148391
  H  1.21787236 -2.95892071  0.95108433
  H  0.46361375 -1.56227907  1.73280447
  H -1.04327796 -2.65921474  0.47284037
  H -0.28579021 -3.36759177 -0.95333018
  H -1.86043497 -2.60726316 -1.08268576
  H -0.95162945 -1.66755680 -2.95068087
  H  0.76879447 -1.84807375 -2.82179738
  H  0.06980812 -0.24572554 -2.90996256
  H -0.18907222  1.65394466  1.72003595
  H -1.08579082  1.57878779  3.98726289
  H -2.89423933 -0.00624463  4.56217569
  H -3.83297508 -1.45451397  2.79032271
  H -2.94129239 -1.37175460  0.53172803
  H -1.83910199  2.54303757 -0.17620774
  H -3.83570821  3.57037677 -1.14002368
  H -5.29755218  2.26274080 -2.65318692
  H -4.71641241 -0.08558718 -3.15376805
  H -2.73268888 -1.09514950 -2.21964453
  H  0.05226174  2.96989900 -1.37051412
  H -0.21985359  1.64978978 -2.49667354
  H  1.41332009  2.02187766 -1.96813555
  H  1.36624711  0.45188198  1.11494471
  H  2.97275795  1.62221593  1.55347359
  H  4.52099618  3.29167524  0.19011235
  H  5.19215800  1.75180800 -0.36652979
  H  5.25951718  2.17487948  1.36359081
