45
opt_min/./Product_4946_opt.xyz
  C -1.61775700  0.61853600 -1.53693000
  C -1.51003466  2.11096793 -1.52502820
  C -0.66798558  2.65165384 -0.64575026
  N  0.03186994  1.90612666  0.25773950
  C  1.16810565  2.48629430  0.92189446
  C -0.40944055  0.59273762  0.66355358
  C -1.67336631  0.10458992 -0.08176487
  C -2.93086569  0.65745504  0.58003582
  N -4.09849005  0.34113208 -0.03504179
  O -2.91129199  1.32870767  1.58807350
  C -1.44037233 -1.44110204 -0.07520016
  C -1.67339503 -2.19547586  1.26258146
  C -2.87058739 -1.86055698  2.10728785
  O -0.92643684 -3.09327278  1.55483246
  C -2.19972836 -2.26642326 -1.11716511
  O -0.06132253 -1.51232599 -0.38985860
  C  0.59560342 -0.60652911  0.47977630
  C  1.96807269 -0.29880824 -0.04223551
  C  2.20051992 -0.16667091 -1.40426621
  C  3.46935586  0.10866271 -1.87833149
  C  4.52743275  0.25077196 -0.99570050
  C  4.30399973  0.11392969  0.36275361
  C  3.03337492 -0.16084190  0.83891150
  H -2.48012279  0.29485396 -2.11951044
  H -0.71803621  0.18584270 -1.98813808
  H -2.15221662  2.70525334 -2.15134635
  H -0.48582929  3.71838333 -0.59701627
  H  1.25636827  2.08656324  1.93442427
  H  2.10055682  2.28897414  0.38535283
  H  1.03201497  3.56833114  0.98936417
  H -0.65423950  0.67431305  1.73796740
  H -4.92586178  0.84713918  0.24071717
  H -4.10658913 -0.09440584 -0.94174383
  H -3.78227325 -1.94790720  1.51991632
  H -2.80741063 -0.84652695  2.48967802
  H -2.90885562 -2.55650667  2.94332161
  H -2.00864631 -1.89338479 -2.11806909
  H -1.82713976 -3.28783405 -1.06327557
  H -3.26754164 -2.26912334 -0.91313115
  H  0.69996351 -1.09461606  1.46535846
  H  1.38148580 -0.29302922 -2.09426875
  H  3.62977401  0.22891346 -2.94071820
  H  5.52631196  0.44509440 -1.36519193
  H  5.12345043  0.21765940  1.05908926
  H  2.86967239 -0.26966820  1.90128618
