61
opt_min/./Product_2726_opt.xyz
  C -2.97844112  1.85515980  2.62768871
  N -2.43571820  1.34039496  1.39233939
  C -1.48867068  0.38582691  1.36655833
  O -1.02762397 -0.11549223  2.36786127
  C -1.05377466 -0.01206237 -0.07164456
  C -0.88260475  1.35809775 -0.75359817
  O -0.00049660  2.13324657 -0.47771714
  O -1.86130918  1.66005036 -1.60614027
  C -1.76327705  2.88922097 -2.31964795
  C  0.26990761 -0.74188344 -0.11533369
  C  0.51784150 -2.07058475 -0.02170860
  C -0.25090071 -3.26603032  0.49629705
  C  0.68889275 -3.98807296  1.34845111
  N  1.41380414 -4.50049173  2.06622492
  C -0.59482760 -4.09975551 -0.64848741
  N -0.96060860 -4.69887648 -1.54918185
  C -1.49469265 -3.03142485  1.39491037
  C -2.83449280 -2.92798710  0.66655629
  C -3.20111292 -1.52878404  0.18051424
  C -2.17638094 -0.85674112 -0.74267672
  C  1.87702531 -2.28700961 -0.51227449
  C  2.58478379 -3.58832809 -0.67984424
  C  4.06804784 -3.51523262 -0.44636827
  O  2.00895307 -4.59253728 -1.01953244
  N  2.44486714 -1.20871594 -0.90395655
  C  1.55058845 -0.10550998 -0.64495536
  C  1.28451403  0.51730651 -2.03528727
  C  2.24263822  1.54715729 -2.53790758
  O  0.35637653  0.12130644 -2.69478976
  C  2.35708440  0.75670763  0.32418335
  C  3.70551512  0.97247303  0.04717301
  C  4.48792651  1.72477076  0.90286881
  C  3.94556414  2.25846582  2.05874529
  C  2.62120551  2.00445165  2.36278181
  C  1.83534528  1.24792318  1.50960077
  H -2.79397761  2.92750180  2.70527937
  H -4.05245657  1.66951583  2.68148154
  H -2.47986897  1.34383934  3.44937728
  H -2.83185096  1.68496803  0.53258735
  H -2.74743803  3.35588275 -2.31242832
  H -1.02569463  3.53757318 -1.84397914
  H -1.46226902  2.66353715 -3.34230920
  H -1.55375554 -3.89125326  2.06914775
  H -1.31542542 -2.14938848  2.01003782
  H -3.61403912 -3.24634681  1.36299550
  H -2.85564681 -3.62253958 -0.17566421
  H -4.13384304 -1.62121246 -0.38144559
  H -3.41371263 -0.90089915  1.04597076
  H -1.71423450 -1.60973639 -1.38314786
  H -2.72504446 -0.19027420 -1.40505887
  H  4.56552661 -3.51456038 -1.41512831
  H  4.34074899 -2.61554219  0.09406954
  H  4.38877044 -4.40469385  0.09085589
  H  1.83385292  1.99140579 -3.44362800
  H  3.18379004  1.05897506 -2.78100407
  H  2.42026804  2.31005005 -1.78614746
  H  4.14886041  0.52202710 -0.82472694
  H  5.53035075  1.88284147  0.66696493
  H  4.55431195  2.84816971  2.72794364
  H  2.19119442  2.38657793  3.27565080
  H  0.82028692  1.04140982  1.78695044
