36
opt_min/./Product_1497_opt.xyz
  F -1.87737449 -2.32916871  1.25855182
  C -0.84889810 -1.48212362  1.44647307
  F -1.10236205 -0.86334914  2.59704306
  F  0.24793492 -2.22258279  1.63654664
  C -0.73142767 -0.56068753  0.23879181
  C  0.32044784  0.58820148  0.24228936
  C  1.05022740  0.92796962  1.54818188
  F  1.88955795 -0.03536020  1.94592179
  F  0.26315707  1.15446361  2.60673259
  F  1.74649069  2.05612867  1.38794191
  C -0.63864765  1.80111201 -0.13926590
  C -1.47951104  2.10275904  1.08396061
  C -2.35693716  1.11267774  1.15372899
  C -2.05871571  0.24115306 -0.04530958
  O -1.57032494  1.16837901 -0.99361160
  C  1.34998953  0.22117165 -0.88519748
  C  2.80704489 -0.04079041 -0.36183151
  C  3.25598690 -1.46532884 -0.27619302
  O  3.51789639  0.89539068 -0.12247710
  C  1.50309535  1.28751352 -1.97758387
  O  0.88644417 -0.96679981 -1.50040909
  C -0.37184073 -1.38628713 -1.04102155
  C -0.33562325 -2.84192967 -0.85770783
  N -0.28560261 -3.97933165 -0.79474769
  C -1.33931733 -1.19921280 -2.13755869
  N -1.99330947 -1.13966419 -3.07021467
  H -0.14248982  2.63595278 -0.61924499
  H -1.32425443  2.93723525  1.73595088
  H -3.12489689  0.90736801  1.86983617
  H -2.87526006 -0.36019424 -0.43726296
  H  3.75409673 -1.61098632  0.68026292
  H  3.99627795 -1.63230434 -1.05707905
  H  2.44954703 -2.18055847 -0.38861699
  H  2.21140606  0.90983338 -2.71113915
  H  0.55480513  1.46397950 -2.48079659
  H  1.89575610  2.20722343 -1.55365172
