49
opt_min/./Product_5391_opt.xyz
  N  1.31052028  1.24142413 -0.93056203
  C  0.12848027  0.43482858 -1.04014785
  N  0.41690004 -0.70945802 -1.87228417
  N -0.94210195  1.27697207 -1.60500687
  C -2.09334874  0.66874339 -2.25412409
  C -0.21445036 -0.05383126  0.44937276
  C -0.40055879  1.17121446  1.38974515
  O  0.13600463  1.21881877  2.47766918
  N -1.26801303  2.09627114  0.95260097
  C -1.50055710  3.30254028  1.71454499
  C -1.47280098 -0.90125961  0.57972786
  C -1.85376979 -1.81091788 -0.40610961
  C -2.99693586 -2.57703665 -0.25620564
  C -3.77859306 -2.46316622  0.87999180
  C -3.38863683 -1.59127619  1.88196790
  C -2.24725657 -0.82302818  1.73426478
  N  0.94345999 -0.79305959  0.94004012
  C  0.97483490 -2.23639651  0.90178632
  C  2.16416565 -0.16669993  1.00294212
  C  3.31065056 -0.72975929  0.27200100
  N  4.52975122 -0.50872924  0.82226905
  C  5.75384580 -0.82242804  0.13031077
  O  3.16223041 -1.32717285 -0.79656763
  C  2.43402649  1.02893108  1.65713589
  N  2.90251530  1.99442425  2.09499915
  H  2.01035929  1.10032003 -1.63743203
  H  1.26295072  2.15173676 -0.50992484
  H  1.31767966 -1.10177655 -1.59776774
  H  0.50217404 -0.41209301 -2.84014161
  H -0.50155999  1.92599735 -2.25161578
  H -2.64092898  0.07216884 -1.53107899
  H -1.83410118  0.03630230 -3.10957214
  H -2.73738002  1.47717306 -2.59985179
  H -1.50426103  2.07027196 -0.03989787
  H -2.35695233  3.82604756  1.29855298
  H -0.62440819  3.95627798  1.70279773
  H -1.70210140  3.03442012  2.75105409
  H -1.22592466 -1.93615446 -1.27043811
  H -3.27506611 -3.27143356 -1.03473159
  H -4.67150629 -3.05980688  0.99238491
  H -3.97231663 -1.51099169  2.78668926
  H -1.95217640 -0.17149558  2.53969537
  H -0.02542357 -2.62086793  1.08198867
  H  1.34516241 -2.63917120 -0.04373700
  H  1.63067378 -2.58237447  1.70279258
  H  4.58139162  0.08500639  1.63615069
  H  6.41994160 -1.38972224  0.78208677
  H  5.49554777 -1.42561530 -0.73863057
  H  6.26566641  0.08547563 -0.19848887
