20
opt_min/./Product_31_opt.xyz
  C -1.49576310  1.96007252 -0.92486685
  C -0.54187585  1.40085119  0.05650096
  C  0.12208254  0.07282005 -0.03015335
  C  0.29471351 -0.71972304 -1.29554887
  F -0.57031473 -1.74152949 -1.37849768
  F  0.09824156  0.01311534 -2.40424435
  F  1.51880008 -1.24821703 -1.40600810
  C  1.12319181  0.14187801  1.15161083
  C  3.32465379  0.50843881  1.98642084
  O  0.69714607  1.30018523  1.85713248
  N -0.19359981  2.03012745  1.10433367
  O  2.46358758 -0.02390914  0.98591245
  C  0.10958005 -0.87567179  1.20836911
  O -0.45644775 -1.84933987  1.56639107
  H -2.37239159  1.31743594 -0.99538670
  H -1.04354841  2.02255753 -1.91227301
  H -1.79328760  2.95091892 -0.59613174
  H  4.31432877  0.15635932  1.70824301
  H  3.29300723  1.59986972  1.98562075
  H  3.05472091  0.13614428  2.97695119
