52
opt_min/./Product_1697_opt.xyz
  C  2.52535600 -0.88187000 -3.25548500
  N  1.78613069 -0.73530979 -2.02704845
  C  2.17617602  0.12517210 -1.06377560
  O  3.19567168  0.76731952 -1.10693102
  C  1.26685600  0.11642421  0.18961165
  C -0.13694083  0.79964910  0.07737629
  C -0.22811251  1.75513450 -1.12225781
  O  0.61162669  1.77834069 -1.99549305
  N -1.25813036  2.62464982 -1.08010092
  C -1.50567151  3.56115083 -2.14931101
  C -0.13433878  1.64032418  1.37825055
  C -0.02525737  0.79662869  2.66173071
  C  1.44728960  0.33708559  2.68290092
  C  1.96444664  0.86731482  1.34749654
  C  1.27911610  2.23044850  1.29142066
  C -1.11197731 -0.43299058 -0.04423706
  C -1.58125372 -0.71281396 -1.47924660
  C -1.76379252 -2.16407982 -1.83316534
  O -1.85078224  0.17402852 -2.24778995
  C -2.41047913 -0.33877017  0.80832373
  C -3.57809118  0.38097760  0.20024401
  O -2.47787205 -0.88368522  1.87624911
  N -0.35748808 -1.57333295  0.41690389
  C  0.87755240 -1.29032401  0.52930627
  C  1.87226932 -2.33949825  0.89896703
  C  1.27762829 -3.57336805  1.51695839
  O  3.04987707 -2.19301936  0.68325034
  H  3.12025520 -1.79846723 -3.24424491
  H  1.84401209 -0.89269397 -4.10579411
  H  3.19091898 -0.02494369 -3.34052760
  H  0.93308603 -1.25873479 -1.92521482
  H -1.95633929  2.56421731 -0.35837949
  H -1.63003528  4.56790399 -1.74794070
  H -2.39792917  3.27770857 -2.71036576
  H -0.63987656  3.53834704 -2.80788368
  H -0.93806159  2.37540115  1.43043703
  H -0.25050418  1.42939686  3.52057757
  H -0.70823928 -0.04664449  2.68727926
  H  1.99648216  0.80384650  3.50137877
  H  1.54669314 -0.74192367  2.79290733
  H  3.04579336  0.86853285  1.23254732
  H  1.52418458  2.85741701  2.14644779
  H  1.47660962  2.76577616  0.36667524
  H -1.28287771 -2.81846715 -1.11356420
  H -1.39177417 -2.33736520 -2.84117777
  H -2.83314169 -2.37386271 -1.84425363
  H -4.22554327 -0.37390390 -0.25047572
  H -3.30514105  1.08069476 -0.58248660
  H -4.15540563  0.87110104  0.98175959
  H  0.94936499 -4.23495860  0.71703467
  H  2.02753401 -4.08949749  2.11089802
  H  0.40890965 -3.32349399  2.11881426
