55
opt_min/./Product_5756_opt.xyz
  C -0.09734800  1.58395300  0.52083300
  O -0.95606174  2.07522407  1.22323094
  C  0.87500376  0.52634615  1.07319800
  O  2.09512323  1.16719582  1.38659197
  C  1.99742434  2.31666896  2.20574615
  C  1.11045647 -0.58199716  0.00839578
  O  2.02060911 -1.57491209  0.42586371
  C  3.40657327 -1.28226053  0.48685030
  C  1.50638186  0.01669837 -1.33060716
  O  2.32955482 -0.51675085 -2.04041315
  C  0.88976099  1.30669206 -1.70993299
  C  1.16032588  1.74510484 -3.11085016
  C  0.14885063  2.03896896 -0.85253389
  C -0.51010644  3.32178349 -1.24873325
  C -0.27590446 -1.31814054  0.05648791
  C  0.02450943 -2.78380320 -0.39503671
  C  0.10525224 -3.81338540  0.69366986
  O  0.17246812 -3.07075581 -1.55188775
  C -1.29889595 -0.67694792 -0.87573582
  C -1.13183267 -0.73836737 -2.25880094
  C -2.04365165 -0.14396538 -3.11210635
  C -3.13713696  0.53847248 -2.60757088
  C -3.30796807  0.61386533 -1.23887682
  C -2.39987720  0.01327122 -0.38265748
  N -0.58339936 -1.24312545  1.46361682
  C -1.77666265 -1.77480869  2.06087094
  C  0.16971820 -0.25527426  2.20319576
  C  1.12752962 -0.88999364  3.21854131
  H  1.46318196  3.12971405  1.70599410
  H  1.49741978  2.09761761  3.15304511
  H  3.02536964  2.62185138  2.39417157
  H  3.80975366 -1.02490383 -0.49400962
  H  3.86180407 -2.20927360  0.83238571
  H  3.61395294 -0.47540549  1.19048671
  H  0.29951420  2.24748385 -3.54322282
  H  2.00343118  2.43741403 -3.11775890
  H  1.43261657  0.88563141 -3.71844295
  H -1.05680192  3.72591296 -0.40019221
  H  0.22719759  4.04823255 -1.58668436
  H -1.21292646  3.14463514 -2.06261589
  H  0.64118887 -4.67947341  0.31289377
  H -0.90100252 -4.11705663  0.97357457
  H  0.60358650 -3.40755802  1.56563109
  H -0.29627846 -1.27091824 -2.67945263
  H -1.89200267 -0.21191859 -4.17961519
  H -3.84613029  1.00697919 -3.27465193
  H -4.14970023  1.14862595 -0.82389191
  H -2.55319708  0.11947533  0.67632202
  H -2.39614578 -0.98329781  2.50262019
  H -1.52346994 -2.47893275  2.86322224
  H -2.36615989 -2.29727218  1.31073071
  H -0.51499723  0.42110201  2.73831539
  H  1.57059569 -1.78726092  2.79838981
  H  0.59025350 -1.14731977  4.12814974
  H  1.92940879 -0.20117755  3.46933723
