55
opt_min/./Product_2513_opt.xyz
  C  3.72146721  2.88258370 -1.15267017
  N  3.08084342  1.60740914 -0.92586640
  C  2.67714464  1.22806626  0.30078333
  O  2.87163381  1.89199477  1.29465211
  C  1.98289727 -0.16496751  0.35355993
 Cl  2.22532493 -0.72894185  2.06067367
  C  0.50736595  0.04772127  0.17673694
  C -0.52589404 -0.69841146 -0.22021634
  C -0.66399409 -2.16270545 -0.56070868
  C -0.72495281 -2.25821777 -2.01223204
  N -0.78583686 -2.29946981 -3.15193145
  C -1.93643842 -2.73358293 -0.10283646
  N -2.78904305 -3.40905240  0.25018890
  C  0.37141070 -3.14825190  0.05105922
  C  1.63067300 -3.40789368 -0.77691993
  C  2.82385786 -2.57556574 -0.33743069
  C  2.69546408 -1.08736798 -0.65745555
  C -1.75722462  0.19957540 -0.41738771
  C -3.09434674 -0.39895103 -0.08494120
  C -3.48577023 -0.59082227  1.23525578
  C -4.71489850 -1.15385328  1.52482300
  C -5.56599960 -1.52546171  0.49893409
  C -5.19042960 -1.32275213 -0.81812975
  C -3.96419254 -0.75648609 -1.10970518
  N -1.47250232  1.39869783  0.35708396
  C -0.01101722  1.45889517  0.50106164
  C  0.38370950  2.49379664 -0.58711063
  N  0.51611000  3.74157029 -0.12256772
  C  0.64842885  4.89108591 -0.98539957
  O  0.44332900  2.17271995 -1.75581345
  C  0.28664685  1.87722314  1.85190133
  N  0.32604274  2.21821546  2.94365771
  H  3.10887958  3.50529943 -1.80432353
  H  4.69622740  2.72747279 -1.61768249
  H  3.85566419  3.37028522 -0.18874339
  H  2.72179968  1.14268913 -1.74439543
  H -0.14404745 -4.10422175  0.17021887
  H  0.63374425 -2.78516838  1.04577250
  H  1.89746589 -4.46012597 -0.66383722
  H  1.42992383 -3.23835015 -1.83719680
  H  2.99121270 -2.71191517  0.73068890
  H  3.70617959 -2.94946114 -0.85973186
  H  3.71238225 -0.70516217 -0.75948297
  H  2.18936868 -0.97730792 -1.62120967
  H -1.74591092  0.48808156 -1.48198314
  H -2.82176007 -0.33662460  2.05139235
  H -5.00177483 -1.30918333  2.55357268
  H -6.52080952 -1.97431946  0.72628803
  H -5.85259446 -1.60844549 -1.62112034
  H -3.66746225 -0.59900558 -2.13744777
  H -1.91322786  1.33110297  1.27097889
  H  0.59107938  3.88880466  0.87340885
  H  1.60646338  5.38802576 -0.82627206
  H -0.15786634  5.59824932 -0.78764755
  H  0.57868179  4.54492420 -2.01513777
