57
opt_min/./Product_2330_opt.xyz
  C -4.57512500 -0.17778700  0.15564100
  N -3.22783971 -0.41222545 -0.31244829
  C -2.20078016  0.33389800  0.13218844
  O -2.37976673  1.29791399  0.85200920
  C -0.80126178 -0.20088048 -0.23731721
  C  0.36902283  0.83267106 -0.57584770
  O  0.09656779  2.19187011 -0.71398417
  C -0.25274453  3.05461091  0.35433171
  C  0.80518341  0.37448669 -1.99229630
  C -0.29410031  0.75838383 -2.98880573
  C -1.41289501 -0.24885286 -2.67368528
  C -0.82521217 -1.07361384 -1.51529604
  C  0.64331903 -1.13869736 -1.92441250
  C  1.46768863  0.50014420  0.50194025
  C  2.18491926  1.70973360  1.13435518
  O  2.06406637  1.68633237  2.45867352
  C  2.77591337  2.68530027  3.18088654
  O  2.85959776  2.49043255  0.52237958
  C  2.72194863 -0.29226401  0.03862271
  O  3.08193245 -1.29214552  0.60314943
  O  3.38866967  0.29733672 -0.93456162
  C  4.62489856 -0.28252966 -1.34330462
  O  0.84831043 -0.24153613  1.51950131
  C -0.31386629 -0.91164779  1.07245388
  C -1.39993838 -0.85906411  2.19973683
  C -1.09265766 -0.00636363  3.38966740
  O -2.38719786 -1.54253403  2.11436288
  C -0.10293661 -2.43933618  1.00839805
  C  0.95742570 -2.95806104  1.92532601
  O -0.81435559 -3.14998086  0.34572759
  H -4.83090349 -0.87891249  0.95183091
  H -5.27280179 -0.29209703 -0.67366664
  H -4.62685026  0.83676815  0.54537014
  H -3.04537104 -1.33749010 -0.66498905
  H -1.27770517  2.90131688  0.68383890
  H -0.13845746  4.05361032 -0.06536120
  H  0.40832651  2.95621203  1.21444423
  H  1.77148627  0.78518584 -2.26556654
  H -0.60521212  1.78974075 -2.85144945
  H  0.07802945  0.64100597 -4.00658350
  H -1.60949583 -0.90274504 -3.52382945
  H -2.34083020  0.25288661 -2.41281060
  H -1.29496055 -2.04431919 -1.37733603
  H  1.26592162 -1.63349928 -1.18421469
  H  0.78783148 -1.62371165 -2.88750501
  H  2.83294424  3.60611049  2.59732889
  H  3.78569805  2.33053217  3.39444438
  H  2.23074066  2.84661829  4.10814489
  H  4.47055804 -0.81771411 -2.28124972
  H  5.32485636  0.53763382 -1.49045446
  H  4.98809691 -0.97148833 -0.57914020
  H -1.91404288  0.69825837  3.50768681
  H -0.15503142  0.52491221  3.27671309
  H -1.06543039 -0.63999877  4.27464218
  H  0.71698938 -3.97835410  2.21435490
  H  1.08056622 -2.31574747  2.79116832
  H  1.90537790 -2.96316917  1.38829482
