37
opt_min/./Product_4141_opt.xyz
  C  1.21675858 -1.90316425  1.14713904
  C  0.77605694 -1.32011148 -0.20063707
  C  1.30603561 -2.20047566 -1.33015343
  C -0.77246633 -1.18821099 -0.30199558
  C -1.52137273 -2.35420407  0.26762858
  O -1.90680333 -3.29063959 -0.37390114
  C -1.04893560  0.16695238  0.37813874
  C -1.09968155  0.07281029  1.82509624
  N -1.15595562  0.08198245  2.96900897
  C -2.39330735  0.78423772 -0.10030424
  O -2.44031588  1.75475411 -0.81234538
  N -3.47473936  0.10736862  0.32923906
  C -4.81271544  0.53631427 -0.01619561
  N  0.05111497  0.98001239 -0.10128857
  C  1.21454724  0.16055761 -0.39984054
  C  2.41203638  0.58743534  0.44966664
  N  3.55744909  0.76632849 -0.23689243
  C  4.75895487  1.21609699  0.43250910
  O  2.32457722  0.80528894  1.64105571
  H  2.21561675 -2.32494851  1.05492007
  H  0.55102022 -2.70041751  1.46538404
  H  1.24564818 -1.14852619  1.92889327
  H  0.98825753 -1.82858264 -2.30206439
  H  0.93420384 -3.21625089 -1.21512649
  H  2.39325965 -2.22636553 -1.30685614
  H -1.02634174 -1.09339495 -1.36269867
  H -1.70824999 -2.29482006  1.35991803
  H -3.38134736 -0.65043631  0.98571875
  H -5.13943879  1.35461579  0.62947974
  H -5.49615678 -0.30198250  0.08710955
  H -4.81424426  0.89057077 -1.04577380
  H  0.24796782  1.78119421  0.48472361
  H  1.46589376  0.31145547 -1.46000475
  H  3.59135783  0.60966165 -1.22962695
  H  5.54685564  1.36150393 -0.30033794
  H  5.07718474  0.48220720  1.17501127
  H  4.56546299  2.15409688  0.95479711
