39
opt_min/./Product_686_opt.xyz
  C  1.23630119  4.39197317 -0.27176220
  N  0.66612043  3.10200259  0.04787166
  C  1.46243316  2.08781429  0.47148989
  O  2.66726353  2.22937988  0.55610643
  C  0.73604761  0.84638808  0.79582540
  C  1.08390210 -0.46139611  0.79548918
  C  2.27678094 -1.19043262  0.41785878
  C  2.17173037 -2.53211664  0.02959850
  C  3.29485309 -3.24780014 -0.33473388
  C  4.54580548 -2.65222153 -0.30580133
  C  4.66161812 -1.32858969  0.08504519
  C  3.54271277 -0.60033880  0.44175605
  C -0.19626163 -1.18507249  1.20374147
  C -1.10102497 -1.13262737 -0.07008466
  C -1.50976630  0.35991101 -0.07384499
  C -0.74110528  0.85034339  1.18998924
  O -0.83236340 -0.26300117  2.05260022
  C -3.04531876  0.26066653  0.09839144
  C -3.82650233  0.69757594 -1.14688480
  C -3.54123469  0.97525333  1.24877395
  N -3.92655120  1.57379931  2.14343554
  N -3.30233598 -1.18534825  0.28798052
  N -2.31580336 -1.87155018  0.15618079
  H  2.09176364  4.25482878 -0.93456120
  H  0.48709320  5.00959785 -0.75830298
  H  1.59094120  4.88953895  0.63385128
  H -0.33177923  2.99793705  0.00083632
  H  1.20762335 -3.01695654 -0.00425489
  H  3.19285110 -4.27961403 -0.63823185
  H  5.42258348 -3.21719117 -0.58480774
  H  5.63265893 -0.85714828  0.11411839
  H  3.63797777  0.43087108  0.73976811
  H -0.11350646 -2.15961586  1.67295365
  H -0.59813801 -1.51464762 -0.95750977
  H -1.23074633  0.90555967 -0.97511157
  H -1.13002567  1.73941199  1.68072497
  H -3.74770162  1.77436748 -1.28295860
  H -4.87441359  0.43096386 -1.02976657
  H -3.43216300  0.19144276 -2.02613027
