34
opt_min/./Product_4006_opt.xyz
  C  1.68252500  1.13473500  0.72258900
  C  0.59948454  0.37419739  1.50192861
  C -0.27959447 -0.53965810  0.63228763
  N  0.37973493 -1.14940070 -0.46969771
  C -0.32273863 -2.18306277 -1.18892282
  C  1.63198844 -0.77854837 -0.83187079
  C  2.33439295  0.23590001 -0.28985670
  C  3.70205416  0.44390045 -0.78378222
  N  4.32103502  1.58878068 -0.38110834
  O  4.27225128 -0.35926013 -1.50197649
  C -1.48375525  0.41534227  0.33023951
  C -2.74766998 -0.45069611  0.20563915
  O -3.43873161 -0.19315221 -0.89799211
  C -4.63143960 -0.94432142 -1.10460423
  O -3.04061327 -1.29300932  1.00940895
  C -1.24641307  1.36681770 -0.84483354
  O -1.61570621  1.09175866  1.55891245
  O -0.29831688  1.28502551  2.10332263
  H  2.39937582  1.52665260  1.44606595
  H  1.21872261  1.98758916  0.21834377
  H  1.07315821 -0.22487497  2.28930044
  H -0.69977825 -1.32125742  1.28736695
  H  0.38181792 -2.94676260 -1.51901886
  H -1.05444329 -2.64919702 -0.52907808
  H -0.84494977 -1.78208163 -2.06337753
  H  2.09677656 -1.38360132 -1.59699417
  H  5.23025866  1.78803804 -0.76221984
  H  3.82476015  2.33554928  0.06858938
  H -4.54744193 -1.92142392 -0.62606537
  H -5.47860410 -0.40521102 -0.67770765
  H -4.75443465 -1.04707871 -2.18053676
  H -0.84216824  2.29969774 -0.45960756
  H -2.17534056  1.58656377 -1.36065490
  H -0.54006669  0.93543668 -1.55076399
