37
opt_min/./Product_293_opt.xyz
  C  4.58453302 -0.51743105 -0.52453498
  O  3.63114101  0.46016004 -0.90401190
  C  2.48464713  0.45630871 -0.17051212
  C  1.95599406  1.41448865  0.59398647
  C  2.45448513  2.76480446  0.95454296
  C  0.59836949  0.85991547  0.99167816
  C -0.24432085  1.02240311 -0.31333142
  C  0.28108869 -0.17754183 -1.10968495
  C  1.44056883 -0.65998614 -0.20927830
  O  0.84053429 -0.53417217  1.07022739
  C -0.88634505 -1.19477870 -1.01497363
  C -0.92340277 -2.06101484 -2.16590479
  N -0.90351566 -2.75157650 -3.07760216
  N -2.11882413 -0.46375499 -0.73590779
  C -3.15365902 -0.51823411 -1.75107409
  C -1.78060187  0.86764933 -0.25442929
  C -2.30596649  1.16645055  1.14787512
  C -2.93644196  0.01591834  1.87073846
  O -2.17199308  2.26505450  1.62695115
  H  5.42294126 -0.38884200 -1.20663207
  H  4.18739519 -1.53204997 -0.62108757
  H  4.91840023 -0.36045949  0.50514107
  H  3.03067199  3.18756821  0.13486515
  H  1.62253965  3.42338478  1.19275127
  H  3.10205523  2.70269599  1.82961021
  H  0.15720663  1.23322527  1.91055233
  H  0.00625851  1.99044223 -0.75093084
  H  0.54847244  0.03570697 -2.14404253
  H  1.79762491 -1.66959647 -0.39890407
  H -0.69565069 -1.83428091 -0.13339922
  H -3.76346135  0.38228063 -1.70725992
  H -2.75236673 -0.61507421 -2.76609454
  H -3.80133273 -1.37726553 -1.55942289
  H -2.20417068  1.63173459 -0.92349225
  H -3.49478561 -0.61343453  1.18673569
  H -2.13469604 -0.58412045  2.30089925
  H -3.56701477  0.38319264  2.67659831
