60
opt_min/./Product_2789_opt.xyz
 Cl -0.42004400 -0.70469900  2.32043500
  C -0.20872871  0.40425061  0.95393933
  C -1.36340599  0.38713031 -0.11159645
  C -2.47876582 -0.57492662  0.23302629
  C -3.76988251 -0.18022895  0.56711560
  C -4.73342817 -1.11708458  0.90317675
  C -4.43488562 -2.46668434  0.92527232
  C -3.14873858 -2.87199449  0.61787672
  C -2.18865468 -1.93634861  0.28103392
  C -1.84847954  1.88057456  0.05530531
  C -0.78455133  2.87839374 -0.35186445
  C  0.10106984  2.87290825  0.63445278
  C -0.42244855  1.83308380  1.59805938
  O -1.82136623  1.98997069  1.46815144
  C -0.60321650  0.22166862 -1.46106805
  C -1.18934942  1.11023267 -2.59371987
  C -2.66931391  0.98391992 -2.84771668
  O -0.47830619  1.81115947 -3.25415871
  C -0.42020041 -1.08229754 -2.29196659
  C -1.55567975 -2.04477984 -2.53127051
  O  0.63277249 -1.23144774 -2.84918957
  O  0.68231427  0.73078168 -1.16359977
  C  1.09783627  0.24397043  0.11380915
  C  1.74937059 -1.13317204 -0.10795598
  C  2.84472240 -1.11231138 -0.97092687
  C  3.51396472 -2.27045874 -1.31049869
  C  3.11122979 -3.48657186 -0.78833471
  C  2.02711952 -3.52221741  0.06511770
  C  1.34776090 -2.36014798  0.39878800
  C  2.21047553  1.12456666  0.64847172
  C  2.61046288  0.99556758  1.97216263
  C  3.65900643  1.75617064  2.45867724
  C  4.32602218  2.63757014  1.62527232
  C  3.94205138  2.75275291  0.29994461
  C  2.89106184  1.99837497 -0.19005192
  H -4.05210767  0.85772471  0.60613258
  H -5.72582578 -0.77816627  1.16089836
  H -5.18941396 -3.19115275  1.19193346
  H -2.88487308 -3.91879918  0.64388879
  H -1.19059312 -2.27057662  0.05579219
  H -2.83446458  2.09168085 -0.34508430
  H -0.77993262  3.43523890 -1.26608364
  H  0.96262339  3.48746109  0.78683706
  H -0.11492842  1.90372689  2.63717317
  H -3.10661663  1.98129703 -2.83502607
  H -2.81188031  0.59042784 -3.85364571
  H -3.17930713  0.35446929 -2.12739188
  H -1.53954302 -2.30886586 -3.58862528
  H -2.53187024 -1.67135116 -2.25317496
  H -1.34752476 -2.95786251 -1.97826249
  H  3.15589784 -0.17846728 -1.40821036
  H  4.35217847 -2.22023205 -1.98919186
  H  3.63418743 -4.39565732 -1.04589279
  H  1.69438192 -4.46250774  0.48135962
  H  0.52240443 -2.44448498  1.08030240
  H  2.10945074  0.29422904  2.62217542
  H  3.95917853  1.65445795  3.49115439
  H  5.14620874  3.22815239  2.00627544
  H  4.46302650  3.43396251 -0.35676283
  H  2.57549112  2.09559952 -1.21672660
