35
opt_min/./Product_3440_opt.xyz
  C -1.07222990 -1.92078943  0.35897181
  C -0.49351439 -0.71363888 -0.38358255
  C -0.53363378 -1.08186487 -1.87283299
  C  0.97349487 -0.37462688  0.06791921
  C  1.20722613 -0.64606624  1.55785558
  C  2.06925649 -1.12296567 -0.69595008
  C  1.01859612  1.15304828 -0.21667181
  C  2.04315579  1.97484047  0.56504199
  C  1.28463307  1.42587408 -1.62857760
  N  1.46712281  1.74616990 -2.71205787
  O -0.27766948  1.63752884  0.09413419
  C -1.27478414  0.62460056 -0.09506419
  C -2.20470530  1.08104727 -1.22529562
  C -2.10449442  0.59892545  1.19203919
  H -1.14428342 -1.76832167  1.42865881
  H -0.44604941 -2.79110613  0.18040756
  H -2.06115218 -2.14694264 -0.02799681
  H  0.02273169 -1.99884483 -2.04036861
  H -1.55633577 -1.25919708 -2.18928335
  H -0.10796574 -0.30859362 -2.50098388
  H  0.48838570 -0.13341543  2.18507964
  H  2.20032208 -0.32215722  1.85458701
  H  1.14027500 -1.71510965  1.74675060
  H  1.94980653 -2.19454582 -0.56947089
  H  3.04224491 -0.85185714 -0.29273140
  H  2.07400245 -0.89046626 -1.75571183
  H  2.02950529  2.99906838  0.20314278
  H  1.78179663  1.98502192  1.61766589
  H  3.04314233  1.57333798  0.42582493
  H -2.62649586  2.04036531 -0.93713330
  H -1.66605901  1.23066836 -2.15214599
  H -3.01209121  0.37255408 -1.37755689
  H -2.52825429  1.58626040  1.35297148
  H -2.91659503 -0.11500340  1.11483878
  H -1.49668791  0.36389564  2.05823173
