49
opt_min/./Product_5766_opt.xyz
  C  1.42939534 -0.85342764  0.51474298
  O  2.00750052 -1.83494476  0.94263566
  C  1.49284690  0.44970873  1.15686722
  O  2.13552111  0.66472062  2.32476923
  C  2.88087375 -0.34552001  2.97634256
  C  0.91718410  1.58069082  0.61051787
  O  1.13029709  2.71234286  1.31266531
  C  0.59899272  3.95807321  0.90522447
  C  0.19760512  1.54854608 -0.65643204
  O -0.05706995  2.54941351 -1.29977825
  C -0.28318115  0.18961175 -1.15072800
  C -0.54054753  0.33774049 -2.65355550
  C  0.55684142 -1.03737502 -0.74242121
  C  1.44459551 -1.69008561 -1.80446014
  C -0.56548317 -1.96826412 -0.17835906
  C -0.16012049 -3.21118543  0.41048905
  N  0.05182739 -4.25739706  0.82005185
  N -1.23915193 -0.98798187  0.67596096
  C -2.26294435 -1.48450886  1.58784217
  C -1.66054865 -0.14338072 -0.40726205
  C -2.50514984  1.03442263 -0.06253130
  C -2.27280109  1.71642172  1.12808628
  C -3.01447133  2.84282747  1.43284380
  C -3.98657834  3.29452219  0.55514084
  C -4.23109857  2.60400839 -0.61822765
  C -3.49571628  1.47273790 -0.92932863
  O -2.34277447 -1.05536395 -1.32362908
  C -1.62144244 -2.17547260 -1.30750488
  O -1.76628914 -3.11357807 -2.02706612
  H  3.28942897  0.14232590  3.86089299
  H  3.69483704 -0.71648424  2.35087327
  H  2.25283775 -1.18722900  3.27396392
  H  0.96325067  4.66726083  1.64725082
  H  0.93811854  4.24961007 -0.08815526
  H -0.49483040  3.93964928  0.91203584
  H -0.79069833 -0.60306098 -3.13512180
  H  0.33681094  0.76576002 -3.13300928
  H -1.37021334  1.02607480 -2.80175532
  H  1.50903632 -2.75818769 -1.61059150
  H  1.06583535 -1.54136101 -2.80885454
  H  2.44764788 -1.27259375 -1.74786314
  H -2.37239073 -2.56715601  1.50524893
  H -3.22795258 -1.02256468  1.37579984
  H -1.96861484 -1.24247536  2.60996741
  H -1.52103004  1.34925169  1.81028623
  H -2.83158966  3.36561706  2.36011046
  H -4.55791987  4.18014373  0.78948813
  H -4.99615673  2.94503472 -1.29894371
  H -3.69864086  0.92312694 -1.83483100
