29
opt_min/./Product_3801_opt.xyz
  O -1.50153600  2.41672200 -0.36579800
  C -1.78749779  2.53207773  0.73334361
  O -2.06989801  2.65189033  1.83712404
  C -1.14940263 -0.73639107  1.13748242
  C -2.23361366 -1.39410819  0.72032174
  C -4.30607709  0.31500946  2.08689488
  O -4.38617621  0.89316206  1.10118659
  O -4.27012782 -0.25303369  3.07780567
  C -2.10048219 -1.61299160 -0.76051628
  C -3.26185488 -1.07474890 -1.61604326
  N -0.85381801 -0.99069896 -1.11307091
  C -0.32379652 -0.49719844 -0.04885975
  C  0.94628362  0.21816682 -0.07215395
  C  1.43202411  0.89086412  1.04941097
  C  2.63186209  1.57420762  0.98478173
  C  3.36291214  1.59645222 -0.19202751
  C  2.88426021  0.93154805 -1.31054839
  C  1.68577942  0.24874369 -1.25467262
  H -0.91884180 -0.41290310  2.13478419
  H -3.06001439 -1.76889180  1.29261726
  H -1.98191372 -2.68815871 -0.95054269
  H -3.75809015 -1.87203459 -2.15985185
  H -2.86275873 -0.35843894 -2.32744343
  H -3.98802258 -0.56753887 -0.98744464
  H  0.87433899  0.88825941  1.97351983
  H  2.99936195  2.09341005  1.85844339
  H  4.30000347  2.13046039 -0.23666599
  H  3.45211109  0.95001025 -2.22971187
  H  1.29338888 -0.27072728 -2.11362228
