70
opt_min/./Product_2858_opt.xyz
  C  3.15624498 -0.53782387 -1.73177574
  C  2.73503342 -0.58029368 -0.25633437
  C  3.86160801 -0.17688736  0.69990172
  C  3.54262831  0.14810609  2.01644009
  C  4.53082767  0.44632228  2.93560289
  C  5.86313217  0.40878780  2.55999308
  C  6.19411176  0.06138642  1.26271055
  C  5.20300983 -0.23474552  0.34146997
  C  1.61672548  0.41962182 -0.05711941
  C  0.26982904  0.35798653  0.06407524
  C -0.86051972 -0.60272156 -0.23602570
  C -1.57845844 -0.76733909  1.10262994
  C -0.85421480 -1.32510962  2.15486686
  C -1.41519672 -1.50984777  3.40249428
  C -2.71788040 -1.10819881  3.64253730
  C -3.43006218 -0.49850301  2.62833731
  C -2.86623314 -0.32358424  1.37397172
  C -1.68660543 -0.00851595 -1.39165244
  C -1.04029730  0.73934246 -2.37099489
  C -1.71026023  1.18312405 -3.49578389
  C -3.04674628  0.87530576 -3.67590202
  C -3.68438475  0.07329667 -2.74773941
  C -3.00441014 -0.38466034 -1.63195090
  C -0.60564046 -2.00187076 -0.88052862
  C  0.24870592 -3.10846343 -0.27392460
  C  1.71900222 -3.02381242 -0.64225427
  C  2.52641790 -2.04613932  0.20339886
  C -0.16814720  1.73043878  0.63025314
  C -0.51510435  1.61178664  2.02711169
  N -0.71057534  1.61858510  3.15590711
  C -1.23918164  2.55628010 -0.13843663
  O -0.98671943  3.11285947 -1.17794543
  N -2.43754594  2.61506353  0.46874101
  C -3.51434076  3.39631670 -0.09493563
  N  1.01823241  2.55207460  0.60107303
  C  1.98730595  1.84190295  0.17091555
  C  3.25159828  2.54521214 -0.17654960
  H  3.85203338 -1.34119478 -1.96188127
  H  3.62473117  0.41269679 -1.97310929
  H  2.28053738 -0.64828642 -2.36906072
  H  2.50766007  0.17656597  2.32889258
  H  4.25875346  0.70618394  3.94758997
  H  6.63710092  0.64257805  3.27568017
  H  7.23033504  0.01992966  0.95922551
  H  5.49211593 -0.50201514 -0.66288556
  H  0.18568536 -1.57207462  2.01182430
  H -0.82778516 -1.94686247  4.19513640
  H -3.16256771 -1.24831350  4.61630973
  H -4.43508549 -0.14369723  2.80892669
  H -3.44269228  0.19040124  0.62246669
  H  0.00596497  0.98025347 -2.25678452
  H -1.18395641  1.77408812 -4.22934737
  H -3.57693386  1.23173997 -4.54666446
  H -4.71439153 -0.21804074 -2.89569223
  H -3.50936345 -1.07359157 -0.97155839
  H -1.61407782 -2.41228049 -0.98142574
  H -0.23558731 -1.82930535 -1.89561838
  H  0.12356549 -3.17524353  0.80512220
  H -0.13918019 -4.04450691 -0.68647434
  H  2.15179627 -4.01610017 -0.49034928
  H  1.82311332 -2.79164438 -1.70144503
  H  3.54341107 -2.44888178  0.26428217
  H  2.14063382 -2.04643626  1.22416767
  H -2.55414241  2.24551504  1.39992706
  H -4.46679272  2.98023244  0.22584696
  H -3.43728902  3.35053616 -1.18071561
  H -3.45062766  4.44244136  0.21434308
  H  4.14396339  2.06665671  0.20970524
  H  3.32540493  2.60307655 -1.26290550
  H  3.18034663  3.55776922  0.21222289
