39
opt_min/./Product_805_opt.xyz
  C  4.96899237  2.06846931  0.81369844
  N  3.84622472  1.20923488  0.52521041
  C  3.32028528  0.38738703  1.46868402
  O  3.76926249  0.30073768  2.59326986
  C  2.14621278 -0.39077910  1.02892294
  C  1.32976305 -1.12193698  1.81088118
  C  1.37021919 -1.35574910  3.19159326
  N  1.37299505 -1.61340979  4.30848916
  C  0.22132667 -1.61031545  0.89333855
  C -0.65635687 -0.34067265  0.64952031
  C  0.26908921  0.46611013 -0.27668584
  C  1.51716311 -0.47048984 -0.34515248
  O  0.90735066 -1.75082081 -0.33989993
  O -0.37081939  0.55285145 -1.54184731
  N -1.37546772 -0.44532251 -1.62236012
  C -1.88165212 -0.57297678 -0.25670703
  C -2.92601502  0.55737590  0.04571642
  N -3.25862034  1.27496176 -1.03377193
  C -4.19467391  2.37242500 -0.97542220
  O -3.37719032  0.71813135  1.15532060
  C -2.66373407 -1.85748040 -0.03052090
  C -3.56666721 -2.23138841 -1.17271819
  O -2.57986901 -2.48597273  0.99047003
  H  5.44512293  1.69866091  1.72172211
  H  5.67985780  2.04671824 -0.01210981
  H  4.63831993  3.09676422  0.98690896
  H  3.41599512  1.29536901 -0.38097084
  H -0.31285813 -2.50589708  1.18210588
  H -0.94871153  0.11836875  1.59285550
  H  0.50783521  1.48585202  0.02432087
  H  2.12780632 -0.34049569 -1.23237886
  H -0.90055015 -1.32510577 -1.84888724
  H -2.74763619  1.11966128 -1.89066046
  H -3.68739225  3.31511710 -0.75020850
  H -4.90889183  2.17048385 -0.17713899
  H -4.71454610  2.45946996 -1.92686565
  H -3.02801171 -2.92733935 -1.81848519
  H -4.45046876 -2.74101619 -0.79624171
  H -3.83286039 -1.35664198 -1.75764560
