46
opt_min/./Product_5196_opt.xyz
  C  2.80687500  0.61802100 -0.25889600
  C  1.33835609  1.00571352 -0.14148187
  C  0.30717461  0.02789465 -0.73812377
  N  0.70832873 -1.34773954 -0.53307222
  C -0.08617297 -2.38686498 -1.14595892
  C  1.92555087 -1.66506499 -0.03576699
  C  2.96018994 -0.81785590  0.15224329
  C  4.20101554 -1.36285363  0.69577607
  N  5.28411549 -0.51879897  0.70807254
  O  4.29443991 -2.49762019  1.13974096
  C -0.94655592  0.44338894  0.11870855
  C -2.05656375 -0.57201573  0.25405925
  C -2.21419189 -1.28592320  1.43486245
  C -3.24525080 -2.19845848  1.56790789
  C -4.13155693 -2.40725528  0.52433569
  C -3.98742411 -1.68762560 -0.65054348
  C -2.96053587 -0.77108100 -0.78400968
  C -1.59514581  1.73265836 -0.37538472
  C -2.27010691  2.50412712  0.56672310
  C -2.91516369  3.66985047  0.20158446
  C -2.90660210  4.08334207 -1.11999702
  C -2.25072225  3.31797553 -2.06622750
  C -1.60154392  2.15004156 -1.69909853
  N -0.37124116  0.75083818  1.42994659
  C  0.83598413  1.06259431  1.27857533
  H  3.14975872  0.76689527 -1.29029342
  H  3.38589814  1.28090097  0.38946971
  H  1.17563962  1.99548047 -0.58904872
  H  0.14259885  0.18585782 -1.80866001
  H -0.38582472 -2.07738331 -2.15242181
  H -0.98333987 -2.61710494 -0.57654874
  H  0.51332165 -3.28972057 -1.23556777
  H  2.07442979 -2.70617750  0.21514567
  H  5.31793371  0.27740624  0.09671959
  H  6.16341086 -0.93807047  0.96425089
  H -1.52115063 -1.11324898  2.24351265
  H -3.35454612 -2.74931067  2.48991398
  H -4.93613378 -3.11991728  0.62635412
  H -4.68133445 -1.83731891 -1.46482400
  H -2.86501807 -0.20574386 -1.69950150
  H -2.27657501  2.17666689  1.59509498
  H -3.42956003  4.25324510  0.95001328
  H -3.41133857  4.99197743 -1.41259698
  H -2.24471744  3.62537690 -3.10195880
  H -1.11193808  1.57675644 -2.47340289
  H  1.45073327  1.35900752  2.11135982
