46
opt_min/./Product_4286_opt.xyz
  C  4.51195200  2.89277000 -0.01932400
  C  3.94248957  1.52635260  0.21480015
  C  4.94533415  0.49872937  0.64933768
  C  2.63876451  1.28654030  0.03796225
  C  1.95780981  0.02474981  0.20286386
  C  0.64609420 -0.10425681 -0.00506554
  C -0.18684639 -1.35319728  0.12434534
  C  0.59611793 -2.47685204  0.80371283
  C -1.44520343 -0.99821798  0.94380708
  C -2.45578326 -0.49376657 -0.10429881
  C -2.42464807  1.04908288 -0.19687672
  N -2.79997206  1.68418191  0.93955304
  C -2.90062883  3.12294223  1.00536437
  O -2.05692121  1.65022572 -1.18026514
  C -3.88898504 -0.97320500  0.15544314
  O -2.03745566 -1.02273018 -1.34709945
  C -0.80598854 -1.74421487 -1.25840433
  C  0.05045068 -1.36115293 -2.47516099
  C -1.15289505 -3.23926220 -1.36163696
  H  4.74173919  3.37497291  0.93295342
  H  3.81577644  3.52375048 -0.56387148
  H  5.44485325  2.82828876 -0.57861822
  H  5.75077049  0.97198628  1.20713344
  H  5.38523575  0.01754831 -0.22580802
  H  4.49709202 -0.27000170  1.27121781
  H  2.00620892  2.10503207 -0.28458069
  H  2.55855555 -0.82237990  0.49516507
  H  0.08384962  0.76766664 -0.30846220
  H -0.02576183 -3.35190711  0.96046592
  H  1.45409033 -2.76573596  0.20272624
  H  0.94753133 -2.12961485  1.77251631
  H -1.22099233 -0.24146393  1.69409985
  H -1.83722456 -1.88090622  1.45196399
  H -3.15268429  1.15750665  1.71996190
  H -2.14899251  3.54238423  0.33918678
  H -3.88490468  3.46996432  0.67803557
  H -2.72519576  3.46013188  2.02484843
  H -4.48344376 -0.77242513 -0.73347034
  H -3.88986869 -2.04482238  0.33593795
  H -4.35292516 -0.46873878  0.99943621
  H -0.61445117 -0.97219749 -3.23955769
  H  0.57133334 -2.22987587 -2.86810533
  H  0.77952044 -0.59522881 -2.23236125
  H -1.59949454 -3.41615179 -2.33635072
  H -0.26986351 -3.86070344 -1.26195822
  H -1.88135846 -3.51723320 -0.60302912
