53
opt_min/./Product_1825_opt.xyz
  N -0.58764520 -2.57919318 -3.08922082
  C  0.00676148 -2.27179028 -2.16305605
  C  0.78599954 -1.88463389 -0.99262467
  F  2.12477023 -1.95394615 -1.38868327
  C  0.44649460 -0.46467898 -0.62232052
  C -0.77600087  0.00307338 -0.35831122
  C -2.09043094 -0.70680641 -0.44130249
  C -2.52393362 -1.46137682  0.82256637
  C -1.80567360 -2.79691957  1.00827992
  C -0.30749598 -2.64320346  1.30408306
  C  0.62660058 -2.94500415  0.13111824
  C -0.65496281  1.46552206  0.05052180
  C -1.51553657  2.44229882 -0.73381948
  O -2.82478594  2.19418839 -0.66027233
  C -3.66465821  3.09458682 -1.37833238
  O -1.04643515  3.36829396 -1.34738289
  C -0.87250808  1.56872488  1.59131938
  C -1.60955876  2.77442980  2.08724176
  O -0.42564451  0.72027784  2.31491713
  N  0.75020071  1.79755607 -0.14016603
  C  1.48085472  0.64480376 -0.68872323
  C  1.82219809  0.86783541 -2.17428017
  C  2.71934647  0.43675264  0.16975295
  C  2.63661011 -0.26846057  1.36068515
  C  3.74956263 -0.43286749  2.16801389
  C  4.96429355  0.11507591  1.79963819
  C  5.05140560  0.84466669  0.62679183
  C  3.93817330  1.00686455 -0.18008282
  H -2.85787224  0.03116969 -0.67711802
  H -2.05334297 -1.42105314 -1.26685767
  H -3.59773582 -1.65019226  0.74332879
  H -2.35938216 -0.84472260  1.70675881
  H -2.27750801 -3.30647054  1.85045554
  H -1.95597237 -3.42132383  0.12213458
  H -0.03033519 -3.35226938  2.08926426
  H -0.13505273 -1.64009687  1.69757390
  H  0.31925170 -3.88775721 -0.33373459
  H  1.63960579 -3.08937876  0.52537421
  H -3.34488385  3.16367872 -2.42030494
  H -3.62126577  4.08932622 -0.93045607
  H -4.67102269  2.68906705 -1.31111358
  H -1.57319849  2.80564545  3.17409286
  H -1.16382453  3.67638348  1.67123109
  H -2.64596558  2.72426644  1.75668788
  H  0.84209743  2.61617406 -0.73575910
  H  2.52602410  0.12019601 -2.52665050
  H  2.25625066  1.85445305 -2.31998509
  H  0.91206341  0.80783394 -2.77265249
  H  1.68985518 -0.66774902  1.68210253
  H  3.66325791 -0.98934250  3.09024487
  H  5.83403061 -0.01343927  2.42739481
  H  5.99107948  1.29110459  0.33602725
  H  4.03485570  1.57931504 -1.08799417
