56
opt_min/./Product_2298_opt.xyz
  C  2.20919507  0.21999917  2.74494795
  C  1.16854290  0.72003824  1.78180424
  O  0.52990437  1.71566839  2.00959848
  C  0.94776767 -0.07676838  0.45063909
  C  1.92983563  0.52139025 -0.56977451
  C  1.72904888  0.48900984 -1.94889019
  C  2.65940395  1.01872810 -2.82640568
  C  3.82209294  1.60321385 -2.36324343
  C  4.03258334  1.65869789 -0.99894323
  C  3.10292244  1.12890907 -0.12092881
  C -0.58739715 -0.12935724  0.11152399
  C -0.94326718 -0.71869263 -1.26502335
  C -2.06802682 -0.24692852 -1.93708220
  C -2.48309376 -0.80909296 -3.13265952
  C -1.79624846 -1.87404939 -3.68433259
  C -0.68445672 -2.36480973 -3.02270820
  C -0.26400904 -1.79985130 -1.83176860
  C -1.22657243  1.24622350  0.19968523
  C -2.42155239  1.48917074  0.86081180
  C -3.00443092  2.74583374  0.85627471
  C -2.41377592  3.78940508  0.17210138
  C -1.24287723  3.55232440 -0.52647005
  C -0.66565764  2.29782891 -0.52472083
  C -1.03142988 -1.27992430  1.11756515
  C -1.08689528 -0.98400633  2.64246634
  C -2.36248045 -0.58450721  3.33419812
  O -0.11125128 -1.22260496  3.30847662
  C -2.30404509 -2.03784997  0.71732101
  O  0.03372671 -2.21450542  0.95629109
  N  1.22220560 -1.48730423  0.64610044
  C  2.37585534 -2.06197825  0.83480826
  N  3.39927969 -2.57751820  0.93307724
  H  1.72036200 -0.44496026  3.45682322
  H  3.01703796 -0.33762955  2.28165605
  H  2.59231009  1.07228548  3.30438835
  H  0.83996540  0.06450317 -2.37639520
  H  2.45885859  0.96886477 -3.88657271
  H  4.54507241  2.01515038 -3.05067189
  H  4.92572132  2.11913347 -0.60435708
  H  3.31863438  1.21948817  0.92716588
  H -2.63907708  0.57682579 -1.53902073
  H -3.35502420 -0.40826426 -3.62796606
  H -2.12180230 -2.31607746 -4.61370419
  H -0.13154948 -3.19697674 -3.43191423
  H  0.61833349 -2.21555762 -1.37475909
  H -2.93081097  0.69452143  1.36724169
  H -3.93157515  2.89910821  1.38979537
  H -2.86568338  4.77019602  0.17274034
  H -0.77192479  4.34999472 -1.08179705
  H  0.24267379  2.15128490 -1.08351365
  H -3.26502965 -0.71912294  2.75189454
  H -2.26503022  0.45908798  3.63430691
  H -2.43193268 -1.17526186  4.24794030
  H -2.07904378 -2.69966298 -0.11443662
  H -2.64102942 -2.65470308  1.54746304
  H -3.09402076 -1.35550131  0.41973768
