38
opt_min/./Product_807_opt.xyz
  C  4.90112500 -1.12607900 -0.48094600
  C  3.47289297 -1.55505791 -0.25956223
  O  3.05986732 -2.65226654 -0.55381442
  C  2.58920355 -0.53526870  0.32357767
  C  2.76001354  0.77056567  0.56357975
  C  1.43377939  1.25094869  1.11514612
  C  0.49360490  1.30262509 -0.11592323
  C  0.31182827 -0.20008501 -0.41938904
  C  1.14517455 -0.81550468  0.73359244
  O  0.95910345  0.10473252  1.79151072
  C -1.23150667 -0.33677279 -0.30490716
  C -1.83235321 -1.51962481 -1.08688548
  N -2.66736459 -2.26459382 -0.35653143
  C -3.31835073 -3.44213335 -0.88132141
  O -1.52093513 -1.71273297 -2.23803861
  O -1.58011402 -0.33702178  1.08448562
  C -1.35939868  0.92715026  1.50300971
  O -1.52921437  1.33538017  2.60086659
  C -0.97567439  1.69387075  0.19556674
  C -1.25397275  3.18579034  0.20621141
  C -2.41694792  3.63649440 -0.62525302
  O -0.54516441  3.91713827  0.84502265
  O -1.70302844  0.90784369 -0.74633676
  H  4.93518412 -0.44977247 -1.33287716
  H  5.50538508 -1.99978031 -0.70505574
  H  5.29897567 -0.60756017  0.38480367
  H  3.60739996  1.39519419  0.36759980
  H  1.42674984  2.12908219  1.75579650
  H  0.88097678  1.90211850 -0.93663449
  H  0.62524213 -0.52809120 -1.40836655
  H  0.89659207 -1.83191944  1.02316103
  H -2.83669528 -2.01117070  0.60548449
  H -2.94560199 -4.34081411 -0.38971501
  H -4.39564324 -3.37481815 -0.73826341
  H -3.09058150 -3.49321601 -1.94374832
  H -2.05543339  4.33712009 -1.37466552
  H -2.91305445  2.80182899 -1.10594606
  H -3.11268165  4.17680796  0.01278092
