39
opt_min/./Product_4926_opt.xyz
  C -1.56079297  0.13447902 -0.92757704
  O -2.28655371 -0.08258932 -1.87565544
  C -0.83461097 -1.05699394 -0.24654658
  O -1.74956233 -1.81098547  0.49500097
  C -2.73153539 -2.53152457 -0.23278388
  C  0.36063730 -0.60594933  0.64116599
  O  0.91232859 -1.68065775  1.36470085
  C  0.30688000 -2.07902109  2.59315090
  C  0.13157215  0.68368758  1.42336414
  O  0.41825657  0.79407204  2.58911110
  C -0.55701539  1.75013906  0.66593562
  C -0.34880634  3.12857213  1.18720644
  C -1.36461038  1.48238609 -0.38661496
  C -2.10975681  2.56008301 -1.10985484
  N  1.35524271 -0.38114451 -0.42075371
  C  2.39500833  0.53577235 -0.32290861
  N  3.35680324  0.35861019 -1.23789452
  C  4.52824014  1.19711528 -1.29633402
  O  2.33769665  1.41790345  0.50966118
  N  1.14719267 -1.18500079 -1.46935037
  C -0.03289794 -1.69473288 -1.39672339
  C -0.52399341 -2.58688366 -2.35583846
  N -0.93396166 -3.32817625 -3.13041069
  H -3.19726484 -1.92162097 -1.00887511
  H -3.47611702 -2.81638349  0.50588725
  H -2.29815441 -3.42619876 -0.68654690
  H  0.92571290 -2.90300397  2.93597364
  H -0.71527283 -2.41714037  2.42566086
  H  0.32420827 -1.27504584  3.32459108
  H  0.39035857  3.10035125  1.98126890
  H  0.00208301  3.78268772  0.39261900
  H -1.27993186  3.53583543  1.57908400
  H -2.97401967  2.13367898 -1.61332458
  H -1.46922689  3.00163513 -1.87351318
  H -2.42673040  3.34462156 -0.43107904
  H  3.28366048 -0.43508362 -1.85348838
  H  4.77165520  1.42064191 -2.33322057
  H  4.30946199  2.12041475 -0.76301955
  H  5.38351111  0.71236357 -0.81941883
