43
opt_min/./Product_567_opt.xyz
  C -0.44844702  2.89059500 -0.52131300
  C -0.89960935  1.57746956 -1.11653892
  O -1.05109355  1.45206975 -2.30856557
  C -1.21516258  0.42018561 -0.17152393
  C -0.46583947 -0.88491511 -0.58787278
  C -1.61298274 -1.89199020 -0.78332999
  C -2.33826906 -2.16270188  0.54334669
  C -3.14370948 -0.87120720  0.78038435
  C -2.70994341  0.01655463 -0.38299421
  C -2.61347632 -1.00176122 -1.51828636
  C  0.53820975 -1.12307141  0.55108002
  C  0.67502084 -2.54875897  0.79178906
  N  0.80920827 -3.67308128  0.95406717
  C  1.93938311 -0.56969337  0.29414279
  C  2.99352579 -1.04779329  1.07037432
  C  4.26837705 -0.53080168  0.92618610
  C  4.51266285  0.47055145  0.00256169
  C  3.47448537  0.94169424 -0.77949023
  C  2.19638219  0.42742922 -0.63760679
  N -0.16083852 -0.49213553  1.70067786
  C  0.61603345 -0.15466015  2.86270724
  N -0.88893282  0.63972432  1.22060903
  H  0.47814107  2.77141500  0.03939614
  H -1.22050568  3.28024175  0.13997677
  H -0.27960314  3.59691041 -1.33195609
  H  0.04584066 -0.77857492 -1.54681886
  H -1.29169597 -2.79969116 -1.29312667
  H -2.98514285 -3.03467136  0.45521547
  H -1.63403897 -2.34220961  1.35046740
  H -4.21657727 -1.05235206  0.71193243
  H -2.92823205 -0.42183199  1.74582116
  H -3.35036993  0.87978935 -0.55874901
  H -2.23192539 -0.57833247 -2.44409995
  H -3.56449618 -1.49503301 -1.71140359
  H  2.81771879 -1.84059044  1.78253605
  H  5.07103878 -0.91447491  1.53800250
  H  5.50651357  0.87552945 -0.11226101
  H  3.65449950  1.71317569 -1.51377535
  H  1.41275177  0.81488796 -1.26928688
  H -0.04665061  0.35335800  3.56272402
  H  1.48005023  0.49547397  2.65121694
  H  0.96934703 -1.07568476  3.32468952
  H -0.36092487  1.50156230  1.36315477
