44
opt_min/./Product_824_opt.xyz
  F  0.44687000 -0.42624600 -2.09266500
  C  0.78445384 -0.19203484 -0.78058714
  C -0.30664427 -0.44648139  0.30009916
  C -1.77835722 -0.50239874 -0.07764583
  C -2.27838368 -0.64880389 -1.36470393
  C -3.64539446 -0.68339019 -1.59434514
  C -4.54200205 -0.58017144 -0.54979835
  C -4.05763192 -0.43897307  0.74083448
  C -2.69706653 -0.40072876  0.97108222
  C -0.12226169  0.91513609  1.10050083
  C -0.91708204  1.90043813  0.25665470
  C -0.15961154  2.11416640 -0.80882346
  C  1.10392008  1.31634672 -0.56553528
  O  1.20703201  1.32172253  0.84430573
  C  0.15070016 -1.76288551  1.00692412
  C  0.17146846 -1.70277051  2.53501632
  C -0.67303821 -2.98409760  0.54702105
  O  1.49328864 -2.00697375  0.59885914
  C  1.97213778 -1.11586493 -0.37852482
  C  3.16519704 -0.37080009  0.29005288
  C  4.13976840  0.34997194 -0.61063126
  O  3.35323271 -0.47233433  1.46955292
  C  2.49467100 -1.93586304 -1.56822131
  H -1.62292220 -0.74348514 -2.21116190
  H -4.00766013 -0.79494937 -2.60552843
  H -5.60547271 -0.61124514 -0.73276126
  H -4.74019789 -0.35774361  1.57394743
  H -2.34189425 -0.28453400  1.98239807
  H -0.31652587  0.88441568  2.16436719
  H -1.89711289  2.26564884  0.48701344
  H -0.33419513  2.70085810 -1.68777126
  H  1.99991401  1.68100392 -1.05451571
  H  0.67206849 -2.60044879  2.88689433
  H -0.83288848 -1.67017817  2.94605083
  H  0.75368136 -0.85298506  2.87849661
  H -1.72967994 -2.76200929  0.44952355
  H -0.55131325 -3.78819159  1.26546595
  H -0.29966996 -3.32888327 -0.41293119
  H  5.02875161 -0.27434694 -0.69130970
  H  3.75926055  0.54185489 -1.60781571
  H  4.43764015  1.27950701 -0.13339426
  H  1.69164544 -2.55928642 -1.95313320
  H  3.29537707 -2.58201818 -1.22217527
  H  2.85341305 -1.30018018 -2.36983047
