47
opt_min/./Product_1576_opt.xyz
  C  1.58718224  1.02028756 -1.77964652
  C  0.74061347  0.67671013 -0.56335058
  C -0.81215558  0.85765762 -0.69912776
 Br -1.43183635  1.64598792 -2.37498978
  C -1.15287030  1.78884956  0.48079060
  C -0.62307085  3.20801245  0.21745992
  C  0.90512156  3.03942891  0.33389059
  C  1.05772906  1.54830453  0.66793496
  C -0.16536846  1.33399476  1.55855147
  C -1.40735565 -0.57864342 -0.57206460
  C -2.78957160 -0.47734887  0.10228280
  N -2.82722518 -0.79852398  1.40725894
  C -4.03079653 -0.67883263  2.19379725
  O -3.76242757 -0.09821243 -0.51745448
  C -1.58322201 -1.29206296 -1.91838264
  N -0.42280976 -1.22617669  0.29767793
  C -0.57191153 -2.65385922  0.53413638
  C  0.87387394 -0.83430212 -0.22348110
  C  1.97174582 -1.09561596  0.78356909
  O  1.81376510 -1.36617739  1.94365633
  O  3.17357401 -0.99065763  0.20309982
  C  4.29756329 -1.19072218  1.04992775
  H  1.48418715  0.26208374 -2.55377700
  H  2.63708606  1.06683503 -1.49523591
  H  1.30863904  1.97365662 -2.21909215
  H -2.20746626  1.77387281  0.75098707
  H -1.00490835  3.88768043  0.97740456
  H -0.91543483  3.59065162 -0.75615072
  H  1.30473909  3.62907810  1.15916724
  H  1.42827909  3.33374554 -0.57100860
  H  2.01839348  1.31795450  1.12737348
  H -0.28921637  0.32184565  1.92378118
  H -0.16497445  2.02130411  2.40556159
  H -1.99843771 -1.13813398  1.86761415
  H -4.78870492 -0.20446725  1.57096052
  H -3.84794526 -0.06161054  3.07418482
  H -4.39054697 -1.66097263  2.50631334
  H -2.60693418 -1.15648564 -2.27043419
  H -0.92582110 -0.91049275 -2.69594636
  H -1.40622361 -2.36115996 -1.82510948
  H -1.60348557 -2.96933590  0.38988226
  H  0.06710885 -3.25262940 -0.12481197
  H -0.27265657 -2.86993320  1.56212464
  H  1.10934613 -1.39018777 -1.14446162
  H  4.23576998 -0.53926185  1.92410151
  H  5.17445084 -0.94332738  0.45625330
  H  4.34181972 -2.22872555  1.38269127
