63
opt_min/./Product_2527_opt.xyz
  C -2.95048583  0.25364628  1.19439359
  C -2.49461863 -1.04409614  0.57900257
  O -3.29226432 -1.91377302  0.32328145
  C -1.02848133 -1.19635832  0.17286804
  C  0.12487920 -0.72885958  1.12337266
  C -0.32085542 -0.22203709  2.50038427
  C  0.93392543 -2.03315836  1.28403769
  C  0.13060867 -3.07525510  2.08483449
  C -0.96698843 -3.51805312  1.10046845
  C -0.66521873 -2.66379438 -0.13787960
  C  0.86438324 -2.66821305 -0.10007281
  C  0.79294754  0.47555144  0.32974952
  C  1.23873759  1.62348202  1.22435047
  C  0.66346902  2.88070133  1.10201717
  C  1.10789676  3.93640461  1.87960380
  C  2.13471307  3.75080560  2.78585990
  C  2.71990818  2.50099525  2.90561088
  C  2.27976893  1.44760753  2.12758554
  C  2.00810765  0.29361666 -0.59358979
  C  2.03673494  1.10118911 -1.72915050
  C  3.11458840  1.08985343 -2.59270517
  C  4.20612971  0.28486877 -2.33058965
  C  4.21009349 -0.49072496 -1.18593418
  C  3.13005595 -0.48111413 -0.32125272
  O -0.30103126  0.93331856 -0.46897951
  C -0.91234887 -0.19091904 -1.04873574
  C -0.14657320 -0.77600299 -2.14695474
  N  0.34414762 -1.25025270 -3.06518936
  C -2.22298980  0.20216328 -1.71597129
  C -2.93997257 -0.74410489 -2.43894972
  C -4.12708293 -0.39348671 -3.05439024
  C -4.59891774  0.90609898 -2.97169460
  C -3.87270466  1.85532320 -2.27555300
  C -2.68772025  1.50818856 -1.65126034
  H -2.23192760  1.05377673  1.07200235
  H -3.89738804  0.52805477  0.72899985
  H -3.14763331  0.09164857  2.25363235
  H -1.15590894 -0.80534722  2.87602756
  H -0.60754326  0.82441874  2.47936238
  H  0.50629838 -0.31964260  3.20284561
  H  1.91029424 -1.87814232  1.73563346
  H  0.79017630 -3.90974837  2.33086578
  H -0.26471572 -2.69343042  3.02144885
  H -0.86309097 -4.57353358  0.84655643
  H -1.97151124 -3.37123295  1.48576081
  H -1.12292791 -3.02652447 -1.05606483
  H  1.34603834 -2.12431924 -0.90303139
  H  1.25396658 -3.68769368 -0.09399924
  H -0.13661061  3.03401454  0.39557537
  H  0.64736212  4.90753836  1.77128122
  H  2.48207439  4.57424015  3.39247194
  H  3.52659238  2.34786038  3.60721776
  H  2.75447384  0.48419632  2.22388848
  H  1.19606444  1.74396444 -1.94429645
  H  3.09985334  1.71725103 -3.47166105
  H  5.05010014  0.27059307 -3.00338450
  H  5.06281867 -1.11387088 -0.95717655
  H  3.18755194 -1.08454583  0.56512085
  H -2.57769686 -1.75816117 -2.51019152
  H -4.68259245 -1.13895888 -3.60208743
  H -5.52553472  1.17789565 -3.45446547
  H -4.22677502  2.87461292 -2.21472222
  H -2.11716178  2.25311829 -1.11932504
