43
opt_min/./Product_5713_opt.xyz
  O  0.73267900  1.61716800 -2.95318500
  C  1.60431114  1.21563501 -2.00426610
  O  2.35919589  2.04456786 -1.59292371
  C  1.47262467 -0.20231996 -1.47321147
  C  0.01456162 -0.66414927 -1.59596496
  C -0.58097730 -0.38120885 -2.95493412
  O -1.32398278 -1.09306189 -3.55115478
  O -0.08024641  0.68797076 -3.62713773
  C -0.63831148  0.04921112 -0.38096171
  C -1.48248956  1.25209577 -0.82926783
  O -2.16396284  1.21684021 -1.82083254
  O -1.36527032  2.26930579 -0.00539195
  C -2.15072115  3.42018117 -0.30930192
  C -1.60173306 -0.85380000  0.43731977
  O -1.96876667 -0.55684798  1.53570964
  O -1.99647076 -1.90044156 -0.26341326
  C -2.85933285 -2.80997678  0.41440129
  O  0.41214408  0.48698007  0.46063555
  C  1.61029418 -0.15243622  0.07022603
  C  1.63646589 -1.61819652  0.58568731
  N  2.82504923 -2.21330137  0.46979647
  C  3.05829080 -3.56304174  0.92877080
  O  0.61800985 -2.15231503  0.97837302
  C  2.83460959  0.63702912  0.56305308
  O  3.95829273  0.21317015  0.34524908
  N  2.54021142  1.71316221  1.28342045
  C  3.55011874  2.63071127  1.74963493
  H  2.19395472 -0.85784301 -1.96327708
  H -0.06364109 -1.74581741 -1.44775464
  H -2.06974923  3.66045086 -1.37168468
  H -1.75682271  4.22667299  0.30281595
  H -3.19735597  3.23104529 -0.06671175
  H -3.12099563 -3.57143876 -0.31498074
  H -3.74974528 -2.29072297  0.77238178
  H -2.33315102 -3.24779091  1.26472789
  H  3.63670068 -1.63751694  0.25161063
  H  3.71551439 -3.56521492  1.79940203
  H  2.09981807 -4.00144453  1.20104350
  H  3.51773176 -4.14917405  0.13246121
  H  1.56862718  1.98068342  1.35467268
  H  4.51271704  2.12496452  1.70279444
  H  3.58384602  3.51689466  1.11335849
  H  3.33520067  2.92352875  2.77622353
