38
opt_min/./Product_222_opt.xyz
  C -0.11877956 -2.06595208 -1.76369185
  C -0.47160749 -0.66634418 -1.23671845
  C  0.12725760 -0.34033736  0.18363853
  C  0.59410684 -1.47878982  0.92305951
  N  0.96474997 -2.36150719  1.55459266
  C -1.12192888  0.17035003  0.95334397
  C -1.65703753  1.46847698  0.33579969
  C -2.34868529  0.98844249 -0.95484964
  C -1.99698853 -0.49829848 -0.99036021
  C -2.14331902 -0.86515437  0.48651794
  C  1.26812131  0.66247637 -0.10834271
  C  1.46982713  1.69376517  1.02028526
  N  1.69323920  1.12663716  2.22518591
  C  1.95249868  1.91616252  3.40656300
  O  1.47123270  2.88844130  0.82998916
  C  2.62277311 -0.02686267 -0.36731333
  N  0.74797281  1.33766605 -1.29662186
  N  0.04712705  0.38309983 -2.09862313
  H  0.60463660 -2.56886147 -1.12481343
  H -1.00533857 -2.69339668 -1.81656740
  H  0.30512396 -2.00406625 -2.76490873
  H -0.94977629  0.24656604  2.02804966
  H -0.85497870  2.16683243  0.12056652
  H -2.35850021  1.94257086  1.02176226
  H -3.43039404  1.10360711 -0.89086043
  H -1.99013970  1.51596334 -1.83315301
  H -2.59456210 -1.08147506 -1.68923352
  H -1.86907402 -1.89466270  0.71597451
  H -3.14359126 -0.66834667  0.86761143
  H  1.67558935  0.12457668  2.33101699
  H  1.31008374  1.60067105  4.22793235
  H  2.99782810  1.82692669  3.71139349
  H  1.74342941  2.95498049  3.15368600
  H  2.59091763 -0.55650215 -1.32075520
  H  2.86753870 -0.75292859  0.40438699
  H  3.41175211  0.72144635 -0.40867498
  H  1.48622898  1.77912856 -1.83441196
  H  0.61552399  0.01118512 -2.85833702
