44
opt_min/./Product_4059_opt.xyz
  C  4.33689600  0.40503500 -1.38849300
  C  4.04398389  0.26811074  0.07869087
  C  5.20894116  0.39997407  1.01536213
  C  2.80803322  0.08113784  0.55742054
  C  1.60083630 -0.01427321 -0.22634522
  C  0.40136627 -0.20129157  0.32758402
  C -0.90674704 -0.33194323 -0.38381540
  C -0.76385969 -0.12702923 -1.89806398
  C -1.55560340 -1.71245930 -0.12237549
  N -3.00900242 -1.52636104 -0.17204423
  C -3.64230504 -2.32518630 -1.20370309
  N -3.19696793 -0.09496670 -0.43742818
  C -4.51364490  0.40855423 -0.09985938
  C -2.06071229  0.57872850  0.15469340
  C -1.99265459  2.03443690 -0.31142771
  C -1.99550835  0.60964605  1.70026258
  C -2.85567458 -0.32432408  2.51631622
  O -1.23982553  1.37563441  2.25103664
  H  3.90214344  1.32561926 -1.78154496
  H  3.91241559 -0.42867794 -1.94728950
  H  5.40856037  0.43394260 -1.57053473
  H  6.13308055  0.07415507  0.54191986
  H  5.04952005 -0.18859295  1.91651720
  H  5.33241027  1.44253917  1.31386062
  H  2.67308870 -0.00219824  1.62863386
  H  1.71464673  0.07673973 -1.29561294
  H  0.34588490 -0.28773623  1.40481886
  H -0.16474034 -0.92839196 -2.32692293
  H -1.74909525 -0.13388958 -2.35755129
  H -0.27648069  0.82009873 -2.11363960
  H -1.21571547 -2.43871701 -0.86679923
  H -1.28017641 -2.09462028  0.86767848
  H -3.10667681 -2.30850101 -2.16324124
  H -3.69596678 -3.35318170 -0.84248908
  H -4.65685381 -1.96880758 -1.37579258
  H -4.88240188  1.00236168 -0.94016815
  H -5.20284261 -0.41926196  0.06708122
  H -4.51480380  1.03433706  0.79821936
  H -1.02916067  2.45106675 -0.02717912
  H -2.11987826  2.10024574 -1.38728126
  H -2.77568491  2.61868017  0.16589224
  H -3.60920023 -0.84737711  1.94417515
  H -3.30135721  0.24306327  3.33281498
  H -2.19188164 -1.06585851  2.96292284
