60
opt_min/./Product_2853_opt.xyz
  C -1.60039632 -3.30727027 -0.74984204
  C -0.62249711 -2.18040105 -0.85189405
  O  0.13654552 -2.06666095 -1.78101419
  C -0.72839395 -1.11761872  0.25320301
  C -0.55569226 -1.66936610  1.67329210
  C -0.14094807 -0.66538497  2.71365624
  O -0.81116364 -2.81041916  1.96255830
  C  0.06444485  0.14237303 -0.07031606
  C -0.38112431  1.42607326 -0.36361141
  C -1.62668010  2.31813595  0.07219398
  C -1.01661058  3.33825313  1.08259570
  F -0.72524364  2.70549695  2.22931899
  F -1.88018940  4.31829218  1.39365546
  F  0.10645541  3.95150627  0.74136761
  C -2.18859042  3.02192389 -1.19651626
  F -1.73162455  4.26507739 -1.38528678
  F -3.52146054  3.15923352 -1.19681741
  F -1.92483722  2.31795218 -2.30616902
  C -2.94436434  1.90399810  0.91988228
  C -3.98714634  0.82614982  0.50339563
  C -3.50933323 -0.62895021  0.73175526
  C -2.11293732 -0.45522771  0.19200912
  N  0.63858396  2.08163514 -1.07221640
  C  0.78613161  3.29702580 -1.83591140
  N  1.57193808  1.11791316 -1.53928828
  C  1.17745777  0.60238247 -2.85760524
  C  1.55747936  0.15291076 -0.44355371
  C  2.24146066  0.79037187  0.68885978
  N  2.74247079  1.23056714  1.61717069
  C  2.38034168 -1.09938455 -0.63924815
  C  2.27889007 -2.16136550  0.25281676
  C  3.09101338 -3.27109297  0.11729430
  C  4.04184310 -3.32245945 -0.88684402
  C  4.19205856 -2.24138308 -1.73620192
  C  3.38043507 -1.12929261 -1.60422290
  H -1.46802522 -3.81924906  0.20065498
  H -1.44406549 -3.99312519 -1.57849855
  H -2.61693576 -2.92269899 -0.78209706
  H  0.59182379  0.04878895  2.35254408
  H -1.02259537 -0.10621672  3.02693210
  H  0.24348144 -1.19144526  3.58407177
  H -3.50780083  2.83874765  0.98081286
  H -2.63820754  1.67682048  1.94478040
  H -4.26222176  0.95203757 -0.54241096
  H -4.87525766  1.03710127  1.10162799
  H -4.14047188 -1.33645062  0.19432451
  H -3.52286436 -0.88903142  1.79048809
  H -2.23761235 -0.14987764 -0.85091105
  H -1.82107665  0.37409102  0.80103032
  H  0.24980342  3.25529144 -2.79034493
  H  1.85180717  3.37591326 -2.04390456
  H  0.49639547  4.19198142 -1.30438431
  H  1.28150546 -0.47657315 -2.89581910
  H  0.13405016  0.84041303 -3.07347081
  H  1.81060154  1.05810912 -3.62008253
  H  1.56057932 -2.13204995  1.05752604
  H  2.98567803 -4.09131722  0.81164744
  H  4.67182512 -4.19252180 -0.99410506
  H  4.95118416 -2.25632327 -2.50427114
  H  3.53137083 -0.27694157 -2.24683781
