44
opt_min/./Product_4867_opt.xyz
  N -0.29281600  0.00860000 -1.12188600
  C -1.19046550 -1.06142920 -0.47099832
  N -2.31963208 -1.19685838 -1.32608458
  N -0.34556655 -2.21013623 -0.36315075
  C -0.00805690 -2.92822690 -1.58885338
  C -1.42099917 -0.37820568  0.94324760
  C -1.29670032 -1.36936842  2.10982078
  C -2.79324390  0.30056778  1.05935248
  C -2.83315201  1.59750756  1.80292662
  O -3.81939379 -0.26525404  0.62182240
  O -0.42082257  0.63936407  1.06289392
  C  0.50039798  0.58294156  0.02536276
  C  0.99700566  1.96105236 -0.40391901
  O  1.25953284  2.76472444  0.65125342
  C  1.92223290  3.98424309  0.35245724
  O  1.23663524  2.19254188 -1.59138655
  C  1.72149079 -0.24879898  0.27983688
  C  2.55462854 -0.66636348 -0.77206229
  C  3.70852541 -1.36617937 -0.50614535
  C  4.07230784 -1.66148737  0.80487368
  C  3.27578108 -1.20691497  1.85192326
  C  2.11920099 -0.50376871  1.59812842
  H  0.36108843 -0.40287306 -1.79592893
  H -0.86026411  0.72023698 -1.59399430
  H -3.17488900 -0.86527324 -0.85919520
  H -2.46952429 -2.15209643 -1.62024682
  H -0.67624571 -2.84789225  0.34553536
  H -0.30292973 -2.37108658 -2.47825596
  H  1.07345175 -3.07745370 -1.61012715
  H -0.48733326 -3.90811582 -1.63666122
  H -1.45318794 -0.81960099  3.03475171
  H -2.08444472 -2.11675640  2.02208545
  H -0.31528787 -1.83317013  2.14501376
  H -2.19260910  2.33816557  1.32430732
  H -2.47116233  1.47519629  2.82291713
  H -3.85984893  1.95429207  1.82256607
  H  1.24624157  4.81822692  0.55172549
  H  2.22519373  3.99778120 -0.69571289
  H  2.79753448  4.05697150  1.00047965
  H  2.31527513 -0.39692641 -1.79377050
  H  4.34011755 -1.69083923 -1.32001644
  H  4.97288626 -2.22034922  1.00653826
  H  3.56582379 -1.40627239  2.87497732
  H  1.51129389 -0.13162552  2.40831215
