45
opt_min/./Product_4860_opt.xyz
  N  1.00393500 -1.30636300 -0.66503400
  C -0.22546082 -0.99020298 -0.00168803
  N -1.20528164 -2.02705315 -0.29272211
  N  0.08812570 -0.77245238  1.39456950
  C  0.28996805 -1.93850395  2.22509972
  C -0.74110858  0.37305105 -0.62221977
  C -1.14474915  0.17083372 -2.08772343
  C -1.89354179  0.92967069  0.18633691
  C -3.20194511  0.51484320 -0.04283276
  C -4.24498026  0.99928297  0.72967613
  C -4.00223594  1.91413217  1.73846842
  C -2.70715249  2.34530804  1.96472124
  C -1.66353533  1.85601149  1.19865024
  O  0.34626212  1.28642494 -0.50050022
  C  1.59648300  0.83184443 -0.87101151
  C  2.54112075  0.79047408  0.29742968
  N  2.46336854  1.89718871  1.06378242
  C  3.26782863  2.09937560  2.24021245
  O  3.28076903 -0.14827876  0.55166593
  C  2.08334094  1.00421198 -2.21360721
  C  3.50523724  0.55308592 -2.48297155
  O  1.39777991  1.49413351 -3.11080332
  H  1.81076808 -1.49919051 -0.09060351
  H  0.91527732 -1.85053880 -1.50888039
  H -0.91838442 -2.90384280  0.12925815
  H -2.11373153 -1.77565264  0.08007391
  H -0.54892593 -0.11799476  1.83012910
  H -0.62119925 -2.53680725  2.39090862
  H  1.05272848 -2.57858730  1.78035081
  H  0.65281002 -1.60060504  3.19433287
  H -0.25283068  0.06525440 -2.69491739
  H -1.68512054  1.04820656 -2.43194287
  H -1.75440010 -0.71807069 -2.20583502
  H -3.42282911 -0.17801623 -0.84057246
  H -5.25329514  0.66419710  0.53729855
  H -4.81704336  2.29243684  2.33715407
  H -2.50518587  3.06816760  2.74240832
  H -0.65592959  2.19889029  1.37365590
  H  1.85041517  2.63691603  0.76074257
  H  3.99454938  2.90067697  2.08401864
  H  3.79714902  1.16741127  2.43642545
  H  2.64031131  2.34819346  3.09855401
  H  3.94791412  0.06897622 -1.61995104
  H  3.49252399 -0.13617868 -3.32547051
  H  4.10367767  1.41433252 -2.77720588
