27
opt_min/./Product_124_opt.xyz
  C  4.04986000  0.99140700  0.50059200
  O  2.80644082  0.32566803  0.69806353
  C  2.54389631 -0.71379582 -0.12183891
  O  3.27917947 -1.07746159 -1.00242439
  C  1.24058807 -1.29971292  0.19143301
  C  0.53052184 -2.20917552 -0.50347854
 Cl  0.86898171 -2.97621609 -1.95023369
  C -0.77623915 -2.35414293  0.25850648
  C -1.55054554 -1.02570011 -0.03263386
  C -0.79079283 -0.02755866  0.86211133
  C  0.35214939 -0.94906349  1.37474861
  O -0.35407683 -2.16264205  1.58978474
  C -0.42015679  1.07566985 -0.12642653
  C -1.26702115  2.34201144  0.03617961
  N -0.74974866  0.51453970 -1.43335627
  N -1.36149061 -0.53051604 -1.38266538
  H  4.82002974  0.51723609  1.11115998
  H  3.90452207  2.02559759  0.80810537
  H  4.33632406  0.93754856 -0.55185120
  H -1.33117011 -3.27656725  0.12918007
  H -2.62049971 -1.13396102  0.14632090
  H -1.35595236  0.31940107  1.72710774
  H  0.87766265 -0.61254381  2.26396763
  H  0.63650300  1.34864631 -0.11374110
  H -0.86268151  2.96991745  0.82655133
  H -1.25652814  2.89970910 -0.89865247
  H -2.29837299  2.08415046  0.26994337
