51
opt_min/./Product_5642_opt.xyz
  C  0.28027701  0.90288556 -1.45110951
  O -0.42550805  1.10414046 -2.41127942
  C  1.64524114  1.47945832 -1.36774592
  O  1.78835526  2.44832254 -2.28912336
  C  3.04587850  3.01781327 -2.58259406
  C  2.55785661  1.02020971 -0.46212601
  O  3.76491077  1.64824592 -0.34986515
  C  4.68039000  1.29787219  0.66853045
  C  2.27965352 -0.23338277  0.25538891
  O  3.18227093 -0.94012782  0.66788249
  C  0.83713072 -0.63754740  0.50346820
  C  0.67922107 -0.64320052  2.03308143
  C -0.23127965  0.24053114 -0.18371664
  C -0.69266704  1.44405665  0.65441743
  C -1.39852796 -0.75652037 -0.52052570
  C -1.69433777 -0.90866764 -1.94464041
  N -2.03486801 -1.30262232 -2.96596441
  C -2.72710057 -0.39499228  0.12982820
  C -3.53575490  0.57128940 -0.45733010
  C -4.74187338  0.91597148  0.12503953
  C -5.15053691  0.29724155  1.29459294
  C -4.35124620 -0.67125625  1.87669580
  C -3.14394362 -1.01812846  1.29650773
  N -0.90944586 -2.04357713 -0.03266998
  C  0.54058689 -2.05218481 -0.08349653
  C  1.10409848 -2.17834344 -1.50846383
  C  1.07025742 -3.21909071  0.74920354
  H  2.86043077  3.69219358 -3.41769875
  H  3.44545760  3.57927266 -1.73665840
  H  3.76562157  2.25330713 -2.88238310
  H  5.42515762  2.09403142  0.65730666
  H  5.15958654  0.33923531  0.46186233
  H  4.20538586  1.25442516  1.65048946
  H -0.31065810 -0.99529144  2.30492292
  H  1.42569903 -1.29895864  2.47003956
  H  0.83008036  0.35407229  2.43936598
  H -1.20871045  1.12501264  1.55548394
  H -1.37918450  2.05520213  0.07077409
  H  0.16256317  2.05982692  0.92535197
  H -3.22019395  1.04400830 -1.37703174
  H -5.36639392  1.66490601 -0.33891228
  H -6.09327224  0.56647750  1.74806312
  H -4.66996839 -1.16380029  2.78387912
  H -2.52168094 -1.78044960  1.74052957
  H -1.33382785 -2.82559234 -0.51908106
  H  0.78527380 -1.35711898 -2.14720617
  H  2.19089317 -2.19683597 -1.48427031
  H  0.75446823 -3.10431793 -1.96038243
  H  2.12911495 -3.08376340  0.94578056
  H  0.53065114 -3.29952568  1.68846916
  H  0.93429059 -4.14718232  0.19951653
