52
opt_min/./Product_2268_opt.xyz
  C  3.83219100  2.13783100 -1.13845000
  C  2.67797712  1.96726460 -0.22280169
  C  1.43638218  2.44764446 -0.29749132
 Br  0.67622728  3.44743814 -1.69140176
  C  0.78006207  2.21533681  1.04407080
  C  0.43805995  0.73636018  1.39489150
  C  1.81770255  0.08223285  1.23171645
  C  2.72362517  1.35393727  1.16499572
  O  1.93034627  2.29969025  1.89082642
  C  1.67348265 -0.95968195  0.08581193
  C  2.35190742 -2.24730891  0.62830348
  N  1.51793674 -3.12102338  1.20933670
  C  1.97756671 -4.36015229  1.78956564
  O  3.55687714 -2.39798667  0.56195371
  C  2.35107327 -0.68486301 -1.25882682
  N  0.23978615 -1.10928463 -0.04768013
  C -0.34098783 -1.92163624 -1.08873325
  C -0.57481022 -0.20730404  0.73563846
  C -1.23290195 -1.05682938  1.86156774
  C -1.73568797 -0.38117621  3.11257072
  O -1.27429726 -2.25897550  1.75016449
  C -1.64201083  0.49443377 -0.09192300
  C -2.94695526  0.69947654  0.33582921
  C -3.85445599  1.36104942 -0.47562595
  C -3.48140606  1.81934954 -1.72455249
  C -2.19239159  1.59506310 -2.17213103
  C -1.28777694  0.93538653 -1.36259314
  H  3.49467492  2.31147875 -2.15796752
  H  4.50439925  1.28472297 -1.10585488
  H  4.39713692  3.01321832 -0.80884228
  H  0.01789055  2.94157995  1.32137428
  H  0.20493440  0.83980028  2.45853060
  H  2.06734608 -0.48298438  2.13391086
  H  3.70370741  1.24610503  1.61760176
  H  0.52641023 -2.91410216  1.24396700
  H  1.35740961 -4.61346415  2.64833794
  H  3.01540305 -4.23499219  2.10026815
  H  1.93071980 -5.17637400  1.06259266
  H  1.91552590  0.16005704 -1.78249594
  H  3.40875011 -0.52108763 -1.09498389
  H  2.25568400 -1.57681285 -1.87711924
  H -1.41961403 -1.78265614 -1.07119417
  H  0.02127407 -1.64722591 -2.08399784
  H -0.13032042 -2.98260393 -0.92253379
  H -1.89637055  0.68445260  2.99113038
  H -2.65340963 -0.87333193  3.43535378
  H -0.99484212 -0.54747530  3.89737459
  H -3.28274778  0.33085167  1.29016640
  H -4.86423982  1.51364979 -0.12355633
  H -4.19419132  2.33579273 -2.34951726
  H -1.88319437  1.93481253 -3.14867338
  H -0.29253354  0.73486893 -1.72089658
