39
opt_min/./Product_4321_opt.xyz
  C -0.53044000  1.41118462 -0.07621416
  C  0.17332667  0.15614424  0.44210586
  C -0.68696479 -1.13330092  0.48201155
  N -1.88195662 -1.08722807 -0.33318401
  C -2.69809343 -2.28572267 -0.27967210
  C -2.59789878  0.09225556 -0.27529592
  C -2.02774016  1.29496163 -0.10211203
  C -2.75901247  2.57088148 -0.01368591
  N -4.12764814  2.51806977  0.00092161
  O -2.18984750  3.63650262  0.12895588
  C  0.31100354 -2.24591691 -0.00779842
  C  0.20853480 -3.42019361  0.82242979
  N  0.11435523 -4.32305757  1.51887214
  N  1.64666568 -1.66556926  0.00728491
  C  1.43135955 -0.27115296 -0.37928338
  C  2.58375312  0.68940722 -0.05659623
  N  3.50407367  0.28329435  0.84133089
  C  4.59742971  1.15825416  1.20691465
  O  2.62489186  1.79373535 -0.55456028
  C  1.19630158 -0.23997085 -1.89427025
  H -0.19916257  1.62587900 -1.09238102
  H -0.25330742  2.27960063  0.52279594
  H  0.50964380  0.34313821  1.46884328
  H -0.96411533 -1.33517617  1.53281966
  H -3.33492398 -2.32147547 -1.16359814
  H -3.33289409 -2.31497701  0.61513968
  H -2.07345953 -3.17598014 -0.27146984
  H -3.66334204 -0.03990935 -0.40213458
  H -4.63974163  1.71610471 -0.31589034
  H -4.58653357  3.41149143 -0.08347106
  H  0.06079886 -2.51878261 -1.04070978
  H  2.00682415 -1.73475788  0.95751372
  H  3.54622602 -0.66592472  1.16701138
  H  4.20466542  2.15667753  1.39962281
  H  5.08559584  0.77524538  2.09877229
  H  5.32327204  1.23255032  0.39381388
  H  1.85470516 -0.97162720 -2.35792614
  H  0.16588055 -0.47231894 -2.14684001
  H  1.44850303  0.74300314 -2.28191862
