53
opt_min/./Product_5634_opt.xyz
  C -4.54122104 -0.82554236  0.10745314
  C -3.13594516 -0.43305702  0.45955242
  C -2.90743798 -0.19142580  1.92137543
  C -2.19860282 -0.35709817 -0.48155945
  C -0.75978387 -0.00417690 -0.28069723
  C  0.16827564 -0.53955958 -1.37708454
  C  0.41922006 -2.02381675 -1.39731242
  C -0.20758687 -2.86004755 -0.32227335
  C  1.12335836 -2.56969780 -2.38097310
  C  1.37324659  0.43268267 -1.22862445
  C  2.19429940  0.47382539 -2.53973815
  C  3.66411611  0.19662850 -2.41007164
  O  1.65987283  0.73633821 -3.58064181
  C  2.22400987  0.23589041  0.01107333
  C  2.66289888  1.36557693  0.69897745
  C  3.42034569  1.24113688  1.84649041
  C  3.75990286 -0.01322289  2.32598779
  C  3.35705998 -1.13997539  1.63205431
  C  2.59795296 -1.01435332  0.47875319
  O  0.69736255  1.69187857 -1.16152380
  C -0.48873033  1.53621593 -0.40032113
  C -1.66537693  2.21061494 -1.15362016
  N -2.59722116  2.73983277 -0.33426542
  C -3.81017231  3.33818984 -0.83742679
  O -1.73734804  2.20714154 -2.35530470
  C -0.30327056  2.10139819  0.92015450
  N -0.12985729  2.52960927  1.96843526
  H -5.25943565 -0.22217931  0.65855272
  H -4.71281694 -1.86887955  0.37603676
  H -4.72581310 -0.71331587 -0.95715027
  H -3.14352003 -1.09128411  2.48945871
  H -1.88704737  0.10344479  2.14511263
  H -3.57273118  0.59634492  2.27395038
  H -2.47825736 -0.52640161 -1.51301845
  H -0.40019773 -0.33254969  0.69995035
  H -0.27382857 -0.25333995 -2.34344132
  H -1.29236169 -2.77656630 -0.37797516
  H  0.06964792 -3.90342314 -0.44614530
  H  0.09633386 -2.53258231  0.67120112
  H  1.27757727 -3.63324169 -2.44347933
  H  1.53836546 -1.97647744 -3.17778925
  H  4.11825683  0.17355588 -3.39705637
  H  3.83184691 -0.74237641 -1.88980504
  H  4.11906478  0.99061313 -1.81962016
  H  2.40600129  2.34429668  0.32179735
  H  3.74643137  2.12834661  2.36823098
  H  4.34545792 -0.11182840  3.22876317
  H  3.62977992 -2.12326506  1.98589131
  H  2.32276612 -1.90083233 -0.07149378
  H -2.46041171  2.72199973  0.66456541
  H -3.94178708  4.33648767 -0.42103411
  H -4.67655505  2.72264178 -0.58436460
  H -3.72038241  3.40288501 -1.92028299
