22
opt_min/./Product_3283_opt.xyz
  C -1.93957803  0.97161388 -0.87887408
  C -0.89874274  0.01876327 -1.47067601
  C -0.21847434 -0.57852099 -0.20451780
  C  0.94666374  0.34971716  0.17451850
  O  2.12803504 -0.23815010  0.04690440
  C  3.26918315  0.55649764  0.35622016
  O  0.79065498  1.49059422  0.51826926
  C  0.20974261 -2.03064160 -0.34969028
  N -1.20252753 -0.44688506  0.85136324
  C -2.09947758  0.37765545  0.50001564
  C -3.20643447  0.68736455  1.32361808
  N -4.13843264  0.91798126  1.94742120
  H -1.52286853  1.97698718 -0.75859465
  H -2.86979892  1.04059683 -1.43985739
  H -0.19254196  0.51424699 -2.13346358
  H -1.38532081 -0.79257191 -2.01622500
  H  3.16908839  1.54924733 -0.08798556
  H  3.36193901  0.66254196  1.43939423
  H  4.12575468  0.02688170 -0.05263396
  H  0.72201031 -2.36027270  0.54962743
  H -0.66994166 -2.65499410 -0.49454650
  H  0.87943087 -2.14777577 -1.19820211
