33
opt_min/./Product_3549_opt.xyz
  C  0.42580200 -2.37926000 -0.53380700
  C  0.01740775 -0.96063979 -0.17803304
  C -1.32173497 -0.82079108  0.55522339
  C -2.52462405 -1.03815931 -0.34964571
  C -1.17358622  0.60510709  1.12092907
  C -1.61311884  1.66057369  0.09559621
  C -2.98434770  2.24247845  0.33610292
  O -0.89564756  2.02259642 -0.79924178
  O  0.19442979  0.76210354  1.43078439
  C  0.98427204 -0.21626296  0.76836124
  C  2.09175861  0.45826888 -0.05514732
  O  2.19574995  1.74874697  0.21181259
  C  3.15213516  2.47841439 -0.54684207
  O  2.75864337 -0.13118992 -0.86842864
  C  1.65886409 -1.10704316  1.81445473
  H  0.37729010 -3.04117205  0.32956471
  H -0.22164314 -2.77175922 -1.31365740
  H  1.44455814 -2.37066173 -0.91459642
  H -0.04719239 -0.37232756 -1.10073488
  H -1.36571955 -1.52566406  1.39331573
  H -2.49335876 -2.04488391 -0.76354871
  H -3.45398271 -0.91801856  0.20338568
  H -2.51604919 -0.32601590 -1.17237017
  H -1.74269778  0.75201903  2.04763483
  H -3.58965301  1.61855436  0.98395810
  H -3.48625934  2.39810370 -0.61814958
  H -2.85430656  3.22037940  0.80419634
  H  2.91586065  2.41287067 -1.61169938
  H  4.15458016  2.07977725 -0.38133283
  H  3.07994627  3.50857158 -0.20544700
  H  0.91094209 -1.68671859  2.35157312
  H  2.18312997 -0.47366836  2.52644135
  H  2.36770617 -1.77855931  1.33964907
