40
opt_min/./Product_741_opt.xyz
  C  1.65534000 -2.57534000 -1.22031200
  C  0.83431968 -1.49909507 -0.61286102
  C -0.49542142 -1.26403428 -0.68710937
  C -1.46136851 -2.02811086 -1.50005570
  F -2.15654309 -1.25200293 -2.36255952
  F -2.39127139 -2.68492357 -0.76546329
  F -0.89206322 -2.97500537 -2.26051685
  C -0.81096425 -0.12041403  0.29834977
  C -1.00576011 -0.75352091  1.69647336
  C -1.98854453  0.81160978  0.10701795
  C -1.87785098  2.15799193  0.44142678
  C -2.96661670  3.00689009  0.35302446
  C -4.19764645  2.52475531 -0.05069538
  C -4.33616218  1.17536429 -0.32026301
  C -3.24907365  0.32534914 -0.22529765
  N  0.49550124  0.57638590  0.31385460
  C  0.71836201  1.49461552 -0.81987934
  N  1.41155778 -0.50777832  0.17156309
  C  2.65783836 -0.45060496  0.78087097
  N  2.79199302  0.63261827  1.57822364
  C  4.00624307  0.89203691  2.30900013
  O  3.51917943 -1.28862487  0.61757901
  H  1.49356245 -2.62184296 -2.29433869
  H  1.36978344 -3.53808061 -0.79943755
  H  2.70556075 -2.40147995 -1.01041397
  H -1.85527464 -1.42885355  1.67795022
  H -1.18861184  0.02810587  2.42876691
  H -0.11816674 -1.31161982  1.98640663
  H -0.94017468  2.54804362  0.80093237
  H -2.84659782  4.04866488  0.61210901
  H -5.04739892  3.18598283 -0.12994751
  H -5.29821285  0.77205661 -0.59782418
  H -3.40785804 -0.72333750 -0.39413229
  H  0.99806328  2.47580238 -0.43840599
  H  1.53489628  1.12643835 -1.44148996
  H -0.16796252  1.59201608 -1.44327739
  H  1.99193825  1.23217159  1.70262403
  H  4.59690664  1.67582149  1.82615094
  H  4.59143514 -0.02630492  2.32479524
  H  3.77413676  1.19810923  3.32815015
