72
opt_min/./Product_3189_opt.xyz
  N  3.16238844 -1.82924744  2.58895199
  C  2.63187909 -1.13512260  1.84888545
  C  2.22241674 -0.34043772  0.68366131
  C  2.46647692 -1.28132869 -0.52680232
  C  1.87885041 -0.99867584 -1.74785895
  C  2.12307736 -1.77455043 -2.86683209
  C  2.96626941 -2.86526283 -2.77370426
  C  3.56602137 -3.15683781 -1.56202080
  C  3.32496611 -2.37187950 -0.44740589
  C  0.74502358 -0.00717014  0.73397770
  C -0.18928791  0.71179063  0.05727869
  C -0.04808988  2.12433063 -0.51070723
  C -0.53491122  2.39478513 -1.95600981
  F -0.20549607  1.42115883 -2.80944592
  F  0.01180614  3.50855365 -2.46080047
  F -1.84948095  2.57151254 -2.07475414
  C -0.88450835  3.06349467  0.41872537
  F -0.61878206  4.36156387  0.20821287
  F -2.20511813  2.98036460  0.32436751
  F -0.57813436  2.82870099  1.70312417
  C  1.37867832  2.73848037 -0.37707178
  C  2.46215059  2.24623226 -1.34176117
  C  3.59798958  1.48801848 -0.64230581
  C  3.29949467  0.77065681  0.67028718
  C -1.53178056 -0.08163453  0.30440271
  C -1.57377828 -1.37960670 -0.52995858
  C -2.14941643 -2.48783287  0.08363416
  C -2.23736542 -3.69863804 -0.57470886
  C -1.76764183 -3.81923702 -1.87078324
  C -1.23733636 -2.71190426 -2.50393634
  C -1.14696536 -1.49844427 -1.84251854
  C -2.92192360  0.50671404  0.14517619
  C -3.51326427  0.57869507 -1.11106404
  C -4.81366005  1.02628498 -1.25045078
  C -5.55368078  1.37279844 -0.13418925
  C -4.98768719  1.26913373  1.12281635
  C -3.68195919  0.83445501  1.26080318
  O -1.37260515 -0.48995665  1.66418096
  C  0.00469160 -0.70238073  1.87668150
  C  0.42556402  0.14369078  3.14159607
  N -0.60716137  0.76791852  3.70419660
  C -0.44662190  1.59405450  4.87519964
  O  1.57135713  0.24841127  3.51568703
  C  0.27768063 -2.12247433  1.99630814
  N  0.37645123 -3.26180626  2.01063501
  H  1.21883795 -0.15728355 -1.83313554
  H  1.65145721 -1.52000336 -3.80324143
  H  3.15994849 -3.47951062 -3.63991441
  H  4.22988777 -4.00243312 -1.47248582
  H  3.81438663 -2.62554527  0.47854827
  H  1.70963039  2.62679087  0.65260127
  H  1.25324590  3.80634335 -0.55690377
  H  2.90582354  3.11523598 -1.82479579
  H  2.04047030  1.64680223 -2.14130718
  H  4.02261647  0.76585023 -1.34495541
  H  4.38709227  2.20544369 -0.40762475
  H  4.23703002  0.26701478  0.92712004
  H  3.09331823  1.46317941  1.48912708
  H -2.52502673 -2.40314727  1.09190063
  H -2.67573769 -4.54683783 -0.07195420
  H -1.82878959 -4.76542200 -2.38649151
  H -0.88776068 -2.78412840 -3.52259275
  H -0.76160484 -0.65346500 -2.38056918
  H -2.96625065  0.27527313 -1.98969063
  H -5.24682720  1.09279993 -2.23609215
  H -6.57472598  1.70666728 -0.24150412
  H -5.55923204  1.52301969  2.00229930
  H -3.25968310  0.75303791  2.25036449
  H -1.50667065  0.72380058  3.24660823
  H -1.33349915  1.51516570  5.50126102
  H  0.42701024  1.24538384  5.42343259
  H -0.29266509  2.63835501  4.59409299
