53
opt_min/./Product_2095_opt.xyz
  C  1.34796977 -2.64280810  0.20829302
  C  0.08863804 -1.99036460 -0.39780632
  C  0.13190649 -2.19389316 -1.92339712
  C  0.12197821 -0.50283660 -0.09730818
  C -0.76144492  0.46739869  0.26913908
  C -2.25304665  0.59608238  0.53944661
  C -2.43449456  1.07498179  1.90986870
  N -2.66854347  1.24613440  3.01310409
  C -2.82076493  1.62474664 -0.48655422
  F -2.01690032  1.75970067 -1.56561647
  F -2.99274508  2.85471606  0.00210825
  F -4.01243802  1.27118039 -0.98973675
  C -3.15454500 -0.65284789  0.49488656
  C -3.03756288 -1.43230023 -0.81473180
  C -2.41016477 -2.79733463 -0.57068238
  C -1.10379880 -2.75351321  0.21660089
  C -0.01414580  1.73182499  0.31977383
  C -0.45668003  3.09269811  0.75393465
  C -0.09717037  4.17086858 -0.23000521
  O -0.96010611  3.29387602  1.82669501
  N  1.21282210  1.60399641 -0.03044095
  C  1.47195221  0.20689336 -0.20799516
  C  2.30343604 -0.01521230  1.11422875
  N  3.61192436  0.20188692  0.97258512
  C  4.51777426  0.14794682  2.09639005
  O  1.75235087 -0.26740358  2.15645204
  C  2.25272550 -0.00071932 -1.50770931
  C  1.81629241  0.91247623 -2.61177579
  O  3.15168606 -0.79629197 -1.62498187
  H  1.42343318 -2.40496903  1.26524819
  H  2.25407305 -2.33034107 -0.30035062
  H  1.28323507 -3.72495803  0.11711669
  H  1.09117827 -1.89754267 -2.33356086
  H -0.00149006 -3.25092324 -2.14029336
  H -0.64631730 -1.63039404 -2.43099186
  H -4.18069047 -0.31497138  0.65716198
  H -2.90613464 -1.28979278  1.34240301
  H -2.44291500 -0.86969638 -1.53508379
  H -4.02567860 -1.56943613 -1.25651451
  H -3.11597886 -3.42177576 -0.01847765
  H -2.24297956 -3.28570242 -1.53060222
  H -0.79977055 -3.79506987  0.33891167
  H -1.26032219 -2.36785759  1.22428274
  H -0.37654854  3.88168728 -1.24006144
  H -0.58160529  5.10187562  0.04989891
  H  0.98433551  4.29082548 -0.20061103
  H  4.00333212  0.43164393  0.07441287
  H  4.88597760  1.14645634  2.33887562
  H  5.36076229 -0.50311478  1.86561539
  H  3.97131069 -0.24778293  2.95040028
  H  1.84821582  1.93952616 -2.25325006
  H  2.46055088  0.78519375 -3.47790520
  H  0.78352822  0.69766091 -2.88135769
