47
opt_min/./Product_1940_opt.xyz
  C -0.77460500 -2.98598900 -0.42464100
  C  0.54112066 -2.24653146 -0.28652989
  O  1.55597167 -2.70428952 -0.73431985
  C  0.44487842 -0.90425153  0.44979182
  C  1.75431506 -0.19094204  0.87658179
 Br  3.35160309 -0.61352388 -0.12852518
  C  1.86626544 -0.58289878  2.37397060
  C  1.97017991 -2.08558605  2.47832428
  C  0.75356448 -2.53538341  2.20465438
  C -0.06902874 -1.29143623  1.89596550
  O  0.52000753 -0.34347186  2.76234979
  C  1.41986940  1.31617715  0.80805721
  C  2.67266370  2.13852256  0.46335728
  C  2.84577449  2.57680043 -0.96133684
  O  3.45399627  2.40682664  1.34088971
  N  0.31201414  1.41179162 -0.08353529
  C -0.28326351  2.67377398 -0.42399555
  C -0.30934702  0.14947615 -0.42921820
  C -0.02359614 -0.10424947 -1.92450114
  C -1.79497463  0.17407031 -0.11066792
  C -2.76405920 -0.30707168 -0.98173408
  C -4.10579775 -0.26026298 -0.63964714
  C -4.50150323  0.27226556  0.57372480
  C -3.54532524  0.76251202  1.44695878
  C -2.20556830  0.71439280  1.10714279
  H -1.59503207 -2.50233054  0.09181544
  H -1.01751700 -3.07278924 -1.48275305
  H -0.64131695 -4.00148476 -0.05668213
  H  2.57624389  0.01574562  2.93768064
  H  2.87470075 -2.62168088  2.68297067
  H  0.38508669 -3.54075730  2.18801448
  H -1.14187240 -1.33925253  2.04543436
  H  1.13021552  1.64394051  1.82811706
  H  2.53439429  3.61718934 -1.04583438
  H  2.25276916  1.97157420 -1.63802498
  H  3.89996996  2.52031989 -1.22553452
  H -1.31986358  2.74390441 -0.07379746
  H  0.28894060  3.46677641  0.05084530
  H -0.27702489  2.83623124 -1.50731486
  H  1.01985851  0.12818546 -2.12830898
  H -0.64990959  0.55256966 -2.52462349
  H -0.19585332 -1.12987912 -2.23121036
  H -2.48434118 -0.72943896 -1.93304637
  H -4.84359754 -0.64204732 -1.33020106
  H -5.54793082  0.30906833  0.83755558
  H -3.84109200  1.18461953  2.39565456
  H -1.46883060  1.10471874  1.79279026
