55
opt_min/./Product_5813_opt.xyz
  C  2.14636200 -0.68520400 -1.12033000
  C  0.72635271 -0.18543307 -1.33743826
  C -0.27462964 -0.98546997 -0.47953085
  N  0.20051858 -1.22550519  0.86655885
  C -0.51321127 -2.21382613  1.65169189
  C  1.49861443 -0.98774754  1.21432094
  C  2.47953113 -0.67343806  0.34576449
  C  3.86605656 -0.34304141  0.69297892
  N  4.23534971 -0.44380584  1.99980109
  O  4.67101433  0.02249271 -0.14991224
  C -1.51642092 -0.02117686 -0.54689511
  C -2.14787509 -0.23070379 -1.94630154
  N -2.54583048 -1.50208650 -2.21213953
  C -3.16012527 -1.86739458 -3.46740873
  O -2.22821026  0.65461844 -2.76363872
  C -2.52254469 -0.13063159  0.58520559
  C -3.81385151 -0.61513380  0.41650633
  C -4.69717626 -0.66350193  1.48224906
  C -4.31008871 -0.22417352  2.73516550
  C -3.03000188  0.27183383  2.91261574
  C -2.14643698  0.31993670  1.85052663
  N -0.94393435  1.30628286 -0.56164292
  C  0.44566347  1.29064003 -0.97106206
  C  1.31408238  1.82768481  0.20691472
  C  2.60197381  2.49996234 -0.13967812
  O  0.84795500  1.83728238  1.32264733
  C  0.55951139  2.31895461 -2.12241574
  C  1.07935460  1.84398154 -3.45068229
  O  0.21278311  3.45512398 -1.93945429
  H  2.21766874 -1.71179443 -1.49629499
  H  2.88597405 -0.09609937 -1.66294602
  H  0.43561460 -0.33159749 -2.38063559
  H -0.49372624 -1.95234295 -0.94985138
  H -1.39819930 -2.54437195  1.11297202
  H  0.11904920 -3.08645703  1.84436401
  H -0.83635768 -1.79852707  2.60751381
  H  1.66090839 -1.05168280  2.28232984
  H  3.63586983 -0.83251763  2.70194432
  H  5.21674750 -0.36750991  2.20783622
  H -2.53909569 -2.19935801 -1.48531190
  H -4.17793127 -2.23144590 -3.31383737
  H -3.18702685 -0.97226115 -4.08620985
  H -2.57760578 -2.64169212 -3.97017670
  H -4.16223082 -0.93046262 -0.55404487
  H -5.69695109 -1.04055926  1.32598211
  H -5.00334303 -0.25618892  3.56201370
  H -2.71750270  0.63009374  3.88252532
  H -1.15072702  0.70602085  2.01184537
  H -1.09312541  1.84935485  0.27747199
  H  3.18879278  2.65571221  0.76396023
  H  2.35349145  3.47466477 -0.56112055
  H  3.19450819  1.95518377 -0.86756632
  H  1.38257350  2.70367080 -4.04361348
  H  0.25607945  1.34905671 -3.96582098
  H  1.90466616  1.14707772 -3.34739871
