42
opt_min/./Product_517_opt.xyz
  C -1.47046042 -1.65112894 -1.93222347
  C -0.91066247 -1.85027524 -0.51684858
  C -1.94644700 -2.59473899  0.32991520
  C -0.38627373 -0.50754877  0.11276274
  C -0.42407379 -0.52822818  1.65036503
  C -1.16635378  0.69153181 -0.38632616
  C -0.70724555  1.58593331 -1.34743348
  C -1.46823885  2.67174319 -1.74931026
  C -2.71887424  2.88920828 -1.20518097
  C -3.20341715  1.99759444 -0.26528512
  C -2.43811908  0.92036101  0.13746649
  C  1.12782484 -0.60874369 -0.26403544
  C  2.05767172  0.21212903  0.66114360
  N  2.06643169  1.53240993  0.38500599
  C  2.86046627  2.46489750  1.15117490
  O  2.71800627 -0.29772120  1.53454451
  C  1.47162364 -0.33323442 -1.64131375
  N  1.86170457 -0.26188658 -2.71870502
  N  1.34213971 -2.03152526  0.02216941
  C  2.58876672 -2.64043744 -0.40866897
  O  0.24086538 -2.68537535 -0.63603392
  H -2.52340637 -1.39516323 -1.89601697
  H -1.34908152 -2.58656507 -2.47151958
  H -0.93799158 -0.87491360 -2.47512788
  H -2.82817254 -1.98480543  0.50028440
  H -2.24393455 -3.48901661 -0.21143183
  H -1.51818306 -2.90352853  1.27738462
  H -0.10828085  0.44055827  2.03226977
  H -1.41690414 -0.73009888  2.03284006
  H  0.25928540 -1.28527655  2.02656331
  H  0.24218116  1.43516501 -1.83706504
  H -1.07438870  3.34331066 -2.49804055
  H -3.31205537  3.73550328 -1.51453775
  H -4.18486526  2.14142266  0.16091710
  H -2.85083763  0.24917815  0.87048168
  H  1.46822814  1.91500097 -0.32762378
  H  3.48623320  1.88766701  1.82760279
  H  2.22187734  3.13332537  1.73210236
  H  3.48943706  3.05622568  0.48510248
  H  2.35508799 -3.53773979 -0.97813500
  H  3.19852090 -1.98232575 -1.02917657
  H  3.14835382 -2.91132909  0.48572921
