32
opt_min/./Product_4341_opt.xyz
  O  0.89263700  3.23085400  1.07642700
  C  1.18375271  4.10412967  0.39237753
  O  1.45129526  4.99377554 -0.26842398
  C -0.18709642  2.26153945 -1.78049818
  C -1.42549784  1.75324831 -1.84684997
  C -2.27656953  3.34469678  0.88284462
  O -2.42087797  4.18364038  0.11883945
  O -2.10559141  2.52315323  1.65974853
  C -1.35501180  0.31464284 -1.43030027
  C -2.23378860  0.10935714 -0.16171111
  N -1.57931453 -0.48750246  0.83313267
  C -2.20052939 -0.79394714  2.09979344
  O -3.38980140  0.46420591 -0.13946173
  C -1.87822816 -0.66499117 -2.48768152
  N  0.02498985  0.07660543 -1.12893046
  C  0.66209690  1.18252179 -1.31027385
  C  2.10541177  1.34025469 -1.01570805
  O  2.74497435  2.32139757 -1.31264876
  O  2.59018521  0.29726302 -0.34624259
  C  3.96905593  0.33282829 -0.00414888
  H  0.14675539  3.25741273 -1.99453712
  H -2.35191707  2.22692796 -2.10441316
  H -0.61028988 -0.73121809  0.67457148
  H -2.98742047 -0.06513169  2.28738678
  H -2.64330658 -1.79309334  2.08624105
  H -1.45590344 -0.73822935  2.88988803
  H -2.94853635 -0.52529166 -2.61180373
  H -1.37421772 -0.48333786 -3.43363852
  H -1.67614709 -1.68272556 -2.16465922
  H  4.07907114 -0.23145736  0.91931057
  H  4.29982636  1.36461156  0.13032047
  H  4.55587428 -0.13132716 -0.79930968
