39
opt_min/./Product_4127_opt.xyz
  N -1.76333900 -0.62980800  0.17914200
  C -1.20933140  0.77968267  0.32144748
  N -1.79186249  1.58077710 -0.70592607
  N -1.48052548  1.16126017  1.69706791
  C -2.77499528  1.72971480  2.01736500
  C  0.28177019  0.55505940  0.16491551
  C  1.07305619  1.60018101 -0.51577531
  N  2.19530877  1.16624646 -1.10731027
  C  3.07023909  2.03466211 -1.84824559
  O  0.69808154  2.77149014 -0.55098582
  C  0.85999716 -0.39044012  1.07865926
  O  0.20729988 -1.20219360  1.74716238
  O  2.21014402 -0.34880907  1.14604804
  C  2.83818572 -1.28753916  2.00249170
  O  0.00409545 -0.78173013 -1.34962500
  C -1.18976076 -1.30687246 -1.13110739
  C -1.15327251 -2.81073357 -0.79753576
  C -2.21213905 -1.02140318 -2.24097138
  H -1.30847567 -1.10681691  1.00357459
  H -2.77944957 -0.64160757  0.20984878
  H -2.56706992  2.13113030 -0.36008601
  H -1.10531859  2.20869458 -1.10859004
  H -0.73546383  1.74577148  2.05323221
  H -2.92925247  2.75050638  1.63946011
  H -2.86182024  1.75725221  3.10206052
  H -3.56606853  1.08780464  1.62896416
  H  2.33686667  0.17088768 -1.15271176
  H  3.15070566  1.70847542 -2.88630680
  H  4.06702283  2.05077637 -1.40045999
  H  2.64739110  3.03797314 -1.81333762
  H  3.74998539 -1.61889350  1.50793739
  H  2.17371331 -2.13339973  2.18710799
  H  3.08525399 -0.80767946  2.95247897
  H -0.78106088 -3.34753455 -1.66516361
  H -0.47120056 -2.98437236  0.03019322
  H -2.14228541 -3.18601163 -0.54572724
  H -1.83925722 -1.45122228 -3.16598718
  H -2.30518182  0.05259148 -2.36889925
  H -3.17886984 -1.46314852 -2.01095104
