39
opt_min/./Product_4187_opt.xyz
  C  3.54618680 -1.79183682 -0.57105671
  C  3.81215075 -0.78284340 -1.64615626
  C  4.88101147 -1.12649667 -2.64532722
  C  3.16819849  0.38754706 -1.75699565
  C  2.11181812  0.94845022 -0.93938695
  C  1.20776173  0.27314438 -0.23238896
  C  0.08312070  0.82240138  0.60692597
  C  0.32571359  0.50931914  2.09142174
  C -0.22037602  2.32643868  0.43696072
  C -1.60321612  2.29936028 -0.17249986
  C -2.30925215  3.44891016 -0.52605315
  N -2.84411263  4.42951265 -0.79809322
  N -2.05667675  1.10347109 -0.31516838
  N -1.19129845  0.20566643  0.11813928
  C -1.48391410 -1.13565417 -0.08745982
  C -0.79119918 -2.18005635  0.52467183
  C -1.14295165 -3.49347067  0.27133018
  C -2.19030561 -3.79741403 -0.57938973
  C -2.89259220 -2.76446404 -1.17973000
  C -2.54486969 -1.45155325 -0.94391593
  H  2.68952183 -2.41396083 -0.83130547
  H  4.40286139 -2.44757653 -0.43675064
  H  3.33324357 -1.29473286  0.37354524
  H  4.44556643 -1.24072131 -3.63790653
  H  5.62453142 -0.33333914 -2.70304943
  H  5.38521339 -2.05292189 -2.38600528
  H  3.49750783  1.05452929 -2.54452170
  H  2.08287555  2.03117414 -0.96427485
  H  1.21229032 -0.80300450 -0.26241860
  H  0.79262057 -0.45993326  2.23764836
  H  0.99699715  1.25751793  2.50764634
  H -0.61336055  0.53421653  2.64100277
  H  0.48247688  2.84521936 -0.21403979
  H -0.23504290  2.84923668  1.39520446
  H  0.01619883 -1.98965981  1.21027713
  H -0.59065890 -4.28688355  0.75397521
  H -2.45759129 -4.82541112 -0.77017995
  H -3.71488873 -2.98367484 -1.84424019
  H -3.08679876 -0.64705164 -1.41493814
