40
opt_min/./Product_912_opt.xyz
  C -1.35161300  0.38751000  3.63224000
  O -1.14525763  0.62359576  2.24598487
  C -1.08204644 -0.42997162  1.44410997
  O -1.28341190 -1.56337318  1.79585085
  C -0.83749692 -0.08776256 -0.02328493
  C -1.00873681  1.35678999 -0.58224729
 Cl -0.82987280  2.73122691  0.53508980
  C -2.36651231  1.34635467 -1.30611406
  C -2.14223583  0.70522678 -2.68253305
  C -1.79313128 -0.75241045 -2.31445910
  C -1.98775722 -0.80032055 -0.78999553
  C -3.10537613  0.22530915 -0.57917827
  N  0.10036597  1.52411811 -1.50560651
  N  0.91563464  0.62215932 -1.44734878
  C  0.62768574 -0.37406670 -0.44655310
  C  1.58002327 -0.05680326  0.75882316
  N  2.51348545  0.85825371  0.49882820
  C  3.48028183  1.23778905  1.50450256
  O  1.44888229 -0.61269501  1.82699450
  C  1.07089962 -1.76803617 -0.92028807
  C  0.67236893 -2.91087719 -0.05063142
  O  1.75685324 -1.87454264 -1.90267566
  H -1.20636019 -0.67105477  3.85052725
  H -0.62923138  0.99468797  4.17481093
  H -2.36660076  0.69151678  3.89244075
  H -2.83861864  2.32462813 -1.32757840
  H -1.34828273  1.19927178 -3.24162429
  H -3.05903517  0.76039678 -3.26830170
  H -0.78059576 -1.01620968 -2.61495551
  H -2.47264363 -1.45715876 -2.79392918
  H -2.17946046 -1.80033349 -0.40624333
  H -3.31252019  0.44460862  0.46581744
  H -4.02940799 -0.05482783 -1.08239795
  H  2.56719271  1.28059374 -0.41921793
  H  4.15223902  0.40461634  1.72002808
  H  2.96311385  1.50531847  2.42720236
  H  4.05256688  2.08620159  1.14329382
  H  1.16572170 -3.81630749 -0.39203641
  H  0.94411008 -2.68536879  0.98052161
  H -0.40502154 -3.05019160 -0.05933183
