40
opt_min/./Product_756_opt.xyz
  C -2.87654000 -0.36997900  2.25853500
  O -1.45800740 -0.42855726  2.27599228
  C -0.73420048 -0.70146364  1.12979235
  C  0.72024210 -1.06488314  1.56195793
  F  0.82073361 -1.32686759  2.89877272
  C  0.92337836 -2.39963683  0.78349347
  C  0.89261097 -2.08289098 -0.69981850
  C -0.38075645 -1.85245115 -0.98375617
  C -1.11325771 -2.00531587  0.32872124
  O -0.34578491 -2.99324491  0.99089734
  C  1.54142701  0.17868599  1.20133558
  C  3.01487518 -0.16283576  1.04564348
  O  3.79632342 -0.13183173  1.95669340
  O  3.32501766 -0.52005050 -0.19995853
  C  4.66767289 -0.93073921 -0.45862999
  N  0.87137541  0.62479749  0.01008423
  C  1.35568148  1.81153909 -0.63273107
  N -0.53972711  0.47397481  0.28707347
  C -1.62180215  1.10801917 -0.28591311
  N -1.50954321  2.44264458 -0.51747197
  C -2.53768483  3.16630131 -1.22464888
  O -2.63628862  0.48267142 -0.54322229
  H -3.31407033 -1.18896396  1.68897634
  H -3.15888221 -0.45193772  3.30779409
  H -3.22764635  0.57663494  1.84400265
  H  1.72534062 -3.02466670  1.16620358
  H  1.76004833 -2.03794701 -1.32534882
  H -0.84523494 -1.56582523 -1.90532670
  H -2.16555170 -2.25414838  0.30519847
  H  1.45007953  0.88156616  2.05660891
  H  5.23365310 -0.95412748  0.47469316
  H  5.11719446 -0.22283014 -1.15494689
  H  4.63248595 -1.92428244 -0.90597209
  H  2.36896761  1.58803239 -0.96751248
  H  0.74199231  2.00856736 -1.50984380
  H  1.39654535  2.70160247  0.01664773
  H -0.73217573  2.96630876 -0.15905856
  H -3.43452600  2.54705130 -1.23672471
  H -2.74666689  4.10942656 -0.71975682
  H -2.23825305  3.36989602 -2.25808694
