52
opt_min/./Product_5554_opt.xyz
  C  0.22453100 -2.10740000 -0.95470500
  C -0.10802990 -0.61935250 -0.86385236
  C -0.25125774 -0.06746847 -2.28288611
  C  1.01671961  0.17904131 -0.12596459
  C  1.98778287 -0.65847993  0.65008882
  C  3.27139908 -0.78586542  0.32062176
  C  4.26925287 -1.55000418  1.05296782
  C  3.82918815 -2.34358542  2.24644007
  C  5.54357691 -1.52108052  0.67000521
  N  0.31311715  1.04191747  0.79246850
  C  0.38825277  2.41127968  0.86010110
  C  1.52707073  3.08332735  0.39363197
  C  1.61800996  4.45590870  0.50286420
  C  0.59785538  5.19293150  1.08165493
  C -0.51231674  4.53085575  1.57412856
  C -0.61718897  3.15841409  1.47487665
  O -0.89187725  0.40592851  1.14941387
  C -1.36140616 -0.33714710  0.02750208
  C -2.57252895  0.40098211 -0.63584622
  N -3.19376291  1.19514965  0.24856199
  C -4.38204179  1.93598037 -0.10704818
  O -2.94846358  0.22383019 -1.76878806
  C -2.09893469 -1.57525681  0.55163877
  O -2.44989783 -2.51172521 -0.11118933
  O -2.37964951 -1.42771604  1.84817025
  C -3.13497425 -2.46669996  2.45941161
  H  1.17606390 -2.23060472 -1.46968043
  H  0.30301226 -2.56723478  0.02906813
  H -0.55219178 -2.62664259 -1.50980575
  H -1.08615146 -0.53918849 -2.79262981
  H  0.66151161 -0.26986950 -2.84012309
  H -0.43109530  1.00654171 -2.27308326
  H  1.55612854  0.78183952 -0.86275919
  H  1.58863573 -1.11950076  1.54076285
  H  3.63635061 -0.29374824 -0.57364743
  H  4.65125322 -2.94729662  2.62361801
  H  2.99422967 -2.99438202  1.99001292
  H  3.50216764 -1.67025381  3.03904649
  H  6.31793463 -2.06651489  1.18196750
  H  5.86691352 -0.94485439 -0.18336593
  H  2.34602670  2.52878732 -0.03412555
  H  2.50006145  4.95571455  0.12974801
  H  0.67381511  6.26714115  1.16219353
  H -1.30636241  5.09047036  2.04769147
  H -1.47627667  2.65085597  1.88400923
  H -2.84253923  1.24810740  1.19348233
  H -4.56366309  2.70746671  0.63502875
  H -5.24733830  1.27040377 -0.16878089
  H -4.23908755  2.39296151 -1.08750435
  H -4.20066860 -2.26367074  2.34350722
  H -2.89946243 -3.42750335  1.99770743
  H -2.86283175 -2.46773706  3.51318843
