55
opt_min/./Product_2230_opt.xyz
  C -2.25170000  2.47580500 -0.12311800
  C -2.12304380  1.01603230  0.32941216
  C -2.32783426  0.98591323  1.85703038
  C -0.74992131  0.43576692  0.06170930
  C -0.29449280 -0.82630487  0.10038731
  C -0.97700729 -2.17556198  0.19051836
  F -1.52666482 -2.35822532  1.43148070
 Cl  0.26171532 -3.48784865  0.06319987
  C -2.00615343 -2.47294692 -0.91435722
  C -3.47700302 -2.29074176 -0.52344851
  C -3.76975808 -1.00483478  0.24059942
  C -3.21520797  0.24309621 -0.44900118
  C  1.22405449 -0.80648991  0.04977441
  C  1.78098770 -1.57731523 -1.18359150
  N  2.98048355 -2.14790171 -1.01572262
  C  3.63264707 -2.82532262 -2.11574299
  O  1.18447738 -1.54104303 -2.23548610
  C  1.80832973 -1.20973506  1.41768181
  O  1.28363753 -1.91965310  2.22726525
  O  2.99269955 -0.62016473  1.59724171
  C  3.60110494 -0.77450289  2.87387274
  O  1.58648070  0.53868483 -0.18435625
  C  0.42440976  1.36255932 -0.24599197
  C  0.36006682  1.94872397 -1.66467156
  C  0.70482598  2.41209333  0.84280213
  O  0.55992626  2.21574055  2.01879182
  O  1.23111932  3.52358319  0.33226628
  C  1.66100819  4.50835231  1.26341033
  H -1.51197568  3.12045429  0.34863958
  H -3.23685167  2.83503564  0.17776617
  H -2.17834079  2.56647777 -1.20269254
  H -1.90239884  0.08966115  2.30171384
  H -3.38829606  1.03931499  2.09846551
  H -1.82891166  1.83790101  2.31302695
  H -1.73285147 -1.87466828 -1.78339116
  H -1.89901858 -3.52093256 -1.20589503
  H -3.75093956 -3.12785178  0.11946760
  H -4.06427394 -2.32716649 -1.43989153
  H -3.32755626 -1.10949185  1.22742571
  H -4.84416119 -0.90688383  0.38914919
  H -4.03902835  0.92309541 -0.67048113
  H -2.77016907 -0.02536984 -1.40746400
  H  3.45457494 -2.09189833 -0.13111325
  H  3.90717796 -2.10884786 -2.89396061
  H  4.52190409 -3.33251446 -1.75049213
  H  2.94589933 -3.55302942 -2.55001468
  H  4.04487805  0.18429793  3.13495181
  H  2.85130456 -1.06573434  3.61143929
  H  4.37569790 -1.54183300  2.81725029
  H  1.38583268  2.05233316 -2.01426473
  H -0.15613348  1.25455405 -2.32314900
  H -0.11395446  2.92292888 -1.69334574
  H  2.36574064  5.14683741  0.73559728
  H  0.80435642  5.09202893  1.60920718
  H  2.13495813  4.03072470  2.12289590
