33
opt_min/./Product_552_opt.xyz
  C -1.88264800  0.94467900  1.70370100
  C -2.26775332  0.07680423  0.56771048
  C -2.99231262 -1.04095731  0.53706886
 Br -3.76570539 -1.96916997  1.96736583
  C -3.01760833 -1.50084305 -0.90461792
  C -1.58636542 -2.05271103 -1.19364496
  C -0.78716767 -0.73376552 -1.29243740
  C -1.88837739  0.29011028 -0.89028760
  O -3.00805843 -0.25958091 -1.58182315
  C  0.39179951 -0.96464082 -0.33636295
  C  1.09128666  0.24606990  0.21163052
  C  1.76507517  0.17874808  1.42595085
  C  2.43120097  1.28277691  1.92733883
  C  2.44927873  2.46918137  1.21491062
  C  1.80574724  2.53787457 -0.00832023
  C  1.13316332  1.43565256 -0.50643204
  N -0.23346548 -1.81392951  0.67879448
  N -0.92551187 -2.81163949 -0.14013121
  H -0.96764384  1.48476230  1.47976428
  H -1.73746072  0.34552269  2.60028212
  H -2.67262412  1.67088335  1.90197811
  H -3.85683064 -2.11981240 -1.21430131
  H -1.56654725 -2.65861448 -2.10142894
  H -0.46453702 -0.51201128 -2.30928235
  H -1.72560002  1.32055711 -1.18985239
  H  1.12438414 -1.57365672 -0.90828067
  H  1.76443849 -0.73718025  1.99574751
  H  2.94009879  1.21720388  2.87722787
  H  2.96874393  3.33164976  1.60350845
  H  1.82670290  3.45271987 -0.58157490
  H  0.65734539  1.50013733 -1.47285508
  H  0.45442621 -2.31067556  1.24073114
  H -1.59328614 -3.29489226  0.46042435
