51
opt_min/./Product_2021_opt.xyz
  C  0.92724841  4.82436095  1.12808674
  O  1.08002545  3.66048454  0.33416490
  C -0.01467250  2.92180896  0.08788853
  C -0.17906701  1.97691247 -0.86351100
  C  0.70207012  1.60424703 -1.95329097
  C  0.18937745  1.06750390 -3.13491497
  C  1.03345363  0.72125736 -4.17251263
  C  2.40062592  0.90196067 -4.04899440
  C  2.91903866  1.44622276 -2.88507128
  C  2.07998632  1.79769984 -1.84711824
  C -1.54786851  1.39256460 -0.56659158
  C -1.45818274  0.50020579  0.71304085
  C -1.19162558  1.57461237  1.77780930
  C -1.29287948  2.88088422  0.91788528
  O -2.25741854  2.51004936 -0.04603578
  N  0.12737008  1.26740077  2.27738036
  C  0.73483360  1.97773474  3.18861654
  N  1.23442541  2.64437380  3.98232329
  N  0.76562489  0.20907534  1.58886906
  C -0.28296809 -0.49601518  0.86592214
  C  0.27761778 -0.98596529 -0.46709565
  O -0.66606677 -1.52034464 -1.23378321
  C -0.25621509 -2.14320757 -2.44775480
  O  1.44505658 -0.92731880 -0.74755091
  C -0.71339242 -1.73259812  1.65431079
  C -1.81831303 -2.47848420  1.25938862
  C -2.20144765 -3.59457828  1.98036054
  C -1.48624711 -3.98077242  3.10151208
  C -0.38008895 -3.24688389  3.49174538
  C  0.00828424 -2.13136108  2.77068507
  H  1.88535156  5.33587100  1.07669838
  H  0.71397048  4.57092837  2.17003083
  H  0.14363635  5.47534342  0.72975361
  H -0.87827685  0.94066483 -3.24643818
  H  0.62128515  0.31035881 -5.08346281
  H  3.05885859  0.62131427 -4.85781153
  H  3.98416312  1.59161863 -2.78502996
  H  2.48407435  2.22056151 -0.94019704
  H -2.08790006  0.93805850 -1.39032452
  H -2.41574680  0.00443962  0.86089069
  H -1.92272771  1.58678186  2.59096220
  H -1.58836220  3.77346974  1.46135948
  H  1.48586706  0.52993712  0.93613315
  H -0.63727411 -1.56547944 -3.28847399
  H  0.83226214 -2.18648699 -2.49575314
  H -0.68167409 -3.14600790 -2.45754755
  H -2.37374126 -2.19479531  0.37752807
  H -3.06212069 -4.16487991  1.66436739
  H -1.78817920 -4.85115200  3.66462238
  H  0.18864512 -3.54191332  4.36072559
  H  0.87212627 -1.56064878  3.07261187
