34
opt_min/./Product_4086_opt.xyz
  C -1.23586900  1.48780700 -0.69236800
  O -0.48872334  2.38364496 -0.37822688
  C -2.69370178  1.69317071 -0.80383683
  C -3.57883934  0.69174493 -0.77306881
  C -3.18008216 -0.72120614 -0.65744860
  O -3.96928002 -1.63033438 -0.78058427
  C -1.71984865 -0.95326066 -0.37279212
  C -0.77500862  0.07925860 -0.98896186
  C  0.54255697 -0.26045812 -0.26379477
  C  1.21523052 -1.40794787 -1.06910899
  C  1.84323394 -2.54965041 -0.32691329
  O  1.22377502 -1.34671500 -2.26976500
  C  1.52964772  0.92301176 -0.40473602
  O  1.93893118  1.31453686 -1.46140028
  O  1.90529234  1.39567630  0.77799890
  C  2.72941302  2.55406525  0.73953101
  N  0.09121264 -0.48422619  1.08495818
  C  0.89410800 -1.00678391  2.15500276
  C -1.32404424 -0.79849377  1.10826225
  H -3.01252856  2.72605663 -0.86025849
  H -4.64186709  0.87706005 -0.84746478
  H -1.45375172 -1.96065634 -0.71404591
  H -0.65793689 -0.02019355 -2.07338001
  H  1.09595400 -3.06226152  0.27313585
  H  2.26441682 -3.24485799 -1.05194656
  H  2.63239231 -2.18986327  0.32940754
  H  3.73528063  2.29255283  0.40215635
  H  2.29980228  3.28754880  0.05560052
  H  2.75560557  2.94120867  1.75536828
  H  0.52252976 -0.58242133  3.09186819
  H  0.85907904 -2.10198629  2.24311825
  H  1.92320173 -0.68310448  2.02663309
  H -1.88073264  0.04460512  1.54647754
  H -1.53407174 -1.69499588  1.70287348
