40
opt_min/./Product_4337_opt.xyz
  C  1.19468400 -1.25758800 -1.61932900
  C -0.24382874 -0.77339476 -1.83917159
  C -0.80274193 -0.37167345 -0.45199443
  C -1.98809456 -1.32246821 -0.20473197
  O -3.04158916 -1.27788591 -0.78625826
  O -1.70249731 -2.24787306  0.71583397
  C -2.71338499 -3.21586638  0.96381817
  C -1.21551685  1.08906153 -0.37242684
  C -0.29966542  2.05938926 -0.75889230
  C -0.60510603  3.40242262 -0.63874703
  C -1.82755851  3.79603800 -0.12397372
  C -2.73431671  2.83845409  0.29229123
  C -2.42607078  1.49302261  0.17614091
  N  0.27828381 -0.61070800  0.45669069
  C  0.21564563 -0.32673743  1.85472587
  C  1.46909889 -1.16405215 -0.11371794
  C  2.66866571 -0.23026336  0.14703997
  N  3.58651681 -0.72041367  1.00579298
  C  4.76193227  0.02690561  1.38360840
  O  2.75603144  0.87806762 -0.33930942
  H  1.32090678 -2.28066532 -1.97377153
  H  1.89728996 -0.61940269 -2.15707230
  H -0.27812110  0.08393316 -2.50824135
  H -0.85943786 -1.56326366 -2.27314069
  H -2.26628460 -3.96003777  1.61894449
  H -3.04077746 -3.66548191  0.02342378
  H -3.57318373 -2.74562511  1.44678924
  H  0.67560847  1.76616657 -1.11564530
  H  0.12197641  4.14137642 -0.94653549
  H -2.06954893  4.84694933 -0.03551807
  H -3.68469022  3.13320850  0.71360663
  H -3.14509246  0.75780543  0.50903290
  H  0.55427149 -1.19457286  2.43397523
  H  0.83502379  0.54229471  2.12352857
  H -0.81237178 -0.10064079  2.13220440
  H  1.68733097 -2.15213120  0.33574120
  H  3.47824185 -1.64644607  1.38647505
  H  4.98804211 -0.13958985  2.43545396
  H  4.55611520  1.08454164  1.21754860
  H  5.62540818 -0.26400168  0.77806684
