28
opt_min/./Product_94_opt.xyz
  F  2.18914800 -1.12459100 -2.48360400
  C  2.34124412 -0.74397973 -1.22049487
  C  3.02281205  0.25766558 -0.67435146
  F  3.84481426  1.15690019 -1.20856424
  C  2.67157123  0.21043272  0.80157790
  C  1.21584096  0.77368298  0.89968316
  C  0.41315947 -0.44836540  0.38678212
  C  1.58278586 -1.38553966 -0.07784078
  O  2.47553435 -1.17714840  1.00659521
  N -0.52590610  0.07629377 -0.56083113
  C -1.41616357 -0.57984006 -1.35660236
  C -1.44784935 -2.08623410 -1.22645714
  O -2.14825736  0.02006326 -2.11173368
  N -0.48814343  1.49441986 -0.61837820
  C -1.67314615  2.09971934 -0.02942991
  C  0.79681584  1.88803112 -0.08162244
  H  3.39908650  0.63370237  1.48609798
  H  0.94131710  1.02188161  1.92503012
  H -0.06868820 -0.97345722  1.22468375
  H  1.35803593 -2.43783889 -0.22167615
  H -2.49075950 -2.39634559 -1.18990887
  H -0.92502775 -2.46055261 -0.35501131
  H -1.01053246 -2.51438090 -2.12710140
  H -1.44159963  3.10795279  0.30276024
  H -2.06043981  1.52029253  0.81806450
  H -2.44259729  2.14174743 -0.80042965
  H  0.74791067  2.86094998  0.40682578
  H  1.49105034  1.95867058 -0.92338278
