38
opt_min/./Product_3614_opt.xyz
  C -0.21636900 -1.86351200  1.12980700
  C -0.63654367 -1.33612987 -0.23916574
  C -2.08392864 -0.80849212 -0.31341075
  C -3.11239526 -1.56676519  0.51417554
  C -1.95510524  0.69989830  0.01216631
  C -2.86478780  1.53719654 -0.89708797
  C -2.26165488  1.06928894  1.46873932
  O -0.59502794  1.03954509 -0.25643000
  C  0.16947178 -0.08031138 -0.68180943
  C  0.30328779 -0.02337573 -2.21833172
  C  1.54363913 -0.03189382 -0.04499783
  C  1.79084973  0.83507447  1.01277896
  C  3.03212649  0.87536701  1.62095246
  C  4.04487596  0.04211027  1.18384506
  C  3.80913994 -0.83058841  0.13390595
  C  2.56681289 -0.86751801 -0.47469576
  H -0.84430986 -2.70505595  1.41358507
  H  0.81393394 -2.20847247  1.09641712
  H -0.28245548 -1.09673867  1.89557836
  H -0.49731519 -2.14202952 -0.96430764
  H -2.39572637 -0.88362290 -1.36157240
  H -3.17345126 -2.59639086  0.16742411
  H -4.09172893 -1.11096780  0.39174640
  H -2.86749731 -1.57103866  1.57040827
  H -2.60782969  1.39125881 -1.94266574
  H -3.90444204  1.25695261 -0.74670958
  H -2.74423708  2.59212208 -0.66553521
  H -1.67297949  0.47301906  2.15853189
  H -3.31489491  0.93280153  1.68896629
  H -2.00630014  2.11500988  1.61940123
  H  0.95114951  0.80310049 -2.49713455
  H -0.67177837  0.14149662 -2.66672269
  H  0.71563647 -0.94651201 -2.61507845
  H  0.99780964  1.48634748  1.34309979
  H  3.20591405  1.55796415  2.43929552
  H  5.01555725  0.07092129  1.65836700
  H  4.59358128 -1.48800105 -0.21228362
  H  2.40504164 -1.56167933 -1.28619025
