42
opt_min/./Product_4906_opt.xyz
  C  2.23054000  0.77658800  0.69814500
  C  0.85259747  0.94753827  0.06675779
  C -0.09137353 -0.21206625  0.42123922
  N  0.60139815 -1.46686031  0.52098874
  C -0.09712574 -2.60509113  1.06252131
  C  1.92682746 -1.57787122  0.22854808
  C  2.78898578 -0.54232903  0.22845278
  C  4.17052222 -0.78577240 -0.18480930
  N  4.98674420  0.31684905 -0.26383819
  O  4.61751852 -1.90276257 -0.37981622
  C -1.00227042 -0.14423809 -0.85763682
  C -1.98422174  1.06728271 -0.78742387
  O -2.07195450  1.85875254 -1.69373833
  N -2.69145284  1.16799381  0.35703682
  C -3.66634491  2.22565889  0.52675131
  C -1.79900214 -1.39471858 -1.19581607
  O -1.52281294 -2.17842002 -2.05105182
  O -2.87726622 -1.49537231 -0.38909182
  C -3.76329480 -2.59074833 -0.61957354
  O -0.05480710  0.05143260 -1.87618675
  N  0.95755941  0.92735100 -1.38253619
  C  0.93239552  2.20978283 -2.03829627
  H  2.86498204  1.62838207  0.46300719
  H  2.09989561  0.74919368  1.78724720
  H  0.39835408  1.90088989  0.40718385
  H -0.65384015 -0.02874775  1.34381979
  H  0.09568629 -2.71416346  2.13737207
  H  0.23104697 -3.51124435  0.55105233
  H -1.16976757 -2.49998620  0.91588026
  H  2.27708839 -2.57519446 -0.00685601
  H  5.89349977  0.13246029 -0.67234790
  H  4.58207208  1.20592883 -0.50678042
  H -2.69505279  0.41235822  1.02112966
  H -4.55075343  2.04883878 -0.09134134
  H -3.95851560  2.27862811  1.57230758
  H -3.21970777  3.17175931  0.21797624
  H -3.42009421 -3.16316587 -1.48271377
  H -4.75856085 -2.18611931 -0.80219217
  H -3.77007749 -3.22302552  0.26894599
  H  0.31195191  2.95719849 -1.52035360
  H  0.52502166  2.06273544 -3.03681959
  H  1.95702902  2.57331131 -2.12145952
