22
opt_min/./Product_3362_opt.xyz
  C -2.05790800 -0.78871700 -0.54091600
  O -2.71964628 -1.36949078 -1.36841403
  C -2.39310355  0.55635805 -0.05762152
  C -1.56686689  1.28322693  0.69670733
  C -0.29751752  0.76515709  1.23363946
  O  0.23761460  1.27184403  2.19491133
  C  0.27047337 -0.45913740  0.56376662
  C -0.79316167 -1.44123753  0.03886291
  N -0.07380415 -2.04960170 -1.08015694
  N  0.85633434 -1.24873271 -1.54784868
  C  1.11131070 -0.29241221 -0.72716131
  C  2.16152617  0.69151503 -1.01129066
  C  2.72366858  1.47067940  0.15355080
  O  2.58905764  0.83110417 -2.13559732
  H -3.33621190  0.95832496 -0.40373741
  H -1.83252507  2.27786275  1.03122742
  H  0.92673928 -0.95596604  1.29233825
  H -1.09463766 -2.18929261  0.77784970
  H -0.48926872 -2.75219560 -1.67128853
  H  2.21306241  1.29268305  1.09153027
  H  3.77261710  1.19444051  0.25902274
  H  2.69625618  2.53273583 -0.08436870
