51
opt_min/./Product_1775_opt.xyz
  C -3.02036549 -2.98176060 -0.01718247
  C -1.92190965 -2.18225182  0.63304094
  O -1.44813559 -2.49120606  1.69387007
  C -1.51733837 -0.86570049 -0.06962241
  C -1.72296192 -0.93801752 -1.50225458
  N -1.87235628 -1.01329862 -2.63236387
  C -0.04607955 -0.56574279  0.07822835
  C  0.59647748  0.57597167 -0.17396219
  C  0.03418025  1.91979194 -0.54764651
  F -1.00413974  1.78552825 -1.42834833
  F  0.97967798  2.61082591 -1.26674576
  C -0.38720761  2.80460013  0.62800353
  C -1.78364934  2.51694294  1.16393348
  C -2.01316671  1.08199513  1.64390993
  C -2.53862426  0.14657120  0.54578956
  C  2.09958769  0.37048465 -0.08646020
  C  2.70640570  0.46392765 -1.51411082
  C  3.68224716  1.56363291 -1.80682919
  O  2.41400322 -0.37920626 -2.32079398
  C  2.75451996  1.21751721  1.00410835
  O  2.14789677  1.74927865  1.89997774
  O  4.08654348  1.18837344  0.94758217
  C  4.77237724  1.79950940  2.03555234
  N  2.19038486 -0.96982954  0.46734848
  C  3.43521826 -1.69395337  0.38600687
  C  0.93368535 -1.68187030  0.34311334
  C  0.88223101 -2.71924664 -0.78905287
  H -3.34261426 -2.57122344 -0.96869871
  H -3.86728216 -3.03894448  0.66634138
  H -2.66349078 -4.00056162 -0.16018787
  H  0.35720490  2.68323097  1.41364695
  H -0.35563399  3.83702203  0.27070934
  H -1.94824368  3.20089390  1.99877860
  H -2.52183036  2.75883617  0.39538931
  H -1.10328894  0.68053253  2.09108325
  H -2.76919325  1.11963653  2.43063371
  H -2.98013733  0.73374841 -0.26070868
  H -3.34748270 -0.45338372  0.97226910
  H  3.37909826  2.50150286 -1.35237722
  H  4.65423704  1.28303642 -1.40333652
  H  3.76820691  1.67941921 -2.88448755
  H  4.61929685  2.88023772  2.01700813
  H  5.82446557  1.56097238  1.90401173
  H  4.40084281  1.40628015  2.98310234
  H  3.66207341 -2.13638669  1.36126531
  H  3.41062128 -2.48964776 -0.36311850
  H  4.24022001 -1.01322659  0.12144575
  H  0.71726061 -2.17999564  1.29734919
  H  1.49074502 -3.58498425 -0.54142758
  H  1.23682457 -2.27321421 -1.71602100
  H -0.13935563 -3.06199740 -0.93752026
