51
opt_min/./Product_1405_opt.xyz
  C  0.35439700 -0.94435700  2.07726600
  C  0.42054823 -1.49829912  0.64379520
  C -0.55439426 -2.68599650  0.58082230
  C -0.00549463 -0.39319109 -0.29235548
  C  0.71343417  0.54583423 -0.96241664
  C  2.18741410  0.73181125 -1.19031727
  F  2.61783576 -0.26608831 -2.06382650
  C  3.07381875  0.77492978  0.06651548
  C  3.85746771 -0.51009806  0.33313879
  C  3.04832654 -1.57707987  1.06305508
  C  1.81819257 -2.08213111  0.29243437
  C -0.24332091  1.45428160 -1.58638612
  C  0.01002835  2.69807270 -2.36968535
  C -1.24426800  3.44830933 -2.72002873
  O  1.11020941  3.09208124 -2.67753121
  N -1.46809634  1.12507163 -1.36071368
  C -1.46835119 -0.05514755 -0.53877037
  C -2.16741599  0.36074189  0.78057015
  N -3.21192207 -0.40474282  1.15141016
  C -3.92071359 -0.12914710  2.38473282
  O -1.81028430  1.33364089  1.39836813
  C -2.25891667 -1.02434447 -1.44796153
  O -1.79577262 -2.02015614 -1.94679505
  N -3.51055497 -0.58004399 -1.68805487
  C -4.37405507 -1.22922771 -2.64859458
  H  0.90791203 -0.01580594  2.18422725
  H  0.74298682 -1.68798606  2.77094692
  H -0.67680072 -0.74032787  2.35322460
  H -1.56271987 -2.39044286  0.85250026
  H -0.57441975 -3.11987744 -0.41379296
  H -0.23261653 -3.44724052  1.29017150
  H  2.32346124  1.66070024 -1.75225848
  H  2.44176071  1.01742195  0.92238060
  H  3.78541125  1.59233221 -0.05310204
  H  4.73957148 -0.26307798  0.93257602
  H  4.22081511 -0.90999124 -0.61666523
  H  3.71025664 -2.42851921  1.24897578
  H  2.76467659 -1.19012780  2.04057541
  H  1.98495197 -1.95981776 -0.77583442
  H  1.75423601 -3.15987448  0.46094857
  H -1.00579695  4.28576802 -3.37204534
  H -1.69822664  3.81448230 -1.80096191
  H -1.95608399  2.77729525 -3.19320980
  H -3.45831123 -1.22767013  0.62609383
  H -4.18043273  0.93155204  2.42371929
  H -4.82204472 -0.73299726  2.42196975
  H -3.29580885 -0.35217654  3.25392968
  H -3.77089907  0.32286441 -1.32464502
  H -3.76082929 -1.86447723 -3.28718617
  H -5.11622618 -1.85687091 -2.14789338
  H -4.88595896 -0.48300597 -3.25309960
