35
opt_min/./Product_4504_opt.xyz
  C  2.65419404  0.31127868 -1.08305799
  O  3.70230362  0.84594177 -0.80304366
  C  2.50426245 -0.60804110 -2.22023936
  C  1.42948019 -1.38313391 -2.38216906
  C  0.27022027 -1.37574894 -1.47134951
  O -0.77513110 -1.90208958 -1.76253214
  C  0.49438279 -0.68795423 -0.13410691
  C  1.40131445  0.54257658 -0.26740380
  C  0.39966483  1.56876170 -0.84786840
  C  0.26649052  1.45034477 -2.29305018
  N  0.13537300  1.38281929 -3.42602355
  N -0.82878556  1.23110051 -0.18488452
  C -1.86268370  2.21194045 -0.01950149
  C -0.81996590 -0.08835468  0.39789623
  C -0.84947992  0.06441681  1.93661195
  O  0.26077559 -0.39738327  2.51536374
  C  0.37251750 -0.27456239  3.93317649
  O -1.76026234  0.57430211  2.52837417
  C -2.09050968 -0.91809496  0.03594737
  C -2.17173937 -2.25230330  0.72971467
  O -2.97014086 -0.44741552 -0.62375474
  H  3.33530324 -0.64257311 -2.91063238
  H  1.33267562 -2.03976221 -3.23706971
  H  0.93259413 -1.42101239  0.54738508
  H  1.69379898  0.89915644  0.72776464
  H  0.70144665  2.60611330 -0.62837653
  H -2.31907368  2.46377483 -0.98204579
  H -1.45727729  3.12589387  0.43298358
  H -2.63104608  1.81304105  0.63632360
  H -0.53246340  0.18201646  4.33733846
  H  0.51173337 -1.27202215  4.34911958
  H  1.24033185  0.34547393  4.15696000
  H -2.69612308 -2.95399724  0.08633227
  H -2.76273424 -2.11740037  1.63670234
  H -1.19620780 -2.64610133  0.99713845
