23
opt_min/./Product_3339_opt.xyz
  O -0.95531100 -1.72447700 -2.12196100
  C -1.88815473 -1.84817388 -1.46895713
  O -2.82767891 -1.99962866 -0.83543637
  C -1.08692160  0.54056504  0.13176280
  C -0.74439591 -0.28583264  1.11943477
  C -1.80335473  1.96344204  3.40801560
  O -2.70689433  1.28503044  3.58588618
  O -0.90543750  2.65028305  3.24194060
  N  0.62260058 -0.26821354  1.34055926
  N  1.25838810  0.40616379  0.24366745
  C  1.95761526 -0.51507845 -0.63267053
  C  0.17439698  1.14493730 -0.43455047
  C  0.30146398  2.63539490 -0.11359876
  H -2.07074285  0.79956085 -0.20217968
  H -1.38147242 -0.86498774  1.76331599
  H  1.08214191 -1.12624217  1.61575964
  H  2.52239556  0.07616951 -1.35157595
  H  1.29474402 -1.20079717 -1.17813044
  H  2.66590783 -1.09750116 -0.04233398
  H  0.23868410  1.00415606 -1.52233529
  H  1.24004711  3.02087497 -0.50144547
  H  0.28287368  2.77908280  0.96262633
  H -0.52225414  3.18478193 -0.56284395
