43
opt_min/./Product_707_opt.xyz
  C -3.35436700 -2.99120500  0.18174600
  O -2.63662307 -1.83915513 -0.24739653
  C -1.56163262 -1.48703837  0.47365912
  O -1.19635097 -2.06523586  1.45930095
  C -0.90462902 -0.28220737 -0.17795393
  C  0.30345095  0.40489757  0.52453212
  C  0.61727067  0.02124149  1.96504837
  C -0.09532547  1.90196536  0.42192313
  C -1.20724914  2.21389022  1.42923362
  C -2.40000381  1.40082630  0.88727788
  C -1.87741939  0.88263667 -0.46059592
  C -0.90234417  1.98036617 -0.87430252
  C  1.49766560  0.03119274 -0.44661823
  C  2.49201760  1.16743163 -0.63988291
  C  2.85785770  1.47927285 -2.06704898
  O  2.95798928  1.76115629  0.29801727
  C  2.22829727 -1.22107745  0.10930404
  O  1.77483059 -2.32545986 -0.00875614
  O  3.38084323 -0.91696755  0.68003689
  C  4.12962856 -1.98185712  1.25985210
  N  0.91228404 -0.46346405 -1.66879908
  C -0.30452815 -0.72237118 -1.48820777
  H -2.97260951 -3.86877186 -0.34527505
  H -3.22638739 -3.13831280  1.25550652
  H -4.39963483 -2.82770917 -0.06929993
  H  1.05428369 -0.97263562  2.02853404
  H  1.31720253  0.74272686  2.38087706
  H -0.28846551 -0.00957163  2.56267181
  H  0.75322656  2.57710637  0.50077587
  H -1.42729269  3.28257189  1.40042605
  H -0.95540860  1.96660128  2.45540071
  H -2.67293292  0.57892371  1.54961288
  H -3.28303005  2.02438651  0.74002415
  H -2.65786260  0.61226409 -1.17004254
  H -1.39141250  2.94668153 -0.99193864
  H -0.34307640  1.75715273 -1.78032811
  H  2.20899364  0.95926617 -2.76317802
  H  2.82177719  2.55704813 -2.22583087
  H  3.88678746  1.15490549 -2.22633386
  H  3.48854035 -2.85475368  1.39900736
  H  4.50167447 -1.62567130  2.22036228
  H  4.96357289 -2.23314944  0.60445580
  H -0.90556051 -1.17550357 -2.26263852
