47
opt_min/./Product_5402_opt.xyz
  C  1.79118200 -0.18492700  1.40209100
  C  0.30370376  0.11924729  1.32216474
  C -0.48698334 -1.10252062  0.79278994
  N  0.26489848 -1.82138739 -0.21648748
  C -0.37654659 -2.90113829 -0.92690806
  C  1.45990910 -1.38059755 -0.68201419
  C  2.27358604 -0.57498034  0.03239912
  C  3.50715588  0.02385353 -0.46682942
  N  4.14093046 -0.59362539 -1.49780879
  O  3.95436060  1.06493743  0.00546693
  C -1.74936079 -0.35972861  0.22999867
  C -2.62665058 -0.08378631  1.50291624
  O -2.56080158  0.95830657  2.11118483
  N -3.34385827 -1.15292463  1.87143395
  C -4.27944779 -1.10350548  2.96861670
  C -2.64723686 -1.00413752 -0.81831523
  O -3.20702479 -2.08347473 -0.64345290
  N -2.80216235 -0.24439792 -1.90220533
  C -3.69937330 -0.57191252 -2.97910544
  N -1.23623704  0.89494951 -0.25024039
  C -0.15725360  1.19768000  0.34905373
  C  0.39667092  2.57098996  0.08307165
  N  1.70389613  2.78020130  0.33226889
  C  2.27836471  4.07772424  0.04686929
  O -0.34500043  3.44749621 -0.31814372
  H  2.35798267  0.64994926  1.80970874
  H  1.92756906 -1.03517215  2.08123224
  H -0.08011244  0.39824514  2.30834593
  H -0.77058819 -1.80522096  1.58471740
  H  0.34989713 -3.69449007 -1.11190907
  H -0.79053499 -2.57793448 -1.88745112
  H -1.18698879 -3.30773513 -0.32716172
  H  1.72299371 -1.74267729 -1.66658981
  H  3.91225437 -1.52826821 -1.77878641
  H  5.01943035 -0.20633543 -1.79823964
  H -3.39747013 -1.92040081  1.20621216
  H -5.27856209 -1.37548911  2.62803036
  H -4.28826617 -0.08725040  3.36004059
  H -3.97409763 -1.79079738  3.76078925
  H -2.35812421  0.66834442 -1.85384557
  H -3.16087946 -0.58652737 -3.92820295
  H -4.11605321 -1.55825203 -2.77977646
  H -4.50682689  0.15900094 -3.04174566
  H  2.38069698  2.02916423  0.39696647
  H  1.75974947  4.53386664 -0.79782943
  H  2.16268046  4.73589441  0.91078200
  H  3.33413955  3.95391984 -0.17609032
