48
opt_min/./Product_5034_opt.xyz
  C  1.33406900 -2.43227500 -0.28767800
  C  1.41855346 -0.99569453 -0.82972011
  C  2.27867402 -1.03578772 -2.08723459
  C -0.02491249 -0.41063677 -1.01329393
  C -0.92589687 -1.41934944 -1.73273589
  C -0.02905079  0.85599397 -1.88179771
  C -0.38063217 -0.02316650  0.46102109
  C -1.11307639  1.35885226  0.55431737
  N -2.41963238  1.34466726  0.19906375
  C -3.20928622  2.55451639  0.30698909
  O -0.55461858  2.36817719  0.89838775
  C -1.21190728 -0.94948547  1.38527378
  O -0.91106542 -1.07620905  2.54757064
  N -2.34034659 -1.51568695  0.87698052
  C -3.21528918 -2.31574038  1.70140164
  O  0.85285918  0.12559244  1.14313231
  C  1.96402050 -0.07326019  0.29418004
  C  3.10190151 -0.64782000  1.15006164
  C  2.52956338  1.27861239 -0.18881352
  O  3.25821068  1.43489641 -1.13945052
  O  2.18982826  2.23426716  0.65537415
  C  2.65084381  3.54980049  0.40721767
  H  2.32022042 -2.77439090  0.01125338
  H  0.67791816 -2.49091589  0.57783182
  H  0.97895999 -3.11224659 -1.05739158
  H  3.29288751 -1.31561819 -1.81223873
  H  2.34090333 -0.08063939 -2.59310504
  H  1.90147882 -1.78676452 -2.77941133
  H -1.08430007 -2.33567776 -1.17450497
  H -1.88488236 -0.96950300 -1.99321811
  H -0.44287052 -1.68685870 -2.67106600
  H  0.53412451  1.66122517 -1.42103729
  H  0.39569020  0.64764234 -2.85950760
  H -1.04943831  1.20568054 -2.03203574
  H -2.89992743  0.48296511  0.01176033
  H -4.22890914  2.34785652 -0.00499946
  H -3.19955592  2.92242090  1.33462551
  H -2.78160460  3.33052568 -0.33018621
  H -2.53977671 -1.47545143 -0.10629898
  H -4.22071350 -1.89012331  1.72262566
  H -2.80380011 -2.31616696  2.70922071
  H -3.26946099 -3.34218465  1.33312408
  H  3.90756729 -1.01025289  0.51772154
  H  2.71681796 -1.43573572  1.78854669
  H  3.48831042  0.13843640  1.79453812
  H  3.52547641  3.75308878  1.02859817
  H  1.83664836  4.21962486  0.67796126
  H  2.91956776  3.66765733 -0.64535155
