51
opt_min/./Product_2678_opt.xyz
  C -2.38433000  2.70191600 -1.05589200
  C -1.61109858  1.42347401 -1.11578533
  O -1.69498889  0.68099701 -2.05793088
  C -0.68194356  1.02506092  0.05283190
  C -0.77319345  1.98990394  1.25925911
  F  0.00398041  1.67424961  2.28493188
  F -2.01603134  2.07338283  1.76969758
  F -0.45726181  3.25607971  0.91645299
  C  0.83856138  0.86861196 -0.32056449
  C  1.72579882  2.12300385  0.08216794
  C  1.78360225  3.29997686 -0.84438017
  O  2.36659615  2.06034930  1.09066756
  C  1.11495410  0.61267479 -1.83756928
  F  0.63506927 -0.52373679 -2.31096254
  F  0.65920949  1.58660800 -2.64390834
  F  2.44455188  0.58118097 -2.04180767
  N  1.22768024 -0.28033151  0.43741833
  C  2.46890952 -0.94359659  0.54840172
  C  2.85389898 -1.86672922 -0.41487421
  C  4.06889515 -2.51748013 -0.28400033
  C  4.88173215 -2.26764051  0.80815563
  C  4.47663349 -1.37076102  1.78348219
  C  3.26991453 -0.70684502  1.65917721
  O  0.17989620 -0.70539069  1.31983983
  C -0.98845073 -0.42424051  0.61164850
  C -1.20697786 -1.56866635 -0.45784402
  N -2.40101935 -1.59245478 -1.05096562
  C -2.72024877 -2.56443726 -2.06934472
  O -0.33554126 -2.38557938 -0.61573184
  C -2.21189965 -0.43944854  1.53157309
  O -3.31954344 -0.19113240  1.11664054
  O -1.89832643 -0.79009017  2.74906687
  C -2.94399851 -0.88142671  3.71236608
  H -2.90188191  2.85351041 -0.11527213
  H -3.10748304  2.68466225 -1.86897526
  H -1.70891977  3.54262864 -1.21604235
  H  2.14513396  4.15551476 -0.27801065
  H  2.50747392  3.08565754 -1.63052259
  H  0.83167341  3.53639300 -1.30741903
  H  2.20748189 -2.09506745 -1.24588397
  H  4.37332894 -3.23134427 -1.03500426
  H  5.82802152 -2.77880881  0.90932236
  H  5.10705988 -1.18998833  2.64158985
  H  2.94422568 -0.00721500  2.41171659
  H -3.11666790 -0.92360172 -0.80530350
  H -3.55693732 -3.18771744 -1.75125613
  H -2.97478219 -2.05312324 -2.99745912
  H -1.84113691 -3.18609192 -2.22689095
  H -3.91799291 -0.82758705  3.22378184
  H -2.82608044 -1.83213962  4.22948868
  H -2.83562804 -0.05595179  4.41627136
