50
opt_min/./Product_5494_opt.xyz
  C -0.03761400 -2.18293200 -0.64002000
  C -1.32168557 -2.89438882 -0.34427262
  C -2.31768093 -2.30022702  0.30799406
  N -2.25981457 -1.01308847  0.78431211
  C -3.40317083 -0.41293205  1.41526320
  C -1.09559320 -0.21200601  0.58477023
  C  0.19188227 -1.02356732  0.34291382
  C  0.70525946 -1.63411653  1.66496796
  N  0.73553691 -0.81102785  2.73943051
  O  1.02323689 -2.79415753  1.76276640
  C  1.12977200  0.04936635 -0.29019177
  C  1.88826663  0.82229371  0.80311345
  O  2.96531293  0.18544174  1.23657971
  C  3.73877715  0.81878413  2.24592933
  O  1.52924302  1.89691123  1.22000703
  C  2.16131004 -0.64924965 -1.21402537
  C  2.02700023 -0.39629283 -2.69270441
  O  3.01875757 -1.35927000 -0.76596200
  N  0.23149433  0.90656696 -1.03912841
  C  0.72725664  2.20206028 -1.45742140
  C -1.15725293  0.81626800 -0.58724433
  C -2.05054877  0.34203955 -1.74349005
  C -1.66053264  2.16178900 -0.01614767
  C -2.30327623  3.13626118 -0.97000097
  O -1.56775304  2.41764388  1.15921862
  H  0.79253064 -2.88389909 -0.53988205
  H -0.04422527 -1.80962882 -1.66773364
  H -1.41532261 -3.91402537 -0.67373495
  H -3.24195813 -2.81504915  0.52338254
  H -4.09818582  0.01957180  0.68330876
  H -3.07864842  0.38551061  2.08273105
  H -3.94024873 -1.16034303  1.99938982
  H -0.96710221  0.40472200  1.48432789
  H  0.52586820  0.17116312  2.71282399
  H  1.07890858 -1.20140449  3.60137722
  H  4.26586464  0.02456818  2.76870726
  H  3.09289746  1.37744451  2.92664188
  H  4.45390691  1.50476638  1.78762836
  H  2.38343015 -1.27223761 -3.22917013
  H  1.00624193 -0.15654098 -2.96795469
  H  2.66650647  0.44226001 -2.96390246
  H  0.55790522  2.99298189 -0.72024690
  H  1.79981216  2.13534661 -1.62239038
  H  0.25175090  2.48202851 -2.39961283
  H -1.72207013  0.78372923 -2.68018329
  H -3.08854597  0.61046826 -1.56958396
  H -1.99469263 -0.73749139 -1.83730383
  H -2.02787202  4.14721875 -0.67798135
  H -3.38395259  3.05111506 -0.86051895
  H -2.03724153  2.95685028 -2.00387206
