30
opt_min/./Product_228_opt.xyz
  C  0.16190884 -2.40469892  1.13780801
  C -0.21881778 -1.16221861  0.44180756
  C -1.30839692 -0.39464680  0.61453426
  C -2.28541803 -0.57235585  1.60196659
  N -3.06493274 -0.72416600  2.43096410
  C -1.31404178  0.76578096 -0.36863278
  C -1.31823834  2.04986010  0.31695696
  N -1.28666850  3.06935140  0.83029494
  C -2.53316738  0.77259378 -1.34090453
  C -3.88691239  0.87903874 -0.72266047
  O -2.31901557  0.74035735 -2.52257707
  N -0.06643037  0.61808405 -1.11249681
  C  0.64938269 -0.56775342 -0.64313799
  C  2.05353473 -0.18163633 -0.04129586
  N  2.38560625  1.08201319 -0.29762075
  C  3.61851301  1.67612167  0.15873674
  O  2.71748757 -0.98668662  0.56926925
  C  0.88574551 -1.52283607 -1.70683233
  N  1.03799549 -2.24134122 -2.58174529
  H -0.53231984 -2.63100548  1.94287178
  H  1.17694797 -2.30159181  1.52683360
  H  0.18504338 -3.23181393  0.42587255
  H -4.58991557  0.26792643 -1.28605387
  H -4.21269650  1.91662404 -0.81191554
  H -3.89989177  0.60170546  0.32646818
  H -0.25981560  0.59972662 -2.11470388
  H  1.70578616  1.65864205 -0.77797836
  H  4.10796611  0.96643947  0.82352260
  H  4.27487655  1.88917230 -0.68696096
  H  3.41254491  2.60235734  0.69443197
