50
opt_min/./Product_2002_opt.xyz
  C -1.39768600  3.91566000  1.68718800
  N -1.10360972  2.75185363  0.88141571
  C  0.12106396  2.16582920  0.92954180
  O  1.00737237  2.59816029  1.61643862
  C  0.22443180  0.92892958  0.01512740
  C  1.68124197  0.42786350 -0.25306479
  F  2.67318633  1.20366866  0.28413345
  C  1.76294192  0.51323704 -1.80725356
  C  1.87752785  2.00146048 -2.07404669
  C  0.66821451  2.48125687 -1.82944747
  C -0.17863870  1.27628600 -1.45425329
  O  0.42869110  0.23022925 -2.18857116
  C  1.73255642 -0.98505304  0.34231311
  C  3.11885161 -1.29140981  0.88843021
  O  3.43783143 -1.36864831  2.03711274
  O  3.95543642 -1.47448588 -0.14357975
  C  5.32097206 -1.70419462  0.18546436
  N  0.70201191 -0.92451342  1.34850417
  C  0.51540829 -2.09741765  2.18374702
  C -0.44109225 -0.31852974  0.69358205
  C -1.10680493 -1.34112193 -0.29157274
  N -2.12070617 -0.90570990 -1.05720219
  C -2.77681151 -1.76736800 -2.01314109
  O -0.72413505 -2.49102833 -0.31311293
  C -1.45937516  0.07581739  1.76356482
  O -1.25247392  0.10812886  2.93854610
  O -2.65432778  0.40483843  1.21977664
  C -3.68767602  0.75433160  2.13886027
  H -1.19834454  4.83718706  1.13409564
  H -2.44068987  3.89860486  1.99734617
  H -0.75046775  3.88941416  2.56291343
  H -1.83312518  2.39373874  0.28979816
  H  2.47834343 -0.15570551 -2.27295136
  H  2.78734055  2.50517382 -2.32675493
  H  0.30533490  3.48872744 -1.85176321
  H -1.23484912  1.36355325 -1.68688219
  H  1.51006017 -1.71764366 -0.45562002
  H  5.77080205 -2.18513513 -0.67972468
  H  5.39230550 -2.34279697  1.06774991
  H  5.81430969 -0.75293445  0.39337457
  H  1.05399911 -2.95189278  1.77326214
  H -0.53667912 -2.36573114  2.25425472
  H  0.89544017 -1.87508918  3.18104161
  H -2.50861509  0.01165150 -0.92620315
  H -2.78079822 -1.29615168 -2.99623189
  H -3.80291021 -1.97856509 -1.70477154
  H -2.21520377 -2.69816008 -2.05705553
  H -3.25435950  1.22167053  3.02441725
  H -4.23237754 -0.14341911  2.43458430
  H -4.35305422  1.44222637  1.62113753
