17
opt_min/./Reactant_5262_1_opt.xyz
  C  0.72882096  2.83983082  1.45339146
  N  0.25223062  1.87722750  1.01599545
  C -0.37539762  0.83752893  0.55007690
  C -1.83918061  0.93658613  0.50727824
  C -2.55714302 -0.26581410 -0.03474787
  O -2.41415347  1.93623650  0.89138781
  C  0.42512257 -0.29739390  0.12832437
  O  0.02248566 -1.33772001 -0.33395292
  O  1.74927399 -0.02841338  0.29846712
  C  2.66142379 -1.04861925 -0.07475242
  H  1.15332529  3.72155756  1.82675642
  H -2.32043759 -1.14535578  0.55789944
  H -2.23105105 -0.46303977 -1.05493789
  H -3.62864294 -0.07552590 -0.02214834
  H  2.20038344 -1.70527711 -0.81376046
  H  2.94221830 -1.62902991  0.80792619
  H  3.54119101 -0.55701704 -0.48966069
