24
opt_min/./Reactant_1200_1_opt.xyz
  C  2.93748793  2.67260607 -0.46901003
  C  2.68833683  1.25567048 -0.91845157
  O  3.48167908  0.62012718 -1.60943402
  C  1.44840151  0.65906041 -0.51508733
  N  1.26315385 -0.59247147 -0.92230804
  C  0.24509643 -1.41820776 -0.74252033
  C  0.28720351 -2.71036012 -1.26361673
  N  0.28495059 -3.77623810 -1.69993707
  C -0.96156133 -0.99781379  0.00704148
  C -1.82439042 -0.05730822 -0.54822352
  C -2.95295973  0.33930951  0.14628340
  C -3.22702289 -0.19842974  1.39264184
  C -2.37173032 -1.13696478  1.94583754
  C -1.24166098 -1.53858933  1.25651138
  H  2.24455904  3.33997753 -0.97889046
  H  3.95509988  2.96384820 -0.71172049
  H  2.77289574  2.76041712  0.60222933
  H  0.69726838  1.15905231  0.06956939
  H  2.07489897 -0.91324369 -1.47290370
  H -1.60792838  0.35642811 -1.52279782
  H -3.62132731  1.06717463 -0.28926946
  H -4.10999660  0.11350998  1.92954328
  H -2.58463281 -1.55774989  2.91675874
  H -0.57503993 -2.27357095  1.68326047
