46
opt_min/./Reactant_3137_0_opt.xyz
  C  5.75788360 -0.22027373  0.40569500
  O  4.71154414 -0.25606275 -0.55391826
  C  3.52695173  0.23109457 -0.15643315
  O  3.33157300  0.68961939  0.93641914
  C  2.49915037  0.10895954 -1.26995606
  C  1.25277232  0.74474263 -0.89799183
  C  0.10015911  0.71024485 -0.56751801
  C -1.25270737  0.25729199 -0.29387783
  C -1.45188250 -0.01094394  1.18518197
  C -2.58383787 -0.69249213  1.62180296
  C -2.76550112 -0.96789052  2.96497674
  C -1.81911348 -0.56653607  3.89233546
  C -0.69433687  0.11701137  3.46761203
  C -0.51107727  0.39430371  2.12352289
  C -2.27152356  1.23047665 -0.86680204
  C -3.25692715  1.82669143 -0.09027689
  C -4.15102730  2.72360751 -0.65064755
  C -4.06878444  3.04812400 -1.99171229
  C -3.07253229  2.48248756 -2.76760859
  C -2.17864759  1.58844443 -2.20874453
  C -1.27046435 -1.08375170 -1.08321803
  C -0.28926532 -2.17451683 -0.59712180
  C  1.21269598 -1.92524982 -0.34300110
  C  2.10641535 -1.37811058 -1.47962795
  H  6.65777066 -0.54114869 -0.11341171
  H  5.53268966 -0.89340386  1.23577966
  H  5.87446429  0.79258634  0.79822291
  H  2.93303144  0.53525291 -2.18018007
  H -3.33420012 -1.00402068  0.90973809
  H -3.64993707 -1.49733460  3.28906691
  H -1.96125205 -0.78607000  4.94124497
  H  0.04941731  0.43803659  4.18271280
  H  0.37018723  0.92745482  1.79951604
  H -3.32958871  1.59899814  0.96150306
  H -4.91306546  3.17348937 -0.02973744
  H -4.76904401  3.74768175 -2.42602511
  H -2.98584137  2.74189925 -3.81290109
  H -1.38917154  1.17530156 -2.81972673
  H -2.26368766 -1.53624845 -1.01297186
  H -1.07900269 -0.87380403 -2.13675379
  H -0.37500525 -2.98644354 -1.32629198
  H -0.67346713 -2.54164558  0.36002835
  H  1.33113349 -1.29732977  0.54012158
  H  1.60366806 -2.91119679 -0.07072540
  H  3.01939120 -1.97435315 -1.52096878
  H  1.60717768 -1.48534146 -2.44303343
