33
opt_min/./Reactant_3079_1_opt.xyz
  C -2.58038100  2.31129800  0.17040500
  N -1.77953564  1.11205664  0.19259492
  C -1.79007494  0.21927918 -0.83803840
  O -2.43013847  0.42986367 -1.85397389
  C -0.98675720 -0.99735689 -0.56585146
  C -1.44877727 -2.29036492 -1.02534439
  C -2.82894605 -2.34090656 -1.63066989
  O -0.76040879 -3.30626471 -0.96834745
  N  0.19624790 -0.85203691  0.10319590
  C  0.59715981 -1.93509796  0.98142503
  C  0.99643783  0.19593852 -0.08050606
  C  0.88477758  1.00890642 -1.33504983
  C  1.88780654  0.67009521  0.99360067
  O  1.74737355  0.34737967  2.16850380
  N  2.83713023  1.57026201  0.63002272
  C  3.72632281  2.16504717  1.59623002
  H -3.38745912  2.26190169  0.90505167
  H -1.96199747  3.18624961  0.38057754
  H -3.00930435  2.39778208 -0.82667617
  H -1.34039688  0.86480804  1.06486442
  H -2.87556852 -1.71793357 -2.51971820
  H -3.56598750 -1.96412975 -0.92478552
  H -3.05622601 -3.37175050 -1.88968122
  H  1.52846379 -1.70340172  1.48388276
  H  0.70120841 -2.83779536  0.37518591
  H -0.18191642 -2.11493734  1.72141731
  H  0.49567626  2.01085779 -1.15505963
  H  0.23361797  0.52073205 -2.05471961
  H  1.86999147  1.09619051 -1.79802394
  H  2.95888929  1.83291441 -0.33218019
  H  4.76608982  1.99331484  1.31363364
  H  3.52834877  1.69903855  2.55988521
  H  3.54983972  3.24042535  1.67583479
