22
opt_min/./Reactant_3010_0_opt.xyz
  C  0.72680000 -2.04261300  0.11959200
  N -0.33927051 -1.31002935  0.11127085
  C -1.61030594 -1.99232284  0.25340033
  C -0.35239628  0.06075143 -0.03192568
  C -1.48060151  0.69915325 -0.68855468
  C -1.50223310  2.20254548 -0.78138688
  O -2.39879778  0.05952249 -1.19281275
  C  0.76485858  0.85045516  0.45239280
  O  0.97124825  2.02213595  0.22899231
  O  1.57683519  0.16051276  1.31373782
  C  2.59261379  0.92443355  1.94028554
  H  1.69876394 -1.61953214 -0.04083774
  H  0.64751707 -3.09939811  0.30058730
  H -1.44974422 -3.01068464  0.60014388
  H -2.23988966 -1.45448627  0.96070676
  H -2.13634294 -1.99854583 -0.70163747
  H -2.43188565  2.49209436 -1.26567779
  H -0.65599198  2.56725882 -1.35537131
  H -1.44042418  2.64981218  0.20697800
  H  2.21334557  1.91024109  2.21436315
  H  3.44223240  1.05025391  1.26476238
  H  2.89210671  0.36450683  2.82322426
