10
opt_min/./Reactant_3371_1_opt.xyz
  C -1.39847277  0.36215513 -0.63181970
  C -0.64174553 -0.82053272 -0.17880726
  O  0.60029913 -0.82539048  0.10641144
  N  1.32190355  0.30248543 -0.01114152
  C  2.57809328  0.26176981  0.32526667
  N  3.69285208  0.38260673  0.59575333
  H -0.87765748  1.26349144 -0.30897862
  H -1.45447157  0.38392805 -1.72236740
  H -2.41267129  0.33639700 -0.24313116
  H -1.10459674 -1.78862775 -0.04790921
