22
opt_min/./Reactant_1331_0_opt.xyz
  C  4.83210705  0.24582228 -0.65385028
  O  3.46018366 -0.12173195 -0.72588052
  C  2.58242183  0.73532568 -0.21288121
  O  2.82560970  1.80374223  0.30413380
  C  1.23486005  0.30145368 -0.32896793
  N  0.06805054  0.26674328 -0.17874611
  C -1.18280850 -0.04891614 -0.20007059
  C -2.15479689  0.86759539  0.40202277
  C -1.57037808  2.13328589  0.98495239
  O -3.34229476  0.63069419  0.45762886
  C -1.48731876 -1.35781224 -0.83832424
  C -2.92672830 -1.76583041 -0.87017895
  O -0.59150677 -2.03205553 -1.29920435
  H  5.29748619 -0.07741598 -1.58295435
  H  4.92879527  1.32602731 -0.52829916
  H  5.29665043 -0.26369985  0.19242896
  H -2.33366958  2.90811599  0.97910145
  H -1.30033139  1.93972585  2.02301038
  H -0.68634396  2.47344529  0.45420424
  H -3.00954306 -2.73046054 -1.36479574
  H -3.32154204 -1.82627320  0.14155355
  H -3.51762874 -1.01990027 -1.39697001
