28
opt_min/./Reactant_5139_1_opt.xyz
  C -2.41290298  0.86723500  0.22677821
  C -2.18685731 -0.52444982  0.71551096
  C -3.23665819 -1.41714897  0.61635461
  N -4.13541871 -2.14055084  0.52537977
  N -1.03151133 -0.91686614  1.31136853
  C -1.12691875 -2.15988968  2.06412199
  C  0.11610568 -0.22488751  1.29262258
  C  1.12432476 -0.43920044  2.38482562
  C  0.47087511  0.63925805  0.18234172
  C  0.13919314  0.27237440 -1.13162384
  C  0.54970400  1.02942955 -2.21000999
  C  1.28310046  2.18791406 -2.01568303
  C  1.60862576  2.57509614 -0.72461384
  C  1.21585627  1.81407977  0.35599159
  H -2.04949960  1.02773312 -0.79405601
  H -1.89341786  1.57578078  0.87273515
  H -3.48128474  1.07921019  0.24083125
  H -0.15622200 -2.47242396  2.43125662
  H -1.81879475 -2.04411737  2.89937594
  H -1.51787324 -2.94102381  1.41006863
  H  0.65236104 -0.53891497  3.36130267
  H  1.80617697  0.40419196  2.42892275
  H  1.73383779 -1.32719062  2.19674558
  H -0.40784292 -0.64491207 -1.30232601
  H  0.29184631  0.71293648 -3.21046698
  H  1.59529884  2.78441904 -2.85930212
  H  2.17351455  3.48153477 -0.56045230
  H  1.46285872  2.15240870  1.35173275
