23
opt_min/./Reactant_3659_0_opt.xyz
  C -2.83918400 -1.41429400 -0.93493900
  C -1.45166113 -1.03022026 -0.54516480
  O -1.29514415  0.11917185  0.02611554
  C -0.25230999  0.77224537  0.47410651
  C -0.59322439  2.19037776  0.85205498
  C  1.09419234  0.28070777  0.61446222
  C  2.16449319  1.19256592  0.65720934
  C  3.46601088  0.76698245  0.81221881
  C  3.75646411 -0.58211752  0.94257095
  C  2.71552379 -1.49591585  0.93875937
  C  1.41022138 -1.07793797  0.77780926
  H -2.86158725 -1.76872779 -1.96534681
  H -3.49644993 -0.55314047 -0.83962508
  H -3.22746785 -2.21687513 -0.30333942
  H -0.63464379 -1.69893794 -0.75908394
  H -0.16063258  2.45417969  1.81544208
  H -1.67521421  2.28535455  0.91579601
  H -0.23503139  2.90484263  0.10902018
  H  1.96856468  2.24762979  0.55028286
  H  4.26412367  1.49563184  0.82937570
  H  4.77588369 -0.91890487  1.05674575
  H  2.92051695 -2.54927648  1.06776880
  H  0.62627932 -1.81693247  0.84018900
