29
opt_min/./Reactant_5665_1_opt.xyz
  C -1.70797800 -2.92464500 -0.56882500
  O -0.99422817 -1.70387894 -0.43856937
  C -1.76299633 -0.57663982 -0.52219785
  O -2.95287094 -0.63359753 -0.69707757
  C -0.98625582  0.64710021 -0.38801542
  O  0.32715184  0.74230131 -0.24011003
  C  1.25569978 -0.13347602 -0.19074409
  C  2.61703508  0.30996319 -0.05202356
  C  3.62525123 -0.60946493  0.25908472
  C  4.93381446 -0.19027341  0.38688612
  C  5.26117570  1.14471692  0.20066909
  C  4.26914115  2.06509795 -0.10834811
  C  2.95765712  1.65796565 -0.23341743
  C -1.66328232  1.94928460 -0.39981801
  O -2.84295070  2.14380703 -0.52947708
  O -0.75606760  2.94941135 -0.24267808
  C -1.27058426  4.27077458 -0.22231855
  H -2.56535539 -2.93375842  0.10609550
  H -2.06744996 -3.04369844 -1.59309261
  H -1.00485026 -3.71468874 -0.31647334
  H  1.04276327 -1.19345401 -0.26545732
  H  3.36595114 -1.64752602  0.40573818
  H  5.70332229 -0.90644783  0.63344104
  H  6.28729429  1.46622655  0.29567462
  H  4.52968812  3.10275871 -0.25408991
  H  2.18005179  2.36861825 -0.46815020
  H -1.36076231  4.61138055  0.81107208
  H -0.56712384  4.90152466 -0.76402724
  H -2.25237346  4.29637333 -0.69946221
