18
opt_min/./Reactant_935_1_opt.xyz
  C -2.62784600  0.64103000 -0.00262300
  C -1.89860217 -0.28951592 -0.93828469
  O -2.41577066 -0.79049673 -1.90798057
  C -0.49474384 -0.54260433 -0.58927003
  C  0.48716452 -1.08212457 -1.32236435
  F  0.50817404 -1.52164085 -2.56513546
  C  1.75703552 -1.03095650 -0.47163524
  C  2.10597149  0.46450502 -0.40872751
  C  1.15872059  0.99616179  0.34518092
  C  0.24474831 -0.17839156  0.71945393
  O  1.18663943 -1.23274333  0.80824076
  H -3.05061261  0.04227022  0.80474559
  H -1.97213401  1.39489860  0.41925532
  H -3.45171957  1.11425846 -0.53316909
  H  2.54487678 -1.73930611 -0.70108551
  H  2.94025148  0.91245402 -0.90692725
  H  0.99264915  2.01135414  0.64182872
  H -0.34545083 -0.10311043  1.62503222
