23
opt_min/./Reactant_1209_0_opt.xyz
  C -1.64111067  2.65336350 -1.32364373
  O -0.88089420  1.49505639 -1.01248233
  C -1.22382549  0.81882158  0.10940167
  O -2.14415037  1.12969092  0.81565591
  C -0.32705216 -0.32466160  0.30810583
  O  0.80787144 -0.53709687 -0.32584299
  C  1.55145945  0.10412212 -1.15301851
  C  2.80269646 -0.61847648 -1.57210302
  C  1.42818872  1.40164693 -1.67797629
  N  1.55695297  2.43450159 -2.17097617
  C -0.68958383 -1.38579606  1.26086806
  O -1.71650581 -1.45347797  1.87987907
  O  0.29622788 -2.30884144  1.33867833
  C  0.05500612 -3.39849217  2.21575560
  H -1.00587584  3.26271557 -1.96284694
  H -1.90361196  3.18477019 -0.40796906
  H -2.55449913  2.36840196 -1.84847960
  H  2.72707056 -1.66414526 -1.28528013
  H  3.67297952 -0.18004016 -1.08191235
  H  2.94920664 -0.53732914 -2.64663224
  H -0.54736545 -4.15823340  1.71362735
  H  1.02845358 -3.80430172  2.48074592
  H -0.47660505 -3.05632968  3.10553522
