22
opt_min/./Reactant_942_0_opt.xyz
  C -1.90641097  0.80462201  1.16684903
  C -0.39682435  0.97271287  1.01340073
  O  0.17922426  1.82617115  1.66874288
  C  0.25949340  0.02954833  0.14607277
  C  1.67945352 -0.27500293  0.16924060
  C  2.55000080  0.57465520  1.04527082
  O  2.14167257 -1.16241734 -0.54070049
  N -0.39825478 -0.60960773 -0.88643009
  C -1.07585127  0.19487825 -1.88459047
  C -0.12171195 -1.86285978 -1.16926559
  C  0.33662844 -2.79797923 -0.23301780
  N  0.65842995 -3.61124767  0.51137671
  H -2.27141590 -0.14293238  0.77989173
  H -2.13121721  0.86431605  2.22997468
  H -2.42675558  1.63341940  0.68879227
  H  2.22162234  0.48552242  2.07784170
  H  3.58063224  0.24683078  0.94129647
  H  2.45721415  1.62355871  0.77244691
  H -1.66568164  0.97020883 -1.40345131
  H -1.72608152 -0.42589949 -2.49893171
  H -0.33492167  0.68074131 -2.52422493
  H -0.35199474 -2.24314085 -2.15519716
