26
opt_min/./Reactant_5130_0_opt.xyz
  C  2.45382795 -0.27273218  2.57558800
  C  3.38303157 -0.26419499  1.37873309
  O  4.58479934 -0.40374203  1.49006399
  C  2.74367182 -0.03552758  0.08628669
  C  3.56339734 -0.08227698 -1.04728799
  N  4.30738418 -0.16344386 -1.92243925
  O  1.42295077  0.15226539  0.09720888
  C  0.60149259  0.41322123 -0.86851374
  C  1.05872769  0.58035394 -2.27666449
  C -0.78720636  0.54016433 -0.48461854
  C -1.13506114  0.75148981  0.85910249
  C -2.45651404  0.86118844  1.23657665
  C -3.46623164  0.75990630  0.29086917
  C -3.13803295  0.54369067 -1.03864002
  C -1.81840053  0.43468529 -1.42818336
  H  1.51670460 -0.77677848  2.35711404
  H  2.24784228  0.75628108  2.86909594
  H  2.95689257 -0.76634213  3.40303512
  H  1.27021839 -0.38613154 -2.73854810
  H  0.31447068  1.10143550 -2.87127763
  H  1.98437324  1.15632338 -2.29654854
  H -0.35710162  0.84408761  1.60138578
  H -2.70275798  1.02956634  2.27428900
  H -4.49941487  0.84560133  0.58911589
  H -3.91871824  0.45579276 -1.77929548
  H -1.59026320  0.23946229 -2.46401097
