26
opt_min/./Reactant_5133_0_opt.xyz
  C  2.45382795 -0.27273218  2.57558800
  C  3.38303155 -0.26419500  1.37873307
  O  4.58479933 -0.40374206  1.49006395
  C  2.74367178 -0.03552761  0.08628667
  C  3.56339732 -0.08227700 -1.04728799
  N  4.30738418 -0.16344389 -1.92243925
  O  1.42295073  0.15226539  0.09720885
  C  0.60149255  0.41322123 -0.86851376
  C  1.05872765  0.58035394 -2.27666452
  C -0.78720640  0.54016434 -0.48461856
  C -1.13506119  0.75148979  0.85910246
  C -2.45651411  0.86118840  1.23657662
  C -3.46623169  0.75990628  0.29086913
  C -3.13803298  0.54369073 -1.03864009
  C -1.81840057  0.43468534 -1.42818341
  H  1.51670455 -0.77677838  2.35711404
  H  2.24784237  0.75628108  2.86909598
  H  2.95689254 -0.76634220  3.40303510
  H  1.27021828 -0.38613155 -2.73854814
  H  0.31447066  1.10143553 -2.87127764
  H  1.98437323  1.15632332 -2.29654856
  H -0.35710169  0.84408755  1.60138576
  H -2.70275804  1.02956627  2.27428896
  H -4.49941491  0.84560130  0.58911584
  H -3.91871827  0.45579284 -1.77929555
  H -1.59026324  0.23946236 -2.46401102
