22
opt_min/./Reactant_5090_0_opt.xyz
  C  4.75495100  0.06825700 -0.58403100
  N  3.48032524  0.07063904  0.09042448
  C  2.31425812  0.02997401 -0.58058287
  O  2.18326630  0.01757226 -1.78574422
  C  1.14063971  0.02125187  0.33253147
  O  1.22243596  0.02491824  1.63985290
  C -0.15371796  0.00436220  2.16855562
  O -0.33885833  0.00350472  3.34150595
  C -0.91756359 -0.00953702  0.97085919
  C -2.38252559 -0.03701043  0.78556204
  O -3.15921650 -0.05430837  1.71446743
  N -2.75494340 -0.01850616 -0.51751120
  C -4.14190447 -0.06346767 -0.90674524
  O -0.08198170  0.00157688 -0.09031217
  H  5.27135710 -0.88187187 -0.43303248
  H  4.56712970  0.20344619 -1.64806017
  H  5.37764654  0.87976131 -0.20979152
  H  3.46834566  0.06260576  1.09954050
  H -2.05653537 -0.02752977 -1.24326464
  H -4.73799068  0.08004834 -0.00651794
  H -4.35974679  0.72914612 -1.62264391
  H -4.39453549 -1.02966049 -1.35004850
