26
opt_min/./Reactant_2185_0_opt.xyz
  C -1.51357500 -3.48486200  1.84521400
  O -0.82341959 -2.33916966  1.38033484
  C -1.39517366 -1.68291600  0.29556957
  O -2.41665935 -2.08233823 -0.20628926
  C -0.60009794 -0.53836993 -0.06450544
  N  0.43591601 -0.25357908  0.80258791
  C  1.54035354  0.41923073  0.69478197
  C  2.39870194  0.54013796  1.91364676
  C  2.13216486  0.91021909 -0.57437586
  C -1.03583310  0.41884228 -1.05299612
  O -0.58786508  1.54848359 -1.17162379
  O -2.02332367 -0.06519679 -1.82782937
  C -2.60308875  0.81823330 -2.77181332
  H -1.09590699 -4.38214694  1.38294294
  H -2.57209694 -3.41148393  1.58798104
  H -1.38035853 -3.52585273  2.92506378
  H  0.25817482 -0.67941318  1.71335391
  H  3.21417807 -0.18234576  1.87256830
  H  1.83219902  0.36865742  2.82574924
  H  2.84415645  1.53091163  1.96345595
  H  1.43931040  0.86352857 -1.40274510
  H  3.00106469  0.28782397 -0.80047322
  H  2.47465623  1.93586496 -0.46725416
  H -2.01876567  1.73974097 -2.83084318
  H -2.61758813  0.31273042 -3.73681620
  H -3.62452634  1.04769237 -2.46244076
