26
opt_min/./Reactant_2511_0_opt.xyz
  C -1.99019051 -2.38985385  0.56327738
  O -1.03240010 -1.44337687  0.12629105
  C -0.76212382 -0.42228758  0.99575735
  O -1.31354063 -0.33953606  2.06900874
  C  0.29672392  0.42486134  0.47736141
  C  1.08448679  1.29465617  1.32910339
  C  0.74445546  1.31654556  2.79422338
  O  1.96336937  2.02637926  0.88635626
  N  0.57080923  0.36452143 -0.87269944
  C  1.96247848  0.30699204 -1.26415834
  C -0.35990402  0.38372181 -1.80458078
  C -1.78485100  0.78380092 -1.59297414
  C -0.04030033  0.06084250 -3.13185607
  N  0.14485622 -0.26257211 -4.22049217
  H -2.81764273 -1.88931227  1.07088396
  H -2.34097889 -2.90568163 -0.32765733
  H -1.53317348 -3.09895817  1.25676298
  H -0.26989210  1.67647296  2.94361090
  H  0.79951129  0.31572468  3.21425597
  H  1.44763213  1.97337746  3.30027526
  H  2.44908590 -0.52520812 -0.75515434
  H  2.44413684  1.23275223 -0.93518176
  H  2.05881002  0.19398735 -2.34152623
  H -2.44611153  0.15236867 -2.18469404
  H -2.08873213  0.74301865 -0.55367758
  H -1.90767675  1.81091954 -1.94631867
