35
opt_min/./Reactant_3149_0_opt.xyz
  C  4.55143800  2.54186200 -0.27947800
  O  3.75200037  1.37021346 -0.32606639
  C  2.43218122  1.55948320 -0.32378626
  O  1.90304751  2.66175939 -0.26551902
  C  1.62098853  0.35709962 -0.37795820
  N  0.30048270  0.63884243 -0.28803935
  C -0.76491844 -0.11750957 -0.40852054
  C -0.67128510 -1.48036969 -1.02024031
  C -1.39859479 -2.57902504 -0.29246220
  O -0.10017721 -1.65007871 -2.07044182
  C -2.05746265  0.42412098 -0.02606959
  C -3.21741578  0.05218471 -0.71343977
  C -4.44448938  0.57322204 -0.35444492
  C -4.54077953  1.47445584  0.69423581
  C -3.39908847  1.85229343  1.38252502
  C -2.16725502  1.33748660  1.02812385
  C  2.10564017 -1.00628367 -0.23442620
  O  1.40521473 -1.91542828  0.17543224
  O  3.39095554 -1.15691060 -0.55462924
  C  3.91432315 -2.46396454 -0.39040023
  H  5.52964616  2.26159499 -0.66352870
  H  4.63783984  2.89821953  0.74932085
  H  4.10900498  3.32888954 -0.89360771
  H  0.16556470  1.64524095 -0.10011983
  H -1.63482148 -2.29877413  0.72917735
  H -2.31740744 -2.82996311 -0.81911661
  H -0.76328766 -3.46119185 -0.29330549
  H -3.14302327 -0.62555970 -1.54980168
  H -5.32948610  0.28166608 -0.89969197
  H -5.50030135  1.88174650  0.97417858
  H -3.46894888  2.54993022  2.20357405
  H -1.29117958  1.61987097  1.59399042
  H  3.47613960 -3.14193573 -1.12689309
  H  3.69227584 -2.84460577  0.60926738
  H  4.98791877 -2.38370848 -0.53981653
