16
opt_min/./Reactant_3305_1_opt.xyz
  C  3.42065300 -0.41412500  0.30617600
  N  2.39502301 -0.49612857  1.29922935
  N  1.22581595 -0.58450726  0.86109938
  N  0.18744697 -0.70174031  1.57528640
  C -1.06103639 -0.69394882  0.97109731
  O -1.93502230 -1.47893150  1.23718801
  N -1.22488795  0.31823720  0.05110742
  C -2.53504554  0.54017927 -0.52532430
  H  3.24543749 -1.09612770 -0.53620752
  H  4.36426032 -0.66037929  0.78390615
  H  3.48966745  0.60386015 -0.09300479
  H  1.09006941 -0.62103398 -0.19632727
  H -0.61568319  1.11959482  0.09726373
  H -3.29332804  0.65181417  0.25392257
  H -2.80845977 -0.32175289 -1.13487897
  H -2.50878302  1.43311716 -1.14382627
