30
opt_min/./Reactant_2776_1_opt.xyz
  F  1.71136838  0.73440471  3.64600417
  C  2.09119999  0.06276900  2.52322050
  F  3.21116167 -0.62439326  2.88479766
  C  1.06889671 -0.81383370  1.98626409
  C  0.34351705 -1.25642644  1.13696490
  C -0.19389722 -1.59285578 -0.15131508
 Br -0.41658944 -3.59841382 -0.28881521
  C -1.50687202 -0.92966314 -0.46904814
  C -2.19780762 -1.25736150 -1.62842263
  C -3.38208693 -0.61844657 -1.94186516
  C -3.88988877  0.35835156 -1.10091807
  C -3.20588845  0.69050545  0.05525340
  C -2.01951381  0.05156713  0.37204689
  C  0.92670439 -1.17980877 -1.13829716
  C  1.42886475  0.25998018 -0.90077110
  C  2.66255332  0.40106627  0.03079288
  C  2.41371745  1.06296615  1.39872949
  H -1.81747294 -2.03002048 -2.28130225
  H -3.91074950 -0.88785669 -2.84327054
  H -4.81792635  0.85295202 -1.34155701
  H -3.59612117  1.44801205  0.71838657
  H -1.49473530  0.31050702  1.27989509
  H  1.76633743 -1.86873650 -1.03241143
  H  0.54331666 -1.27971596 -2.15489654
  H  0.61397770  0.88610938 -0.53866448
  H  1.71354475  0.64844460 -1.87970715
  H  3.38747475  1.03587581 -0.48107270
  H  3.13786102 -0.56811880  0.17391195
  H  3.30078271  1.61722410  1.71116620
  H  1.58119941  1.76625667  1.33751421
