26
opt_min/./Reactant_5242_1_opt.xyz
  C  0.63313767  2.00690393  2.67455259
  N  0.66098817  0.98310862  1.66019118
  C -0.30453341  0.87007685  0.72323167
  O -1.31449106  1.57347585  0.76010009
  C -0.13902243 -0.17345594 -0.28310385
  N  0.95467749 -0.84282824 -0.65733664
  C  2.26906405 -0.79167137 -0.53821264
  C  3.08238092 -1.81712099 -1.27738682
  C  2.98660205  0.18988521  0.14026193
  N  3.66105671  0.97393344  0.65196169
  C -1.29999187 -0.74625779 -1.01662331
  O -1.08924023 -1.73191573 -1.73450866
  N -2.48578875 -0.16569064 -0.85693170
  C -3.67399124 -0.62630544 -1.52554861
  H -0.29109492  2.56818724  2.55705608
  H  1.48679622  2.67561411  2.55261224
  H  0.66525653  1.55897854  3.66810718
  H  1.46152767  0.37617827  1.65801300
  H  0.59747676 -1.57482642 -1.32512734
  H  3.92783930 -2.14186074 -0.67384938
  H  3.48098921 -1.40286455 -2.20501609
  H  2.46804604 -2.68091636 -1.52114343
  H -2.52240901  0.66627687 -0.26970032
  H -3.95823606  0.06089793 -2.32608942
  H -4.49510300 -0.70051617 -0.81249272
  H -3.47092508 -1.60604521 -1.95523052
