41
opt_min/./Reactant_2489_0_opt.xyz
  C  3.72911500 -2.21279100  1.67368900
  C  2.96304550 -0.91893266  1.73912143
  O  2.90299117 -0.29969697  2.80171834
  C  2.29610375 -0.47019627  0.53593621
  C  2.27277907 -1.25450338 -0.68122841
  C  2.01833456 -0.49700456 -1.98283768
  O  2.53455726 -2.44606552 -0.73797207
  N  1.58163728  0.72087331  0.56047542
  C  2.21079607  1.86418081  1.19001907
  C  0.35611805  0.80085561  0.07280733
  C -0.26918448  2.08861792 -0.23926838
  C  0.40268422  3.07189648 -0.97016767
  C -0.22834981  4.25671205 -1.29628769
  C -1.53317785  4.48720546 -0.89197731
  C -2.21119468  3.51845911 -0.16933954
  C -1.59049984  2.32602999  0.14779211
  C -0.46486802 -0.38897898 -0.15942012
  C -1.32120502 -0.43943743 -1.26278799
  C -2.13689349 -1.53631521 -1.46806841
  C -2.12843170 -2.58871197 -0.56895021
  C -1.30625469 -2.53378154  0.54651192
  C -0.47485538 -1.45162837  0.74808277
  H  4.25914856 -2.34924134  2.61382194
  H  3.04334861 -3.04141238  1.51557662
  H  4.43066624 -2.20606996  0.84435345
  H  2.18730352  0.57182431 -1.89182231
  H  1.00695887 -0.67842649 -2.34086855
  H  2.69960299 -0.90600179 -2.72683131
  H  1.50785920  2.68433153  1.30245630
  H  2.56126818  1.53556917  2.17212700
  H  3.07596664  2.18482302  0.60812593
  H  1.41283640  2.89399750 -1.30859255
  H  0.29974838  5.00217489 -1.87178689
  H -2.02092504  5.41675190 -1.14348015
  H -3.22866517  3.69198967  0.14678922
  H -2.11777708  1.57198522  0.71282034
  H -1.33371556  0.38038766 -1.96689063
  H -2.78056546 -1.56785408 -2.33469704
  H -2.76124566 -3.44758394 -0.73299565
  H -1.31026288 -3.34217545  1.26154381
  H  0.15213278 -1.41558493  1.62581353
