21
opt_min/./Reactant_4208_1_opt.xyz
  C -4.11954600  0.33575000 -0.32016200
  N -2.67707828  0.28495486 -0.24385040
  C -2.05790863 -0.61801898  0.57098171
  O -2.66941347 -1.38234703  1.28150028
  C -0.58643044 -0.58332795  0.52494733
  N  0.19944512  0.22445205 -0.21657161
  C  1.49185910 -0.03026314 -0.00157966
  C  2.56116797  0.68810995 -0.67405489
  C  3.95285027  0.28410401 -0.29952908
  O  2.27240845  1.55572997 -1.48207780
  O  1.61431732 -1.01155760  0.88108236
  C  0.31083211 -1.43540392  1.28187090
  O  0.16811304 -2.31199232  2.07606588
  H -4.46110695  1.36934789 -0.31780417
  H -4.48500066 -0.17139977 -1.21719583
  H -4.50772858 -0.18697368  0.55411727
  H -2.16901611  0.88456812 -0.87170042
  H -0.07506520  0.95117567 -0.86825372
  H  4.25944900  0.87115796  0.56706808
  H  3.99000381 -0.76675855 -0.02931459
  H  4.63769044  0.50420473 -1.11491858
