21
opt_min/./Reactant_4394_0_opt.xyz
  C  0.28205227  2.87187026 -1.59219454
  O  0.34068647  1.62890048 -0.90597889
  C  1.12021560  0.69339222 -1.47967268
  O  1.75853261  0.88054156 -2.48843864
  C  1.11870448 -0.57117218 -0.73584972
  N  1.89668606 -1.48111820 -1.17505991
  N  2.61902548 -2.26811841 -1.52811042
  C  0.14148922 -0.93714799  0.30905073
  C -0.48649320 -2.18223209  0.26097740
  C -1.39547891 -2.54508532  1.24073356
  C -1.70326418 -1.66312714  2.26588590
  C -1.07128088 -0.43263268  2.32945238
  C -0.16434664 -0.06693474  1.35216102
  H -0.47077330  3.46735762 -1.08054387
  H  1.26378339  3.35169423 -1.54180679
  H  0.01156581  2.71432271 -2.63904822
  H -0.23425226 -2.87508834 -0.53047685
  H -1.86115358 -3.51813791  1.19464786
  H -2.42792273 -1.94113252  3.01838560
  H -1.30389728  0.25865498  3.12670791
  H  0.33042713  0.88973893  1.38614053
