34
opt_min/./Reactant_2004_1_opt.xyz
  C  3.18580255  2.32054699 -1.04031643
  O  1.85065700  1.85055404 -1.05668457
  C  1.31087900  1.45427837  0.14688525
  F  1.27649528  2.56426004  1.00744646
  C -0.01084726  0.91218467 -0.07259267
  C -0.87131903  0.07689417 -0.10050620
  C -1.52748480 -1.19897741 -0.11066764
  C -2.31330888 -1.47834737  1.19195586
  C -2.95544953 -0.28340133  1.83749991
  O -2.41199461 -2.59285676  1.62494407
  C -2.54739385 -1.38274745 -1.24936425
  C -3.38064656 -0.17251720 -1.56619506
  O -2.66151971 -2.43314240 -1.81758898
  C -0.37459065 -2.22620668 -0.25814647
  C  0.83887892 -2.03732659  0.67197806
  C  1.98015342 -1.07092362  0.25960582
  C  2.05129417  0.32741728  0.90505004
  H  3.34426351  3.03730316 -0.23108070
  H  3.90301957  1.49812121 -0.95569326
  H  3.32688256  2.81985305 -1.99582934
  H -3.96476384 -0.16798626  1.44546552
  H -3.03685174 -0.46050423  2.90727564
  H -2.39818771  0.62848743  1.64562512
  H -3.65297189 -0.19410147 -2.61875353
  H -2.85869624  0.74986165 -1.32985261
  H -4.30231051 -0.21840876 -0.98843279
  H -0.81657298 -3.20259632 -0.04763100
  H -0.03581835 -2.23075122 -1.29565583
  H  0.51379781 -1.81720591  1.68825365
  H  1.29986633 -3.02681283  0.69777693
  H  2.02402513 -0.98821586 -0.82601368
  H  2.90202012 -1.56130182  0.58007552
  H  1.64628061  0.29663920  1.91808038
  H  3.09887313  0.63021641  0.98224772
