21
opt_min/./Reactant_4108_0_opt.xyz
  C  4.26241839  0.41981688 -0.48146682
  N  2.86561271  0.13400924 -0.26639640
  C  1.92988133  1.12285738 -0.28457941
  O  2.17397601  2.31043079 -0.42298355
  C  0.59640221  0.68679689 -0.11981279
  N -0.55657713  0.47021407  0.01866741
  C -1.81969718  0.27226102  0.10419704
  C -2.74108350  1.45972336  0.11691981
  C -2.36827273 -1.06243249  0.24628672
  C -1.37139985 -2.20387963  0.28500605
  O -3.56799701 -1.24995944  0.34230095
  H  4.58203693  0.10505429 -1.47842926
  H  4.86927167 -0.08623831  0.26880455
  H  4.39182787  1.49749705 -0.39428263
  H  2.58012983 -0.82727875 -0.18252243
  H -2.37223041  2.24723695 -0.53583166
  H -3.72130353  1.12414191 -0.21242224
  H -2.83961329  1.86330082  1.12537576
  H -1.88477204 -3.13594080  0.06764010
  H -0.95839032 -2.26499026  1.29171838
  H -0.56025519 -2.05276940 -0.42175583
