26
opt_min/./Reactant_4671_0_opt.xyz
  C  0.71601900  1.41228200  0.33446500
  O  1.02052065  2.54485557  0.65430508
  C -0.56689779  1.13148724 -0.35591293
  O -1.23225654  2.28027052 -0.59905462
  C -2.61646206  2.29154050 -0.87806557
  C -0.94146117 -0.14047578 -0.69271506
  O -2.09982347 -0.30674581 -1.40030593
  C -2.70964065 -1.57459163 -1.54527673
  C -0.06130132 -1.28096871 -0.37987318
  O -0.34796984 -2.43040551 -0.68135682
  C  1.21615850 -0.99423178  0.31557952
  C  2.06957892 -2.17907126  0.62631707
  C  1.59750134  0.26016302  0.62066685
  C  2.90072877  0.57007400  1.27865563
  H -2.90236447  3.34174569 -0.84703225
  H -2.83276648  1.87975511 -1.86488013
  H -3.18085411  1.73885368 -0.12390329
  H -3.67989734 -1.36172751 -1.99286445
  H -2.13431774 -2.22469856 -2.20697994
  H -2.85007701 -2.07672686 -0.58659531
  H  2.35947381 -2.18085256  1.67408741
  H  1.52777599 -3.09153269  0.39506243
  H  2.97983558 -2.15317522  0.02939384
  H  2.96061220  0.09160104  2.25504150
  H  2.99617006  1.64413095  1.40461570
  H  3.72890430  0.20016148  0.67830321
