32
opt_min/./Reactant_5607_0_opt.xyz
  C  2.52104700 -2.17809000 -0.38827700
  N  1.73363552 -1.16884086  0.27458592
  C  1.62390358  0.08770735 -0.22070562
  O  2.20933521  0.47993271 -1.20178644
  C  0.80484360  0.98851764  0.65253560
  N -0.41115765  0.79814017  1.10601267
  C -1.42658743 -0.05079157  0.90506991
  C -2.56625256  0.28011966  1.77489890
  C -3.84388566 -0.49166938  1.65728312
  O -2.43156706  1.19072705  2.57798616
  C -1.39695288 -1.00900394 -0.20097246
  O -0.58520068 -0.96716127 -1.09900982
  O -2.37124947 -1.93603742 -0.14485084
  C -2.41694388 -2.84411359 -1.23622107
  C  1.39026670  2.25300332  1.16264553
  O  0.73915175  2.99330123  1.87075599
  O  2.65004779  2.43485734  0.80446926
  C  3.27106352  3.64764870  1.21141304
  H  3.44817362 -2.37749076  0.15650637
  H  2.76536823 -1.80085892 -1.38003885
  H  1.94699078 -3.10085025 -0.47626223
  H  1.24238060 -1.43263695  1.11354140
  H -0.68553067  1.54787407  1.80045587
  H -4.55356919 -0.10133956  2.38308658
  H -3.66648712 -1.54898410  1.84135641
  H -4.25461877 -0.39266239  0.65404259
  H -1.41336256 -3.19927726 -1.47845699
  H -2.83759412 -2.35865651 -2.11848781
  H -3.05355981 -3.66704545 -0.91741033
  H  2.83754319  3.99680439  2.15127748
  H  4.33174935  3.43217404  1.32616463
  H  3.12698430  4.40808494  0.44076330
