29
opt_min/./Reactant_3181_1_opt.xyz
  C -2.39519500 -2.66199500 -0.25520800
  N -1.22346690 -2.13075142  0.39424068
  C -0.45024182 -1.20088769 -0.19906908
  O -0.60497816 -0.82102834 -1.35853653
  C  0.58484482 -0.59575062  0.65644852
  O  1.58880827  0.12699301  0.11694198
  C  2.18957884 -0.06799642 -1.01103934
  C  2.02744183 -1.23280760 -1.89272193
  C  3.21560669  0.95417987 -1.37826318
  O  4.01358632  0.76031939 -2.27601362
  N  3.17756242  2.08266594 -0.63614525
  C  4.09649057  3.17263293 -0.83930505
  C  0.48902319 -0.51271386  2.09062937
  C  1.49981223  0.37877716  2.78045301
  O -0.33566043 -1.15064264  2.73893366
  H -2.40018070 -3.75039428 -0.18389141
  H -2.36146289 -2.36374655 -1.30221884
  H -3.30904662 -2.27185370  0.19880904
  H -1.13821942 -2.22338856  1.40095401
  H  1.06039338 -1.19798846 -2.40908818
  H  2.01816699 -2.14801164 -1.29568283
  H  2.83624632 -1.23669866 -2.61840601
  H  2.48197701  2.17427381  0.08657848
  H  3.56109449  4.08079682 -1.12140291
  H  4.67332959  3.36440806  0.06719129
  H  4.77100868  2.88564246 -1.64417071
  H  1.36307759  0.29669717  3.85473324
  H  1.34790024  1.41378408  2.47943222
  H  2.51445149  0.08769930  2.51796124
