31
opt_min/./Reactant_2106_1_opt.xyz
  C -3.19541832  0.82368850 -1.98880810
  C -3.17423396 -0.16372534 -0.85854435
  O -4.04268860 -0.96933926 -0.65052384
  C -1.95638370 -0.05700348  0.05386979
 Br -2.64754114  1.21818989  1.45176459
  C -0.75201434  0.48060053 -0.49975175
  C  0.41771394  0.57418838 -0.76465242
  C  1.83170461  0.34435453 -0.54739808
  C  2.57004509  1.59729820 -0.06779821
  C  2.49741016 -0.24936745 -1.79467695
  C  1.79121115 -0.73573180  0.58296619
  C  0.78299537 -0.44500466  1.72054782
  C -0.47371020 -1.33308752  1.79618591
  C -1.55611091 -1.38099862  0.69801405
  H -2.34457769  0.64473326 -2.64419824
  H -3.11029153  1.83699612 -1.59760384
  H -4.12355317  0.72529087 -2.54595759
  H  2.47225415  1.71599092  1.00849770
  H  3.62855980  1.53338059 -0.30977080
  H  2.16831161  2.49099880 -0.54229493
  H  2.85772454  0.53948036 -2.45191702
  H  1.79452167 -0.86585130 -2.35210630
  H  3.34482132 -0.87148696 -1.51378023
  H  1.58413034 -1.71056889  0.14009081
  H  2.79439996 -0.78493121  1.01475607
  H  1.30872416 -0.60968562  2.66571848
  H  0.50386736  0.60890667  1.70735038
  H -0.96360436 -1.06237545  2.73553335
  H -0.12034895 -2.36296812  1.90316156
  H -2.44914310 -1.85216127  1.11950469
  H -1.20849369 -2.04568111 -0.09974516
