29
opt_min/./Reactant_2584_0_opt.xyz
  C  1.38601089  3.39826409 -0.66681011
  N  1.19252090  2.00789759 -0.32842452
  C -0.03876659  1.51779641  0.01780035
  O -1.00233102  2.25110231  0.14011791
  C -0.08995765  0.05205178  0.15744087
  N  0.90947429 -0.66911397  0.69147105
  C  1.92113430 -0.39375371  1.53435907
  C  2.07737950  0.86083674  2.33546383
  C  2.78808978 -1.43916533  1.81822492
  N  3.55501596 -2.27683434  2.02887007
  C -1.20396907 -0.66923650 -0.42922982
  C -2.00914230 -0.07737788 -1.41126526
  C -3.06105763 -0.76937598 -1.97453107
  C -3.33619726 -2.07131523 -1.58281935
  C -2.55577256 -2.66819845 -0.60649773
  C -1.50738523 -1.97973743 -0.03053061
  H  0.46459343  3.92270884 -0.42355539
  H  2.21011136  3.81817860 -0.08708879
  H  1.59964413  3.51662376 -1.73057730
  H  1.92505711  1.36714928 -0.59239109
  H  0.85922054 -1.65809877  0.44966924
  H  1.77881024  1.74654330  1.78239256
  H  3.11335213  0.96310565  2.64680130
  H  1.45649354  0.80319613  3.23249179
  H -1.80720289  0.93214170 -1.72852371
  H -3.66800208 -0.29117285 -2.72818710
  H -4.15683703 -2.61132740 -2.02858409
  H -2.77296117 -3.67480206 -0.27960650
  H -0.94971452 -2.46032100  0.76240935
