16
opt_min/./Reactant_397_0_opt.xyz
  C  2.00036987  0.60926213  0.00936744
  C  0.91964986 -0.22141949  0.58310782
  N -0.21689560 -0.48973980 -0.00449456
  C -1.12603969 -1.38762594  0.69269662
  C -0.63533919 -0.04081194 -1.22170607
  C -1.83348209 -0.50233200 -1.77029937
  N -2.82577990 -0.85999165 -2.23351380
  C  0.03208450  0.89775515 -2.01343083
  N  0.51442802  1.67281655 -2.71538071
  H  2.87101223  0.57826872  0.65911713
  H  2.28441219  0.25430955 -0.98309103
  H  1.68856254  1.64934067 -0.10354085
  H  1.05289807 -0.64071101  1.56745640
  H -2.13853271 -1.26879136  0.31272249
  H -0.81821052 -2.42398186  0.54076996
  H -1.11838821 -1.16882015  1.75963363
