32
opt_min/./Reactant_2108_0_opt.xyz
  C  4.27343400 -0.97200800  1.11572000
  C  3.09666353 -0.03752594  1.08531700
  O  3.09365069  1.08522265  1.58253230
  N  2.01347078 -0.55927311  0.43804739
  N  1.00485444  0.28594933  0.45240140
  C -0.19130408  0.18471290 -0.06004718
  C -0.66854881 -0.96556328 -0.80728542
  C -1.82758980 -0.86148221 -1.58907971
  C -2.28970942 -1.94542743 -2.30738020
  C -1.61213089 -3.15344887 -2.26480624
  C -0.45841508 -3.26488155 -1.50625511
  C  0.01579892 -2.18523416 -0.78772973
  C -1.06459159  1.35545816  0.15632487
  C -0.62884964  2.63036454 -0.19451511
  C -1.43772995  3.72910963  0.03341516
  C -2.67946436  3.56881645  0.62385781
  C -3.11257841  2.30498131  0.98968598
  C -2.31209595  1.20222149  0.75752430
  H  5.18488779 -0.42228905  0.88714912
  H  4.12246857 -1.77787851  0.40450348
  H  4.37032149 -1.38420191  2.11962256
  H  1.23471026  1.17311307  0.95178829
  H -2.35036796  0.08051813 -1.64528707
  H -3.18294387 -1.84776917 -2.90723682
  H -1.97814053 -4.00013402 -2.82673522
  H  0.07717509 -4.20229557 -1.47559196
  H  0.91767291 -2.27025831 -0.20351981
  H  0.33736921  2.75448531 -0.66120475
  H -1.09663975  4.71343590 -0.25032988
  H -3.30892584  4.42747556  0.80285844
  H -4.07559868  2.17806064  1.46172632
  H -2.64165667  0.21793440  1.05388781
