22
opt_min/./Reactant_2632_1_opt.xyz
  C -2.32515599 -2.26276798 -1.32563707
  C -1.31848845 -1.23608220 -0.88712010
  O -0.23847974 -1.58764735 -0.37488710
  C -1.60952446  0.12853361 -1.11943071
  C -2.78285306  0.57186769 -1.72802901
  N -3.74065216  0.95021838 -2.24155181
  N -0.62880136  1.06674492 -0.86907909
  C  0.44730461  0.90291912 -0.15523480
  C  1.47788716  1.97224957 -0.12739279
  C  0.53026095 -0.22816320  0.85337343
  C  1.87874929 -0.90347048  0.96079445
  O -0.27761813 -0.18498835  1.76310670
  H -2.79429331 -1.98145176 -2.26382365
  H -1.83655328 -3.23016431 -1.41958843
  H -3.10141283 -2.33997557 -0.56531394
  H -0.75867457  1.95466285 -1.35844304
  H  2.42271195  1.58528509 -0.51120317
  H  1.17941062  2.82898082 -0.73241003
  H  1.65141833  2.30180004  0.89635899
  H  2.55266582 -0.24075935  1.49791337
  H  1.76344924 -1.82102597  1.52963289
  H  2.28982247 -1.13243765 -0.01686663
