32
opt_min/./Reactant_2717_1_opt.xyz
  C -2.37336141  3.31537387  0.33939978
  O -1.88747777  1.98778947  0.50222179
  C -1.25268895  1.42887133 -0.51908046
  O -1.01447131  1.96749291 -1.56584975
  C -0.81169374  0.00509877 -0.16512807
  C -1.95892182 -0.73267562  0.52953336
  O -3.12370497 -0.56520368  0.28798265
  O -1.49418270 -1.62278941  1.40245980
  C -2.45489890 -2.39467095  2.11001194
  C  0.37073113  0.10251833  0.64147740
  C  1.50622678  0.12873997  1.02281715
  C  2.92648495  0.20681800  0.85069533
 Cl  3.63732429  1.57683177  1.77868326
  C  3.11822193  0.42047015 -0.65458215
  C  2.39756323 -0.56223122 -1.60593664
  C  0.95084082 -0.36597193 -2.13174111
  C -0.35041616 -0.78648831 -1.40901336
  H -1.84355869  3.96622659  1.03631766
  H -3.43920453  3.30507618  0.56726252
  H -2.20583180  3.64953961 -0.68572612
  H -2.84113012 -1.81912825  2.95441545
  H -1.93481702 -3.28124980  2.46663627
  H -3.28213287 -2.66434701  1.45055149
  H  3.42090750 -0.69637392  1.22227500
  H  2.82528323  1.43873232 -0.91841418
  H  4.18743248  0.32780909 -0.86883169
  H  2.53876842 -1.59062715 -1.26758158
  H  2.97240939 -0.43790378 -2.53213158
  H  0.84176191  0.66567744 -2.47075262
  H  0.93258650 -1.00970720 -3.01834797
  H -0.27955763 -1.84487044 -1.14323979
  H -1.13558272 -0.68719630 -2.16554103
