25
opt_min/./Reactant_4604_1_opt.xyz
  C  2.22739095  2.40498204 -3.12776900
  N  1.61819310  1.62470399 -2.07791737
  C  2.23913336  1.44266233 -0.89536242
  O  3.32974965  1.89318408 -0.61550078
  C  1.44400997  0.61973424  0.08038036
  C  1.90451925  0.52212158  1.40171581
  N  2.26495247  0.49192461  2.49308635
  O  0.34883504  0.10064168 -0.38116938
  C -0.60439412 -0.62307066  0.14889818
  C -0.52648277 -1.34407973  1.43879951
  C  0.73475566 -2.14682628  1.65788510
  O -1.46011043 -1.38985855  2.20656514
  C -1.77303951 -0.69796003 -0.76147777
  C -2.95785391 -1.47401282 -0.27981085
  O -1.71591157 -0.13800447 -1.83851129
  H  1.45545127  2.85154322 -3.74840841
  H  2.87505951  1.78174547 -3.74866966
  H  2.83734622  3.18590524 -2.67328718
  H  0.70194711  1.23326726 -2.24049178
  H  1.47185544 -2.03033674  0.86918412
  H  1.17789629 -1.88163076  2.61494554
  H  0.43991463 -3.19504016  1.71003160
  H -2.68561067 -2.51745788 -0.13641178
  H -3.28920765 -1.09084052  0.68248755
  H -3.76027670 -1.40253831 -1.00743258
