28
opt_min/./Reactant_2929_0_opt.xyz
  C  1.66782858  2.26855378  0.00864610
  C  0.98517183  1.09255406  0.70918710
  C  1.37036948  1.13966305  2.19438359
  F  2.67941717  0.90364587  2.37769322
  F  1.12050918  2.33861476  2.74237317
  F  0.71570455  0.24339720  2.94900852
  C -0.45833610  1.08849147  0.59110234
  C -1.56697286  0.68965825  0.37492327
  C -2.64991562 -0.21169535  0.00813397
  C -3.83499622 -0.04020058  0.82684951
  N -4.75274379  0.11030018  1.48848311
  C -3.00074733  0.02189738 -1.38547306
  N -3.24363575  0.21634109 -2.48370894
  C -2.02990335 -1.63153069  0.18882628
  C -0.65580887 -1.77582148 -0.49089943
  C  0.57359052 -1.50215053  0.40981801
  C  1.41821669 -0.25971267  0.06809362
  H  1.43560850  2.25157677 -1.05342844
  H  1.32229712  3.21353757  0.42377142
  H  2.74611954  2.20054018  0.13736225
  H -1.93240227 -1.81543531  1.26014891
  H -2.73250278 -2.36173620 -0.22053938
  H -0.61229688 -1.15444723 -1.38678527
  H -0.59010667 -2.81289003 -0.83029471
  H  1.25545917 -2.34977658  0.29853114
  H  0.26598221 -1.49248006  1.45413010
  H  1.39857870 -0.11623598 -1.01339933
  H  2.45316531 -0.44617810  0.36222757
