30
opt_min/./Reactant_4551_0_opt.xyz
  C -3.10536300 -1.36897900  0.19137000
  C -1.97474298 -0.41191905  0.39018692
  C -2.18098964  0.74950709  1.30315158
  N -0.78136587 -0.62057541 -0.16294869
  C -0.47170062 -1.95262891 -0.66465677
  C  0.10252725  0.38978461 -0.41106216
  C -0.45040060  1.69623094 -0.90895327
  C  1.50194307  0.22087680 -0.19282762
  C  2.46539213  1.06221506 -0.77972555
  C  3.81020318  0.89449431 -0.53114262
  C  4.26102574 -0.10581846  0.31523473
  C  3.33055445 -0.92990064  0.93246583
  C  1.98509553 -0.76765177  0.69380547
  H -4.03944648 -0.88668455  0.46880486
  H -3.18200383 -1.69104503 -0.84641918
  H -3.00157702 -2.26546778  0.80911187
  H -2.68799074  1.59734375  0.83813561
  H -2.79378609  0.43027165  2.14709354
  H -1.21783262  1.09528373  1.67404135
  H -0.62829429 -2.70727441  0.10532500
  H  0.56071146 -1.97685379 -1.00144381
  H -1.11674957 -2.18098560 -1.51549272
  H -0.39387344  2.50185448 -0.17474968
  H  0.10532110  2.01637305 -1.79028225
  H -1.48877919  1.57084857 -1.20870493
  H  2.15605944  1.84706595 -1.45236269
  H  4.52297323  1.55526968 -1.00596041
  H  5.31620885 -0.23232552  0.50678004
  H  3.66162198 -1.69604572  1.62010143
  H  1.28042776 -1.38407903  1.23417141
