21
opt_min/./Reactant_4789_1_opt.xyz
  C  0.24851552  2.86639381 -1.13545646
  C -0.94680498  1.94908023 -0.99144879
  O -2.09116937  2.33142821 -1.10056567
  C -0.61607427  0.55445010 -0.68912512
  O  0.64077277  0.29215779 -0.43286246
  C  1.21933339 -0.86512154 -0.26030183
  C  2.69704083 -0.82079564 -0.00836649
  C  0.57913633 -2.09992136 -0.33712391
  N  0.09818947 -3.14659831 -0.38004260
  C -1.71673951 -0.46226892 -0.62377074
  C -1.95004899 -0.99389646  0.77548650
  O -2.39599017 -0.74895019 -1.57115013
  H  0.88625231  2.52625192 -1.94815297
  H  0.83394868  2.86542091 -0.21862941
  H -0.10167154  3.87223992 -1.34443389
  H  2.93887701 -0.01695290  0.68413439
  H  3.03736941 -1.76795792  0.40110148
  H  3.23881084 -0.63743202 -0.93822881
  H -2.08040149 -2.07436489  0.74099040
  H -1.15172574 -0.73780662  1.46667697
  H -2.88326040 -0.55528760  1.12667166
