37
opt_min/./Reactant_2835_0_opt.xyz
  C -1.12295700  3.56369100  0.83777100
  N -1.05270935  2.34486810  0.07252765
  C -1.62664105  1.18503924  0.49475893
  O -2.29947643  1.12896900  1.50887317
  C -1.42685428  0.04020759 -0.42764472
  O -0.30085551 -0.20404185 -1.08186918
  C  0.92333894  0.23608201 -0.98090521
  C  1.79819881 -0.20557739 -2.11827747
  C  1.48916063  1.02394110  0.09707889
  C  2.54823347  1.90602140 -0.14372243
  C  3.11835261  2.61887110  0.89330269
  C  2.66088070  2.45642531  2.18987968
  C  1.64189077  1.55098005  2.45061586
  C  1.06115125  0.84129485  1.42217568
  C -2.51250968 -0.86422310 -0.74561916
  C -2.29582829 -1.98153097 -1.56789897
  C -3.32761880 -2.83657346 -1.88803983
  C -4.60345363 -2.61322725 -1.39430457
  C -4.83186357 -1.51804387 -0.57781158
  C -3.80817275 -0.64956071 -0.25841087
  H -0.17569094  3.75816293  1.35015719
  H -1.35999151  4.40495562  0.18812866
  H -1.90688332  3.43992872  1.58303161
  H -0.56449641  2.37305158 -0.80791362
  H  2.77757859 -0.51507920 -1.75522961
  H  1.32365064 -1.03635219 -2.63286864
  H  1.95013285  0.60153851 -2.83746102
  H  2.90922353  2.04790428 -1.15076331
  H  3.92433570  3.30826142  0.68716164
  H  3.10202462  3.02232513  2.99632224
  H  1.29531156  1.40028060  3.46141554
  H  0.29079612  0.11854485  1.64238432
  H -1.30353699 -2.16998905 -1.94849753
  H -3.13848950 -3.69084874 -2.52259667
  H -5.40800965 -3.28944946 -1.64232849
  H -5.82209748 -1.33546908 -0.18584828
  H -4.00790043  0.19377530  0.38098481
