23
opt_min/./Reactant_1274_1_opt.xyz
  C  3.82052800  0.25399200 -0.83684400
  O  2.40331200  0.27295591 -0.75940172
  C  1.89267472  0.37073128  0.48684271
  O  2.57245624  0.44225055  1.47882553
  C  0.42949811  0.40044225  0.45192191
  C -0.42847517  0.39304774  1.48408104
  F -0.16261097  0.33375039  2.78141409
  C -1.83436332  0.35059268  0.96198030
  C -2.02122549 -1.06337284  0.36419053
  C -1.03135067 -1.07290557 -0.81879448
  C -0.44389119  0.35749238 -0.78774662
  C -1.65303546  1.17580979 -0.31989467
  H  4.22807829 -0.54978682 -0.22107609
  H  4.06687054  0.09132895 -1.88347414
  H  4.23255020  1.20353155 -0.49119348
  H -2.60385294  0.66328679  1.66516957
  H -3.04859030 -1.16721722  0.01857893
  H -1.82015011 -1.85079265  1.08628007
  H -1.53084835 -1.28010411 -1.76268345
  H -0.24393892 -1.81250904 -0.68380373
  H  0.04157412  0.67485931 -1.70661308
  H -1.40588966  2.21597866 -0.12311473
  H -2.50274624  1.10707434 -0.99432861
