8
opt_min/./Reactant_125_0_opt.xyz
  C -0.90784400  0.33937800  0.05114000
  C  0.30333863 -0.48754980 -0.28161927
  N  1.43016331 -0.22480111  0.20992374
  N  2.44184361  0.02206250  0.65998764
  H -1.02367869  0.46033844  1.12615184
  H -1.79350342 -0.15321777 -0.33777078
  H -0.83913506  1.33004341 -0.39790926
  H  0.25266280 -1.31553236 -0.96523743
