27
opt_min/./Reactant_2634_0_opt.xyz
  C -2.88733800 -0.38602400 -0.11957500
  C -1.63406477  0.36903389 -0.35632197
  N -0.50954519  0.10848581  0.26039323
  C -0.44923254 -1.05619197  1.12662608
  C  0.60093788  0.91800344  0.20372103
  C  1.94233272  0.32526192  0.23121910
  O  2.91838653  0.82799632  0.74726213
  N  2.01140895 -0.92110671 -0.37602908
  C  3.29131798 -1.56823595 -0.54539135
  C  0.48841180  2.35645927  0.18628271
  O  1.37236466  3.13803326 -0.07301938
  O -0.77019734  2.79057450  0.54521963
  C -0.92625040  4.19378801  0.63297720
  H -3.71271089  0.09707549 -0.63399786
  H -3.12033349 -0.44347792  0.94483752
  H -2.81722044 -1.41220168 -0.48860842
  H -1.63506158  1.21238456 -1.02404126
  H -0.69294389 -1.96758880  0.57943625
  H  0.54333398 -1.14531296  1.55747062
  H -1.16717341 -0.93596370  1.94026796
  H  1.31314697 -1.13969832 -1.06981172
  H  3.68561538 -1.43987179 -1.55690926
  H  3.97976075 -1.10779132  0.16113466
  H  3.19996614 -2.63458454 -0.32987882
  H -1.98536174  4.40236936  0.49032310
  H -0.32759720  4.68997737 -0.13394431
  H -0.60203445  4.54952472  1.61407300
