39
opt_min/./Reactant_3182_0_opt.xyz
  C -4.35081322 -0.31887786 -2.27204526
  O -3.42827558 -0.57958391 -1.22273597
  C -2.49660446  0.35170848 -1.00710478
  O -2.40550231  1.37330169 -1.63057968
  C -1.59369444 -0.06202707  0.14991409
  C -2.43239103  0.08486290  1.43543362
  C -2.77103111  1.50694057  1.77714649
  O -2.75788281 -0.85985434  2.09992915
  C -0.41351083  0.76821048  0.24990113
  C  0.77150867  0.93759555  0.34177255
  C  2.21172645  0.79533812  0.19002837
  O  2.67995248  1.92463088 -0.51239909
  C  3.89290019  1.86015676 -1.22542881
  O  2.74093881  0.68204986  1.49373262
  C  4.05666913  0.22171540  1.68795087
  C  2.26521881 -0.51189417 -0.64878964
  C  1.59188602 -1.77212845 -0.04908758
  C  0.24258153 -1.82672967  0.69660988
  C -1.07295009 -1.51159431 -0.03613313
  H -5.08512231  0.42270140 -1.95184945
  H -3.82740313  0.05801772 -3.15270593
  H -4.84042438 -1.26469434 -2.48979667
  H -2.14949932  1.81050098  2.61937314
  H -3.80911315  1.56901138  2.09819054
  H -2.58622422  2.18225002  0.94675577
  H  4.75937264  1.70489510 -0.57597097
  H  3.98589088  2.83305297 -1.70611774
  H  3.88173325  1.08685949 -1.99982610
  H  4.28649516 -0.67399619  1.10485543
  H  4.79962080  0.99624543  1.47009827
  H  4.11792036 -0.02711711  2.74723163
  H  1.81577546 -0.26608664 -1.61262600
  H  3.30122988 -0.81640705 -0.81717085
  H  1.53574470 -2.48439976 -0.87713647
  H  2.30042880 -2.18414416  0.67508028
  H  0.16580153 -2.87525728  1.00191952
  H  0.30407916 -1.24481028  1.61592801
  H -1.84836419 -2.16206564  0.37465364
  H -0.97513320 -1.73495011 -1.09905927
