34
opt_min/./Reactant_2078_0_opt.xyz
  C -4.16075300 -2.32683000 -1.33755400
  N -3.45783622 -1.32498722 -0.57943894
  C -2.11912343 -1.19203160 -0.65024837
  O -1.39478179 -1.91236007 -1.33603132
  C -1.57218555 -0.06657152  0.11083231
  O -0.23394698  0.15701513  0.05096699
  C  0.65515279 -0.80081841  0.05968384
  C  0.36147661 -2.13475409  0.64096458
  C  1.97292519 -0.42537618 -0.39265995
  C  3.04298348 -1.33272169 -0.38558078
  C  4.28882407 -0.95154577 -0.83899291
  C  4.50642839  0.33520410 -1.30947422
  C  3.45607754  1.23976357 -1.33606276
  C  2.20512165  0.86628738 -0.89260715
  C -2.37201243  1.01767712  0.64365396
  O -3.60265598  0.99288790  0.70881367
  N -1.66488587  2.07222038  1.13279936
  C -2.31135259  3.20563569  1.74513007
  H -4.96118667 -2.75203493 -0.73380725
  H -3.44787729 -3.10043991 -1.62163462
  H -4.59365821 -1.90746396 -2.25212541
  H -3.98458945 -0.59454134 -0.10675882
  H  1.20904423 -2.47859128  1.23017159
  H  0.12194497 -2.87588147 -0.12307561
  H -0.52227263 -2.04594330  1.27757156
  H  2.90082184 -2.34300986 -0.03866969
  H  5.10415745 -1.65976022 -0.83140347
  H  5.48409499  0.62640805 -1.66243859
  H  3.60889832  2.24048113 -1.71254309
  H  1.38873245  1.57097357 -0.93729190
  H -0.66226219  2.07789049  1.05561579
  H -2.32026117  3.11195589  2.83489926
  H -1.79658672  4.12297923  1.46466980
  H -3.34111319  3.23577011  1.39079480
