30
opt_min/./Reactant_3131_1_opt.xyz
  C -4.51406647  2.17883488 -1.11519961
  N -3.72169916  1.06886722 -0.65602829
  C -2.37768155  1.09048880 -0.68029299
  O -1.70555238  2.01441269 -1.11823669
  C -1.74208772 -0.11594203 -0.09430577
  N -0.44205824 -0.06629895 -0.02473944
  C  0.66433272  0.32774714 -0.08062061
  C  2.00910280  0.68032265 -0.05182919
  C  2.70887957  0.75627713  1.16253845
  C  4.03583592  1.13251859  1.16544486
  C  4.68025706  1.43946846 -0.02409554
  C  3.99433280  1.36991712 -1.22875827
  C  2.66738259  0.99117704 -1.25280003
  C -2.45172972 -1.29582977  0.36248217
  O -3.67839142 -1.38247739  0.40255669
  N -1.65825335 -2.34191156  0.72696247
  C -2.19662726 -3.60083896  1.17263406
  H -3.83757043  2.90028877 -1.57093657
  H -5.03818595  2.65706999 -0.28371927
  H -5.24992864  1.83950287 -1.84533317
  H -4.16481333  0.23225647 -0.28428476
  H  2.20042562  0.52363873  2.08608466
  H  4.57081379  1.20065245  2.10136838
  H  5.71834745  1.73576084 -0.00945160
  H  4.50448744  1.60391550 -2.14981868
  H  2.12861655  0.93952556 -2.18520003
  H -0.65771344 -2.23708810  0.68730911
  H -1.86102595 -4.41442079  0.52686037
  H -1.89652340 -3.81679943  2.20166391
  H -3.28017547 -3.51402572  1.12777622
