24
opt_min/./Reactant_1904_1_opt.xyz
  C  3.60610100  0.71727300 -0.84855800
  N  2.36982327  0.08564011 -0.46243695
  C  1.21291722  0.78717702 -0.33139468
  O  1.17750070  1.98707548 -0.56165538
  C  0.05848373 -0.01530361  0.07501712
  C -1.27782240  0.19896850  0.07707231
  O -2.14135833  1.15937516 -0.19541378
  C -1.70326240  2.49025646 -0.44119746
  C -1.89973875 -1.14922468  0.51190187
  C -1.65720831 -2.09185965 -0.66442179
  C -0.35351496 -2.31892162 -0.64453354
  C  0.16184560 -1.49444687  0.53515742
  O -0.92825031 -1.58772564  1.43652616
  H  4.35436143  0.62409312 -0.05822419
  H  3.39202430  1.77080728 -1.01867992
  H  3.99694902  0.27161218 -1.76524333
  H  2.38372683 -0.90725146 -0.30891905
  H -2.52741536  2.98058421 -0.95535931
  H -0.79631168  2.51749388 -1.03991851
  H -1.50794189  2.99433004  0.50838431
  H -2.89842593 -1.09502619  0.93230001
  H -2.42087740 -2.42913431 -1.33394949
  H  0.26878658 -2.90162373 -1.29243192
  H  1.08176015 -1.80828346  1.01944096
