34
opt_min/./Reactant_1865_1_opt.xyz
  C  3.83428049  0.26262949  0.14811100
  C  2.49666757  0.77539221  0.60704350
  O  2.35315596  1.86917859  1.07774451
  C  1.28258427 -0.16940650  0.42118304
  C  1.48994723 -1.41047123  1.28672611
  F  2.38394313 -2.27527291  0.76852777
  F  1.94005132 -1.10249959  2.51017972
  F  0.37109041 -2.12555882  1.46504315
  C  0.04597129  0.49437342  0.79243294
  C -1.05737487  0.96219698  0.73496241
  C -2.37194472  1.13332957  0.14060711
  C -3.47171527  0.60135533  1.06106051
  C -2.61507370  2.59839065 -0.22078918
  C -2.24042486  0.26922331 -1.15108005
  C -1.58846440 -1.11148076 -0.92016753
  C -0.16127975 -1.36697217 -1.44974592
  C  1.06172770 -0.49630762 -1.07696469
  H  3.80740565 -0.75134798 -0.23294706
  H  4.21982968  0.93391115 -0.61804795
  H  4.52349990  0.31376103  0.99083270
  H -3.63698614  1.28924165  1.88687965
  H -3.19380457 -0.36598067  1.47255480
  H -4.40412232  0.48778290  0.51120770
  H -2.81368636  3.18364777  0.67367911
  H -1.74284851  3.01493507 -0.71976644
  H -3.47224655  2.68297195 -0.88750433
  H -1.67478798  0.83232590 -1.89361495
  H -3.24146376  0.11726631 -1.55870893
  H -1.62320830 -1.35883868  0.13816340
  H -2.20490632 -1.86108228 -1.42514412
  H -0.19817979 -1.34244232 -2.54184327
  H  0.06734011 -2.39471853 -1.15383077
  H  0.98695251  0.46509740 -1.59038388
  H  1.93048420 -1.02630272 -1.47589623
