31
opt_min/./Reactant_5389_1_opt.xyz
  C  0.03920900  3.85584400 -0.54412000
  N  0.29012241  2.46777757 -0.25078719
  C -0.66940593  1.51947148 -0.48785224
  O -1.75284544  1.86693804 -0.96681610
  C -0.28879962  0.15447531 -0.23095012
  N -1.09216044 -0.92665254 -0.47915675
  C -2.37895326 -1.19452046 -0.50964166
  C -2.74239923 -2.61532875 -0.82106681
  C -3.46266065 -0.24200176 -0.17045553
  C  1.10370174 -0.21769889  0.05665769
  C  1.78613567 -1.14055318 -0.74437279
  C  3.08701242 -1.50627844 -0.45884089
  C  3.74169908 -0.96587866  0.63579079
  C  3.07797029 -0.06076994  1.44790250
  C  1.77516779  0.30451148  1.16826047
  H -0.64135453  3.91981084 -1.39380067
  H  0.97494379  4.35712993 -0.78284085
  H -0.43320767  4.36009538  0.30525192
  H  1.21318729  2.19435126  0.03250365
  H -0.51978604 -1.76524470 -0.57748703
  H -2.64884815 -2.81989515 -1.88955332
  H -2.09496770 -3.31651068 -0.29152498
  H -3.77000564 -2.81475208 -0.53398136
  H -4.36670708 -0.48156185 -0.72529477
  H -3.69090275 -0.30574961  0.89543358
  H -3.16006483  0.77963934 -0.39565220
  H  1.30392336 -1.54479277 -1.62526529
  H  3.59762072 -2.21065326 -1.09969202
  H  4.75938093 -1.25110013  0.85626765
  H  3.57578709  0.35287512  2.31283167
  H  1.24980481  0.97513657  1.83336117
