27
opt_min/./Reactant_4114_1_opt.xyz
  C -2.31915700 -1.18638500 -0.72485600
  C -2.47132219  0.17233679 -0.05720314
  O -3.58600895  0.56187293  0.25055762
  C -1.29233939  1.00272189  0.07054727
  O -0.02812128  0.57977675  0.00471871
  C  0.48760420 -0.57656694  0.18954266
  C  1.90467859 -0.74520101  0.07741065
  C  2.47711592 -2.00864089  0.27848627
  C  3.84175101 -2.17929382  0.17925811
  C  4.65908603 -1.09861688 -0.12055800
  C  4.10513162  0.15823887 -0.32018267
  C  2.74268477  0.33983307 -0.22531248
  C -1.31963943  2.47616977  0.18108964
  C -2.65839149  3.15484910  0.21115368
  O -0.27426559  3.09535375  0.25067826
  H -2.24707335 -1.97134955  0.02754526
  H -3.23220935 -1.36396492 -1.29197975
  H -1.46353914 -1.23610167 -1.39514706
  H -0.12173744 -1.43441725  0.44993563
  H  1.83733478 -2.84791686  0.51238954
  H  4.27564906 -3.15561162  0.33561918
  H  5.72736325 -1.23665648 -0.19711407
  H  4.74367733  0.99760397 -0.54998171
  H  2.30221882  1.31481809 -0.37108550
  H -3.24314061  2.79002915  1.05228845
  H -2.50569932  4.22822946  0.29184753
  H -3.21804464  2.91950915 -0.69162002
