36
opt_min/./Reactant_3033_1_opt.xyz
  C -3.11893591  0.59610059 -0.46165863
  C -2.15531069  1.37810062  0.44928996
  C -2.43907661  2.89179653  0.40887170
  C -0.79127888  1.06046301  0.08225550
  C  0.29609084  0.55391929  0.08143915
  C  1.37281625 -0.31549966  0.47499664
 Cl  2.50302080  0.64215269  1.55920306
  C  2.20583769 -0.82501241 -0.66817500
  C  2.66381950  0.11404719 -1.59114156
  C  3.44036169 -0.26978140 -2.66630934
  C  3.77163713 -1.60386485 -2.83977162
  C  3.32096015 -2.54203715 -1.92883484
  C  2.54418001 -2.15852412 -0.84869194
  C  0.69609350 -1.38806959  1.34552582
  C -0.25331641 -0.90746940  2.46139134
  C -1.74579807 -0.59584358  2.18358010
  C -2.22607254  0.84338586  1.90667425
  H -2.64314008 -0.30586428 -0.83862624
  H -4.01296188  0.30757785  0.08694701
  H -3.41913230  1.19825137 -1.31482269
  H -1.63249316  3.41855788 -0.09426902
  H -3.36514525  3.10499219 -0.11792381
  H -2.52758525  3.29903851  1.41322901
  H  2.40436487  1.15422408 -1.45421887
  H  3.78806511  0.47190364 -3.37040974
  H  4.37860642 -1.90969883 -3.67912813
  H  3.57587736 -3.58398102 -2.05517414
  H  2.21225022 -2.91043279 -0.14941236
  H  0.14683184 -2.06290966  0.68295837
  H  1.49677531 -1.95496587  1.82885316
  H  0.19897374 -0.08381214  3.01304737
  H -0.28464699 -1.76303361  3.14303453
  H -2.24091564 -0.84313529  3.12826523
  H -2.13673727 -1.28751081  1.43772611
  H -3.27683113  0.90162619  2.20482242
  H -1.66116765  1.51671987  2.55612909
