37
opt_min/./Reactant_2786_0_opt.xyz
  C  2.40772600 -0.11997600 -3.45322300
  C  2.71162601 -1.21206596 -2.44526528
  O  3.58043914 -2.03956514 -2.62865578
  C  1.85289032 -1.20550002 -1.26496718
  O  1.04257124 -0.14915209 -1.15769387
  C -0.05179570 -0.03322755 -0.46118144
  C -0.63692455  1.29062205 -0.44441957
  C -1.99400667  1.48301895 -0.15210071
  C -2.53802108  2.75105605 -0.15933209
  C -1.74998171  3.85135620 -0.46392798
  C -0.40904526  3.67392591 -0.76618206
  C  0.14497833  2.41100541 -0.75667135
  C -0.70453745 -1.15603357  0.21466185
  C -1.19356963 -1.01814368  1.51646373
  C -1.83780967 -2.07346654  2.13470372
  C -2.01165102 -3.27262918  1.46337988
  C -1.53824163 -3.41454009  0.16817897
  C -0.88476223 -2.36964347 -0.45371095
  C  2.06768118 -2.20521042 -0.21525228
  C  2.07703922 -1.67367137  1.20817476
  O  2.33218439 -3.36241323 -0.45627067
  H  1.38041292 -0.20026147 -3.80306342
  H  3.08611412 -0.22065956 -4.29562131
  H  2.53418324  0.85858655 -2.99523605
  H -2.62162852  0.62988348  0.05573253
  H -3.58547287  2.88313335  0.06621486
  H -2.18390059  4.83968378 -0.46686538
  H  0.20590479  4.52901067 -1.00458719
  H  1.19446722  2.28044886 -0.97318329
  H -1.03889352 -0.08861355  2.04449299
  H -2.20193727 -1.95860002  3.14495602
  H -2.51389917 -4.09538657  1.94916070
  H -1.67670697 -4.34497492 -0.36048949
  H -0.52848880 -2.49071599 -1.46546139
  H  1.14449045 -1.92016679  1.71496913
  H  2.22720132 -0.59675177  1.24611138
  H  2.88302654 -2.17010571  1.74376290
