47
opt_min/./Reactant_3153_0_opt.xyz
  C  5.51420267 -0.29774894 -0.53859758
  O  4.29005390  0.34160058 -0.19747610
  C  3.40760858 -0.40288513  0.46836594
  O  3.57260414 -1.55054521  0.76964443
  C  2.15817642  0.41849499  0.82066219
  C  2.41010995  0.98549405  2.12918442
  N  2.59809710  1.38581184  3.18297924
  C  0.94500339 -0.38285699  0.85141814
  C -0.14525609 -0.69120583  0.45358552
  C -1.42637158 -0.54633407 -0.22057804
  C -2.47741203  0.02139494  0.71027451
  C -2.31033089 -0.03155958  2.08738625
  C -3.26930162  0.49479423  2.93553023
  C -4.41126729  1.07972253  2.41820881
  C -4.59078062  1.12916171  1.04607908
  C -3.63292401  0.60359243  0.19829216
  C -1.84634011 -1.85547055 -0.87225521
  C -0.90791707 -2.56146495 -1.61801790
  C -1.24477840 -3.75081272 -2.23658423
  C -2.52651917 -4.25932923 -2.11381275
  C -3.45978951 -3.57508574 -1.35644061
  C -3.12247717 -2.38357628 -0.73649448
  C -1.04560056  0.48735684 -1.33372426
  C -0.71405272  1.92022774 -0.87873385
  C  0.46043921  2.20622408  0.07892649
  C  1.81609551  1.51946923 -0.22274810
  H  5.31958797 -1.20495063 -1.11382838
  H  6.07564751  0.42077058 -1.12977054
  H  6.06448968 -0.56473287  0.36546317
  H -1.42263505 -0.48961070  2.49854401
  H -3.12096352  0.44665190  4.00419590
  H -5.15928305  1.49236236  3.07870215
  H -5.48229994  1.57844500  0.63263059
  H -3.79283461  0.64281863 -0.86940921
  H  0.10310183 -2.18851981 -1.70105443
  H -0.50202567 -4.28379693 -2.81197143
  H -2.79277255 -5.18756522 -2.59721222
  H -4.45855181 -3.97025692 -1.24103032
  H -3.86253879 -1.87121077 -0.14044497
  H -1.88183406  0.56141420 -2.03258845
  H -0.19914835  0.07872194 -1.88748246
  H -0.53987813  2.48459775 -1.79965587
  H -1.60450559  2.34030319 -0.40462411
  H  0.65831860  3.28002614  0.04519981
  H  0.15703588  1.97108055  1.09939008
  H  1.78631597  1.05156272 -1.20756221
  H  2.61974266  2.25781043 -0.23661017
