17
opt_min/./Reactant_802_1_opt.xyz
  O  4.71291700  0.72396900  0.05001100
  C  3.78924466  0.02636478 -0.00356106
  N  3.23665108 -1.07809027 -0.08905022
  O  1.86750816 -1.15236914 -0.09302378
  C  1.30506062  0.05924546  0.00268444
  C -0.15326726  0.06589930  0.00535277
  C -0.81161705  1.29423978  0.10269455
  C -2.19172236  1.33357924  0.10778966
  C -2.91948236  0.15643539  0.01649193
  C -2.26703788 -1.06414561 -0.08022635
  C -0.88698599 -1.11820178 -0.08647789
  O  2.04182449  1.03281318  0.07814166
  H -0.22500090  2.19673735  0.17264572
  H -2.70315312  2.28071621  0.18284681
  H -3.99840073  0.18994992  0.02069562
  H -2.83890839 -1.97676593 -0.15099834
  H -0.37119431 -2.06163044 -0.16125441
