27
opt_min/./Reactant_3092_1_opt.xyz
  C -3.30291200 -0.06091900 -0.73694900
  N -2.07897457 -0.74658233 -0.39630964
  C -1.80034018 -1.07968189  0.88962268
  O -2.55851851 -0.85065511  1.81321926
  C -0.57626448 -1.88154684  1.10136980
  O  0.58125946 -1.85503084  0.52951360
  C  1.11360791 -1.08186606 -0.38037891
  C  2.47489756 -1.43153489 -0.85710431
  O  3.17987120 -0.64153530 -1.45051899
  N  2.86207832 -2.69267253 -0.54032226
  C  4.17484557 -3.18943705 -0.86619014
  C  0.56799658  0.23829858 -0.79616825
  O  0.51297272  0.66658834 -1.91595107
  O  0.19802199  0.93330135  0.29618785
  C -0.23067368  2.26496097  0.06003738
  H -3.63900261 -0.38164584 -1.71994450
  H -3.16706475  1.02362480 -0.73646485
  H -4.05100931 -0.30958510  0.01536898
  H -1.44810321 -0.97386494 -1.14744598
  H -0.62818436 -2.59574795  1.91192779
  H  2.25348171 -3.28856985 -0.00428057
  H  4.68991380 -2.40284084 -1.41506993
  H  4.10319425 -4.08070739 -1.49204444
  H  4.73779055 -3.42991737  0.03759207
  H -0.47616624  2.67448854  1.03598898
  H  0.56679452  2.83847048 -0.41473042
  H -1.10509842  2.27529627 -0.59329808
