26
opt_min/./Reactant_5658_0_opt.xyz
  C  0.71601900  1.41228200  0.33446500
  O  1.02052066  2.54485558  0.65430508
  C -0.56689780  1.13148725 -0.35591293
  O -1.23225655  2.28027052 -0.59905463
  C -2.61646207  2.29154049 -0.87806554
  C -0.94146118 -0.14047578 -0.69271506
  O -2.09982347 -0.30674581 -1.40030595
  C -2.70964064 -1.57459163 -1.54527675
  C -0.06130131 -1.28096871 -0.37987318
  O -0.34796985 -2.43040553 -0.68135682
  C  1.21615850 -0.99423178  0.31557952
  C  2.06957892 -2.17907126  0.62631707
  C  1.59750133  0.26016302  0.62066685
  C  2.90072877  0.57007400  1.27865564
  H -2.90236447  3.34174568 -0.84703227
  H -2.83276651  1.87975506 -1.86488007
  H -3.18085411  1.73885371 -0.12390323
  H -3.67989733 -1.36172751 -1.99286449
  H -2.13431772 -2.22469857 -2.20697993
  H -2.85007702 -2.07672684 -0.58659532
  H  2.35947380 -2.18085256  1.67408741
  H  1.52777598 -3.09153269  0.39506243
  H  2.97983558 -2.15317522  0.02939385
  H  2.96061219  0.09160103  2.25504150
  H  2.99617005  1.64413094  1.40461572
  H  3.72890429  0.20016147  0.67830323
