16
opt_min/./Reactant_3283_1_opt.xyz
  C -2.49685154  1.15014436  0.67104776
  O -1.18352158  0.65201269  0.44141324
  C -1.04921192 -0.69190272  0.36406225
  O -1.95130198 -1.48309980  0.49500063
  C  0.33448178 -1.07786533  0.10761605
  C  0.68830086 -2.53015651  0.00860565
  N  1.22118136 -0.17317448 -0.04570355
  C  1.99013623  0.71245141 -0.19851650
  C  2.88857478  1.68928247 -0.33941078
  N  3.66853860  2.53498869 -0.47246502
  H -2.58284644  2.08193642  0.11410590
  H -3.24148848  0.42645218  0.32981200
  H -2.63679078  1.33609254  1.74103225
  H  1.66036401 -2.72469138  0.45635868
  H  0.71336880 -2.85257990 -1.03314981
  H -0.07722815 -3.10408895  0.52327473
