26
opt_min/./Reactant_5427_0_opt.xyz
  C -4.31626918  0.83090054 -0.31261199
  O -2.92899170  1.05687814 -0.10611301
  C -2.11758054 -0.03191061 -0.17959149
  O -2.52321395 -1.14997483 -0.38038339
  C -0.71654619  0.33022524  0.03927421
  N -0.45163215  1.61097734  0.26438438
  C  0.68780589  2.23190039  0.62337553
  C  1.88795133  1.58607970  0.93940904
  N  2.89761715  1.13273716  1.25117271
  C  0.67723813  3.62712203  0.74571269
  N  0.66701023  4.77370373  0.82930879
  C  0.31552071 -0.70385556 -0.03823188
  C  1.44114456 -0.50932535 -0.84145421
  C  2.39840448 -1.49905534 -0.94376289
  C  2.24843496 -2.68701357 -0.24724947
  C  1.12844126 -2.89177583  0.54158688
  C  0.16159488 -1.90991019  0.64418327
  H -4.84888039  1.56856546  0.28297953
  H -4.58103813 -0.18088522  0.00004566
  H -4.55664245  0.95435435 -1.36980923
  H -1.26233077  2.22675566  0.18235588
  H  1.55190372  0.40472848 -1.40730644
  H  3.26379572 -1.34188004 -1.56893203
  H  3.00312812 -3.45530432 -0.32270633
  H  1.00831295 -3.81876600  1.08105998
  H -0.71046606 -2.06465439  1.25856390
