36
opt_min/./Reactant_2839_0_opt.xyz
  C -4.89513400  1.20990600 -0.20827700
  N -3.64879967  0.50870601 -0.05100835
  C -2.69810308  0.92963617  0.79677194
  O -2.85781821  1.90013735  1.52953730
  C -1.42845113  0.14409835  0.74008545
  C -1.36508844 -1.13545514 -0.01770424
  O -2.19520724 -1.55876039 -0.79132904
  O -0.36423766 -1.91033129  0.43925180
  C -0.22858402 -3.17091647 -0.19823259
  N -0.30786137  0.59411928  1.30570999
  C -0.35684731  1.54719878  2.39375748
  C  0.91455017  0.32163402  0.76268066
  C  2.09899614  0.15043486  1.55034396
  C  1.91560842 -0.37839401  2.96151327
  O  3.24158601  0.30014360  1.11036135
  C  0.94651971  0.27481858 -0.71921382
  O -0.09400455  0.17922114 -1.37555876
  N  2.15629125  0.41252978 -1.26776174
  C  2.36104989  0.45002900 -2.69115324
  H -4.95622349  1.97365234  0.56640624
  H -4.94883255  1.68578428 -1.18955114
  H -5.72919404  0.51444085 -0.10607005
  H -3.45204977 -0.28998958 -0.64674629
  H  0.58595952 -3.67892037  0.31243929
  H -1.15464378 -3.74339058 -0.11516424
  H  0.00550771 -3.03162018 -1.25553934
  H -0.80357994  1.08701081  3.27652661
  H -0.99966806  2.38520349  2.11553138
  H  0.64524572  1.90507824  2.61307968
  H  2.64996460 -1.16752159  3.11196049
  H  0.91842813 -0.77397615  3.12364279
  H  2.13105194  0.39986690  3.69198532
  H  2.94801680  0.43058921 -0.62259367
  H  3.01104825  1.28659188 -2.94841886
  H  1.39352290  0.57202474 -3.17691460
  H  2.81996632 -0.47789932 -3.04337399
