14
opt_min/./Reactant_3353_1_opt.xyz
  C  3.06320600 -0.01787600  0.12255900
  N  1.87117009  0.24597778  0.84640050
  N  0.80122757  0.11732777  0.22729568
  N -0.36608833  0.27778023  0.72883500
  C -1.36603558  0.07433688 -0.20933725
  C -2.73673730  0.24471091  0.36229689
  O -1.12205800 -0.25230399 -1.35843379
  H  3.74523984  0.81960230  0.27362218
  H  3.53600162 -0.91277841  0.53679701
  H  2.88258533 -0.17282155 -0.95297970
  H  0.80018874 -0.15063972 -0.80567996
  H -3.48267576  0.19684531 -0.42753509
  H -2.79026403  1.19546535  0.88755057
  H -2.91345190 -0.54855424  1.08737383
