24
opt_min/./Reactant_2664_1_opt.xyz
  C  3.65402500 -0.06746500 -0.98604000
  C  2.63729052  0.25987080  0.09574028
  O  3.01065483  0.68971351  1.18098881
  C  1.28937146 -0.00081088 -0.32340824
  N  0.15206365  0.14665887  0.36679933
  C  0.24506140  0.50894696  1.76559120
  C -1.05624992 -0.04640272 -0.19269092
  C -1.12065826 -0.24791553 -1.67862551
  C -2.27123448 -0.09970043  0.59545130
  C -3.53428590 -0.52278122 -0.13298661
  O -2.33511015  0.14979251  1.79272704
  H  4.64178691  0.23580645 -0.64985564
  H  3.41370197  0.44394878 -1.91507985
  H  3.65772987 -1.14033898 -1.17298896
  H  1.20150940 -0.38130458 -1.32485272
  H -0.20240514 -0.26734207  2.38497996
  H -0.31570719  1.42671098  1.94518382
  H  1.28785050  0.65680767  2.03370237
  H -0.78023884 -1.24459625 -1.96772239
  H -0.49104918  0.48740246 -2.18107977
  H -2.13192585 -0.11802203 -2.04657331
  H -3.38307838 -1.43566408 -0.70266615
  H -4.30551806 -0.68832653  0.61594319
  H -3.87275687  0.26578268 -0.80274091
