33
opt_min/./Reactant_2506_1_opt.xyz
  C -0.67408300  3.67255600 -1.63522600
  N -0.72858662  2.58704726 -0.68814585
  C -1.40106292  1.44522485 -0.94776624
  O -2.07566480  1.25644261 -1.93377261
  C -1.35692851  0.43603279  0.16012746
  N -0.29943170  0.07412877  0.85571652
  C  1.01524081  0.38513335  0.69864151
  C  1.92818709  0.18755234  1.80784573
  C  1.28608173 -0.19989736  3.13655950
  O  3.13096709  0.32939405  1.72091413
  C  1.48988985  0.68243464 -0.65691989
  O  0.87379721  0.35447247 -1.65150352
  O  2.66278868  1.31241838 -0.68043314
  C  3.24547454  1.50688339 -1.95890374
  C -2.67512848 -0.20268672  0.50287844
  O -3.61280360  0.43174390  0.92906018
  N -2.66478975 -1.54923475  0.35189769
  C -3.87232982 -2.32701897  0.52576051
  H -1.22926499  3.36102850 -2.51837313
  H -1.13062352  4.57132012 -1.21666620
  H  0.35967347  3.88874014 -1.91093411
  H -0.19091528  2.68201338  0.15865400
  H -0.49785958 -0.53633729  1.65048588
  H  2.06400987 -0.20993934  3.89509124
  H  0.51640486  0.51096801  3.43129577
  H  0.85521225 -1.19985056  3.08097768
  H  2.47750896  1.76507715 -2.69200806
  H  3.96666031  2.31324664 -1.84747870
  H  3.75122149  0.59500918 -2.28256488
  H -1.93436299 -1.95607417 -0.21377371
  H -3.77250366 -2.99022349  1.38760096
  H -4.07936861 -2.92026571 -0.36289734
  H -4.69446104 -1.63497066  0.70443208
