15
opt_min/./Reactant_3259_1_opt.xyz
  C  1.73685475  1.36249109 -0.87861286
  C  0.98757512  0.29308304 -0.16730090
  N -0.20327804  0.52285878  0.33506958
  C -1.03927393 -0.28540410  1.01436361
  C -0.69635649 -1.72695322  1.23436430
  C -2.23523251  0.23913192  1.46643577
  N -3.24481379  0.68592859  1.81059289
  H  2.77345264  1.39846729 -0.54669034
  H  1.28498496  2.33743947 -0.70227208
  H  1.75031297  1.18553654 -1.95771522
  H  1.41753892 -0.68890356 -0.08239849
  H -0.55729938  1.47294545  0.22891966
  H -0.43922642 -2.21255980  0.29038200
  H -1.54081874 -2.24973601  1.67255705
  H  0.15935609 -1.81815427  1.90971695
