21
opt_min/./Reactant_1769_0_opt.xyz
  C  4.24078000 -0.33750200  0.13586400
  O  2.92161823  0.03675546  0.50604108
  C  1.94013764 -0.52310695 -0.21217395
  O  2.11625614 -1.26135815 -1.15530649
  N  0.73811953 -0.22976693  0.37187762
  N -0.36642558 -0.03676634 -0.25294287
  C -0.41815796  0.14393135 -1.69374824
  C -1.48093401  0.03385611  0.45131753
  C -2.79871942  0.30673004 -0.07068281
  C -3.88009309  0.31212216  0.98688334
  O -3.05585844  0.49992752 -1.24795953
  H  4.89252662  0.03204665  0.92346472
  H  4.50942664  0.11124867 -0.82393754
  H  4.31683057 -1.42338646  0.04814170
  H  0.58455696  0.08868980 -2.11084017
  H -1.04184212 -0.63286132 -2.13509657
  H -0.88021642  1.10326042 -1.92825543
  H -1.35797554 -0.12653498  1.51100205
  H -4.72724141  0.89562398  0.63576022
  H -3.51708589  0.70721577  1.93041481
  H -4.21639777 -0.71190084  1.14546179
