34
opt_min/./Reactant_5805_1_opt.xyz
  C -1.65786500  3.49809800 -0.71228700
  N -1.31972661  2.17454800 -0.24893001
  C -0.42741046  1.39227634 -0.89516050
  O  0.19159894  1.73941028 -1.88248821
  C -0.24684171  0.02690600 -0.31637253
  O  0.91300173 -0.57636079 -0.35364587
  C  2.10307123 -0.06527100 -0.57648508
  C  2.45084147  1.37176799 -0.46906746
  C  1.89033010  2.06143460  0.76786834
  O  3.24183301  1.91561912 -1.19317971
  C  3.17302797 -1.03702250 -0.82748956
  C  2.69604130 -2.43682310 -1.14589390
  O  4.34615722 -0.73191095 -0.81421699
  C -1.36171331 -0.78922218  0.11787347
  C -2.68163681 -0.50499232 -0.25706080
  C -3.72036040 -1.30122075  0.18061159
  C -3.47537603 -2.39621152  0.99550847
  C -2.17291005 -2.69709359  1.36260287
  C -1.12812530 -1.90516597  0.93389197
  H -2.71617039  3.55801551 -0.97296974
  H -1.05248746  3.69769325 -1.59560209
  H -1.43771438  4.24397254  0.05337937
  H -1.79682519  1.82113456  0.56530683
  H  1.22326107  1.42735739  1.34725926
  H  2.74604657  2.33732571  1.38294438
  H  1.38304516  2.98041873  0.48417097
  H  2.15649592 -2.42584843 -2.09133634
  H  2.02077193 -2.79861761 -0.37393129
  H  3.55392692 -3.09759070 -1.22936541
  H -2.88436017  0.32122216 -0.92118189
  H -4.73080134 -1.07065151 -0.12271628
  H -4.29338340 -3.01196207  1.33631985
  H -1.97308534 -3.55167740  1.99181346
  H -0.11705538 -2.13552422  1.23493620
