24
opt_min/./Reactant_2058_0_opt.xyz
  C  3.93364502  1.57167810 -0.49580380
  C  3.77796854  0.09479440 -0.83007301
  O  4.70460966 -0.62278651 -1.19195978
  C  2.48412769 -0.35599234 -0.67425324
  N  1.38010317 -0.76299855 -0.49590185
  C  0.21044455 -1.21308237 -0.24996825
  C -0.04465274 -2.67310680 -0.48658634
  C -0.81888324 -0.28103987  0.19028300
  C -1.85847219 -0.68343850  1.03294514
  C -2.81589005  0.22246620  1.44667649
  C -2.75820722  1.54415498  1.03398605
  C -1.72748002  1.95725325  0.20556263
  C -0.76715881  1.05782587 -0.21092215
  H  4.55917565  2.03771167 -1.25297184
  H  2.97534420  2.07963177 -0.43552046
  H  4.44129106  1.65825435  0.46319381
  H -0.08057810 -2.87424000 -1.55773380
  H  0.75141906 -3.28156709 -0.06113403
  H -0.99085690 -2.97001512 -0.04801177
  H -1.90800074 -1.70245245  1.38284973
  H -3.61065130 -0.10130853  2.10131154
  H -3.50990050  2.24691485  1.35801228
  H -1.67375373  2.98504423 -0.12343854
  H  0.02846139  1.38370581 -0.86543128
