17
opt_min/./Reactant_4362_1_opt.xyz
  C -4.14004772 -0.42136186 -0.50419619
  N -2.76715175 -0.04268365 -0.27697232
  C -1.75495639 -0.93919641 -0.37013898
  O -1.89111336 -2.11505862 -0.62948498
  C -0.46402013 -0.35612111 -0.11289607
  N  0.66104595 -0.11150513  0.08668870
  N  1.72226171  0.41675957  0.38411238
  C  2.95050553 -0.18951913  0.20205542
  C  4.05247755  0.68370087  0.74526145
  O  3.10586611 -1.26690622 -0.31845348
  H -4.76394863 -0.11779122  0.33660912
  H -4.16299289 -1.50506312 -0.61283250
  H -4.52586518  0.04113659 -1.41656443
  H -2.56467883  0.91828263 -0.04828305
  H  4.26845212  0.38607071  1.76962580
  H  4.95188384  0.53527131  0.15012857
  H  3.76192265  1.72949670  0.73872652
