22
opt_min/./Reactant_1514_0_opt.xyz
  C -0.40508896  3.10254700  0.59142900
  O -0.18123818  1.73558453  0.28061061
  C  0.14566084  1.47871078 -0.98627388
  O  0.25212305  2.32316810 -1.84067949
  C  0.35184579  0.03475203 -1.25549684
  C  0.65423192 -0.29440989 -2.58827277
  N  0.90002575 -0.56302545 -3.67689010
  N  0.26058155 -0.92474667 -0.34307647
  C  0.41477635 -2.31102337 -0.78133276
  N  0.15093734 -0.65901498  0.90187297
  C -0.43557561 -1.43355778  1.85677034
  C -0.01092020 -1.01963320  3.23646757
  O -1.27966020 -2.27870471  1.62097829
  H  0.49834473  3.68637342  0.40188520
  H -0.66692244  3.13130720  1.64617744
  H -1.21592564  3.50272096 -0.02038880
  H  0.12630578 -2.42059428 -1.82476813
  H -0.21999296 -2.93522046 -0.15094126
  H  1.45602905 -2.61661279 -0.66302582
  H -0.71895253 -0.28016457  3.60747111
  H -0.03492604 -1.88163452  3.89949350
  H  0.97813370 -0.57401462  3.21094471
