29
opt_min/./Reactant_2611_0_opt.xyz
  C -2.75025779  1.20971027  2.46211396
  N -1.80616835  0.57466553  1.57479750
  C -1.85861402 -0.73182561  1.28328225
  O -2.64122240 -1.53025528  1.73881363
  C -0.72702293 -1.13787776  0.28205929
  C -1.05197499 -2.42674594 -0.34517736
  N -1.23919438 -3.40112212 -0.91031195
  N -0.48111566 -0.08292324 -0.70020793
  C -1.24479995 -0.11329585 -1.92747472
  C  0.92750049  0.12040200 -0.70333932
  C  1.46203365 -0.56794094  0.33198879
  C  2.81968933 -0.65873462  0.91957059
  O  0.49640665 -1.27573036  1.00009842
  C  1.53660910  1.07208733 -1.63271598
  C  3.04138656  1.02826100 -1.74036784
  O  0.87619688  1.85861364 -2.28118271
  H -2.22248639  1.78600135  3.22251804
  H -3.41790417  1.87136601  1.90676823
  H -3.33676909  0.42621592  2.93887534
  H -1.16517879  1.16135141  1.05947480
  H -0.92280575 -0.91060353 -2.60767642
  H -2.29254840 -0.26655054 -1.67148415
  H -1.12754823  0.84822086 -2.42322340
  H  3.22160874  0.32993602  1.13104493
  H  2.75199503 -1.22449251  1.84569753
  H  3.50316413 -1.17347014  0.24595972
  H  3.48551263  1.45422501 -0.84347337
  H  3.34873896  1.62327145 -2.59672327
  H  3.39430097  0.00761602 -1.85437713
