27
opt_min/./Reactant_5216_1_opt.xyz
  C  3.25344888  1.68070126  0.28626287
  N  2.44871316  0.48397520  0.33754282
  C  1.45242775  0.26881818 -0.54550687
  O  1.24531211  0.95943194 -1.52388974
  C  0.67336006 -1.00164242 -0.34473040
  C  1.46471991 -2.26459364 -0.27652355
  N -0.64032998 -0.96211318 -0.37073740
  C -1.42367143 -2.15729744 -0.62292463
  C -1.31234150  0.21071770 -0.10146408
  C -0.64060979  1.15280415  0.68390515
  N -0.12577882  1.87644090  1.41900634
  C -2.64125115  0.54119099 -0.55185846
  C -3.08738689  1.93896656 -0.18647300
  O -3.38802400 -0.21234743 -1.16831879
  H  3.10457897  2.28016793  1.18534517
  H  4.31014354  1.42394868  0.18581239
  H  2.93335639  2.25304354 -0.58373954
  H  2.46867883 -0.04862310  1.19250975
  H  1.84913829 -2.40436722  0.73833967
  H  0.88308298 -3.14428088 -0.53326024
  H  2.32376095 -2.20182565 -0.94445498
  H -2.41622201 -1.84248424 -0.95438275
  H -1.52037969 -2.74605874  0.29038922
  H -0.96299126 -2.75701201 -1.40568975
  H -3.12525975  2.04887816  0.89707300
  H -2.38869853  2.67799374 -0.57566326
  H -4.07688394  2.11437977 -0.60338861
