17
opt_min/./Reactant_145_1_opt.xyz
  C -3.38928400  0.67380000 -0.24179800
  C -2.22424465  0.60006665  0.67602621
  N -1.03208261  0.40339115  0.22591934
  N  0.07691543  0.29609269  0.90280906
  C  1.13308525  0.06809742  0.04114813
  O  0.99315417 -0.01199350 -1.17774794
  N  2.32183401 -0.01618399  0.67671680
  C  3.52789254 -0.41724946  0.00477144
  H -4.14142069  1.35510454  0.15063011
  H -3.08449970  1.01359071 -1.23065483
  H -3.85851271 -0.30743866 -0.34990360
  H -2.35539894  0.68538705  1.74380300
  H -0.88104332  0.30988681 -0.80629601
  H  2.28934163 -0.02540357  1.68318277
  H  3.38818945 -0.23666219 -1.06054874
  H  3.74069192 -1.48181585  0.15365364
  H  4.36994776  0.17069305  0.37176187
