27
opt_min/./Reactant_836_1_opt.xyz
  C -2.61376100 -0.64309200  0.75322200
  C -1.75283007  0.57536722  0.68506360
  C -2.39985815  1.89742348  0.96467953
  N -0.46927254  0.59748028  0.34904063
  C  0.44325477 -0.28282423 -0.11098388
  C  0.00061967 -1.58707980 -0.70434243
  C  1.82326281  0.09835111 -0.08259023
  C  2.28650300  1.23692687  0.61808778
  C  3.61107452  1.61340728  0.60302250
  C  4.55464216  0.86888168 -0.08649536
  C  4.13857201 -0.27856914 -0.74347355
  C  2.81496227 -0.65663241 -0.74051078
  H -3.37928270 -0.49509554  1.51383245
  H -3.12962181 -0.83446690 -0.19231149
  H -2.03833249 -1.52378725  1.02290430
  H -2.94710625  2.26777557  0.09245345
  H -1.66104676  2.65140167  1.23589356
  H -3.11517382  1.80778159  1.78120526
  H -0.05563695  1.52032410  0.47877724
  H  0.14809640 -2.42606310 -0.01938764
  H -1.04479237 -1.54429142 -0.98861231
  H  0.56912374 -1.80200073 -1.60841317
  H  1.60786991  1.82721122  1.22152413
  H  3.91599722  2.49788173  1.14598819
  H  5.59243832  1.16501382 -0.09548685
  H  4.86279457 -0.88844064 -1.26602872
  H  2.53931996 -1.55851122 -1.26433281
