25
opt_min/./Reactant_2895_1_opt.xyz
  C  4.23040100  1.54524500  0.19890600
  O  3.34973745  0.68994913 -0.51086089
  C  2.20194485  0.37710765  0.11574972
  O  1.88901653  0.77208066  1.21062326
  N  1.52836911 -0.54054629 -0.65646191
  N  0.25748733 -0.68030816 -0.56802568
  C -0.19001758 -1.92525565 -1.20345660
  N -0.51136675  0.11957935  0.01675816
  C -1.88454023  0.10007427 -0.03379856
  C -2.58367565  0.22519684  1.17011693
  C -3.96047915  0.30686900  1.16859651
  C -4.66286108  0.29240012 -0.02618736
  C -3.97462013  0.20387804 -1.22397798
  C -2.59697776  0.10099617 -1.23702457
  H  3.95050889  2.58928085  0.03909306
  H  5.22645720  1.36021217 -0.19612521
  H  4.19187492  1.32910307  1.26833911
  H -1.27068621 -1.93421823 -1.31387828
  H  0.30453601 -2.02389697 -2.16539697
  H  0.12356194 -2.75327051 -0.56907816
  H -2.02103173  0.24211770  2.08921536
  H -4.49269074  0.39042870  2.10402204
  H -5.73954986  0.36357046 -0.02508803
  H -4.51478481  0.21353884 -2.15873032
  H -2.06414704  0.07104816 -2.17755868
