22
opt_min/./Reactant_4845_0_opt.xyz
  C  0.03064840 -2.76794186 -2.87068440
  N  0.11393717 -1.61926173 -1.99759590
  C -0.39696455 -1.66373500 -0.72979144
  O -1.00021551 -2.61173287 -0.28955938
  C -0.21489997 -0.37252966  0.00538472
  N -0.56738390  0.73142972 -0.65871776
  C -0.56092694  2.01992103 -0.35127989
  C -1.01027831  2.95161942 -1.27533996
  N -1.37090532  3.70789417 -2.06642589
  C  0.23711847 -0.43719480  1.38881413
  O  0.57469711 -1.44642880  1.95411480
  O  0.28349636  0.78414370  1.98969929
  C  0.70691005  0.77923020  3.34523934
  H -0.58518111 -2.54172604 -3.74459954
  H  1.02086477 -3.08005046 -3.20259051
  H -0.43445302 -3.57918028 -2.31151059
  H  0.80413474 -0.92073554 -2.22577557
  H -0.94096009  0.52046798 -1.58863046
  H -0.20567395  2.33970727  0.61318121
  H  0.94151191  1.81023512  3.59808471
  H  1.58076241  0.13618451  3.46318507
  H -0.09425267  0.40467715  3.98708119
