30
opt_min/./Reactant_2290_0_opt.xyz
 Br  0.08186352  2.44980449 -1.02738780
  C  0.20301812  0.59607628 -0.15256732
  C  1.65024994  0.21800148 -0.07513361
  C  2.58236411  1.06710415  0.50938540
  C  3.90574126  0.68401852  0.61581277
  C  4.31356543 -0.55111956  0.14004924
  C  3.39104767 -1.40046164 -0.44526311
  C  2.06557967 -1.01955540 -0.55289280
  C -0.65292144 -0.27362741 -0.90495213
  C -1.63770571 -0.89710272 -1.19719067
  C -2.96900473 -1.44360240 -1.14610647
  C -3.69069565 -0.56120362 -0.10211238
  C -2.87518607 -0.33953838  1.18802986
  C -1.97947741  0.92319366  1.22556651
  C -0.45585421  0.70182861  1.23531365
  H  2.27474009  2.03966507  0.86628996
  H  4.62189378  1.35420729  1.06773622
  H  5.34891608 -0.84738917  0.22058908
  H  3.70262293 -2.36318941 -0.82329556
  H  1.34392448 -1.68064912 -1.01212323
  H -2.93304387 -2.48286630 -0.80707307
  H -3.47688983 -1.40773496 -2.11118383
  H -3.90924281  0.40788349 -0.55379022
  H -4.64290729 -1.03275262  0.14945591
  H -2.27062110 -1.22514200  1.39174330
  H -3.59426671 -0.25453814  2.00614236
  H -2.21110538  1.46523578  2.14558236
  H -2.24254736  1.58494240  0.39904471
  H  0.02274613  1.51839334  1.78010830
  H -0.22675236 -0.22763758  1.76545685
