24
opt_min/./Reactant_2853_1_opt.xyz
  C -2.03239800  0.02233499 -1.29576100
  N -2.14610116  0.98828532 -0.25462794
  N -1.42717437  0.96911653  0.80460293
  C -1.97301015  1.85520154  1.83011395
  C -0.33372596  0.27590235  1.14763510
  C  0.07790250  0.30794942  2.48069308
  N  0.45211500  0.32578663  3.57059865
  C  0.58958764 -0.43604411  0.25102025
  C  1.08741865  0.18481943 -0.89641754
  C  2.01207106 -0.46281543 -1.69233585
  C  2.46257860 -1.72797240 -1.35135460
  C  1.98838291 -2.34180865 -0.20459129
  C  1.06183925 -1.70076980  0.59649710
  H -1.13092199 -0.58440381 -1.29630255
  H -2.11460400  0.55439220 -2.24131555
  H -2.89531853 -0.64411593 -1.22042103
  H -1.19158594  2.47912977  2.25926431
  H -2.73540357  2.46819056  1.35543638
  H -2.42883461  1.26657748  2.62548080
  H  0.74600879  1.17664316 -1.15820708
  H  2.38855307  0.02525452 -2.57848540
  H  3.18638046 -2.23032138 -1.97554905
  H  2.34148732 -3.32474870  0.06809856
  H  0.69372988 -2.17671308  1.49303020
