24
opt_min/./Reactant_4603_1_opt.xyz
  C -1.66950976 -0.03220431  4.08066230
  O -0.53738869  0.40265620  3.33974625
  C -0.75783384  0.70892616  2.07142502
  O -1.83160628  0.77150579  1.52867823
  C  0.49762517  1.19547416  1.41426442
  C  1.29200410  2.04722588  2.18613433
  N  1.92411972  2.74021789  2.85140235
  N  0.71709273  1.07020792  0.10906534
  C  1.67412062  1.98119748 -0.50085066
  C  0.12367228  0.12630590 -0.65742281
  C  0.15546369  0.26111686 -2.04862342
  N  0.18353881  0.33983252 -3.19689820
  C -0.33865752 -1.12780910 -0.07755804
  C -0.84448184 -2.15014912 -1.05716353
  O -0.25830086 -1.35422903  1.11824633
  H -2.46579181  0.71305991  4.02854174
  H -2.03691476 -0.97536257  3.67212704
  H -1.32517544 -0.16317787  5.10284312
  H  1.81915524  1.72121582 -1.54741684
  H  1.31078069  3.00613472 -0.42020920
  H  2.62983112  1.91839973  0.02296861
  H -0.91928317 -3.11647814 -0.56419075
  H -1.83534864 -1.85053941 -1.39510529
  H -0.19912027 -2.22812577 -1.92926204
