18
opt_min/./Reactant_3329_1_opt.xyz
  C  3.22158599  0.66303901 -0.86140702
  N  1.84710714  0.46234548 -0.47905033
  C  1.21267656 -0.69195304 -0.71379224
  O  1.70703407 -1.68178951 -1.20947545
  C -0.23735947 -0.68658305 -0.26124483
  N -0.90148927 -1.75979935 -0.43049025
  N -1.44395842 -2.72474580 -0.59987202
  C -0.90865656  0.45465005  0.33943284
  O -0.40227872  1.53829885  0.55518265
  O -2.18859734  0.16738514  0.62984393
  C -2.97515101  1.19172854  1.22906860
  H  3.70672260  1.32134511 -0.14232224
  H  3.72342584 -0.30448973 -0.88191977
  H  3.29560558  1.11262361 -1.85665871
  H  1.31241090  1.22017998 -0.06663143
  H -3.04474060  0.99552555  2.30097483
  H -3.96298280  1.14088660  0.77430270
  H -2.51363446  2.16479576  1.05521296
