35
opt_min/./Reactant_5748_1_opt.xyz
  C  3.17279600  2.50512800  0.04102400
  O  2.28377927  1.40509467  0.06051039
  C  2.83067741  0.16927907 -0.24741447
  O  4.00097200  0.05654976 -0.55149676
  C  1.88711222 -0.88512261 -0.05951692
  C  2.20844129 -2.28779517 -0.06684138
  C  3.63656660 -2.67947226 -0.34204297
  O  1.34172610 -3.14216892  0.11245450
  N  0.55522427 -0.56600083  0.25564153
  C  0.02180499 -1.13153654  1.48293985
  C -0.19097296  0.17666358 -0.50081075
  C  0.27201124  0.66173377 -1.82401291
  C -1.54969866  0.57800230 -0.08594109
  C -1.79966088  1.90099850  0.26352090
  C -3.07686434  2.29733671  0.61923592
  C -4.11647404  1.38200295  0.60981417
  C -3.87630875  0.06724260  0.24637317
  C -2.59879310 -0.33626764 -0.09652899
  H  3.24356235  2.92368672  1.04678375
  H  2.78736376  3.26176067 -0.64502263
  H  4.15899285  2.17215868 -0.29035047
  H  4.30265440 -2.21487462  0.38036628
  H  3.71916544 -3.76233531 -0.28503399
  H  3.94189427 -2.33527005 -1.32628193
  H -0.60176092 -1.99713968  1.26330428
  H  0.84900645 -1.46290156  2.10474171
  H -0.56481826 -0.38366587  2.01613362
  H  1.02843765 -0.01113136 -2.22553739
  H  0.71542473  1.65283111 -1.72998151
  H -0.57297391  0.73466683 -2.50693705
  H -0.98809620  2.61311585  0.27418305
  H -3.25651411  3.32410126  0.89882179
  H -5.11043237  1.70179206  0.88339855
  H -4.68998715 -0.64156855  0.23220535
  H -2.41889318 -1.35956345 -0.39079175
