22
opt_min/./Reactant_1437_0_opt.xyz
  C -1.72187600  2.69816300  0.09624800
  O -0.99587156  1.47712900  0.07487713
  C -1.69949759  0.34995909 -0.05027963
  O -2.89612233  0.29438894 -0.13693195
  C -0.79847291 -0.84500251 -0.04499849
  O  0.48295415 -0.80554223 -0.03052842
  N  1.22866603  0.28391943 -0.03071968
  C  2.59026186 -0.03191920 -0.00743462
  C  3.41224788  1.22319046 -0.06299230
  O  3.02338806 -1.15733796  0.05123296
  C -1.37186925 -2.23380786 -0.05490466
  C -0.33847087 -3.32458464 -0.05344183
  O -2.55692526 -2.43356927 -0.04232632
  H -1.67138909  3.16045298 -0.89103435
  H -2.76438557  2.51102883  0.36036295
  H -1.24253545  3.34052483  0.83210230
  H  3.49806626  1.53499197 -1.10244178
  H  2.91679534  2.01397360  0.49105794
  H  4.40715866  1.03190584  0.32882138
  H  0.17825158 -3.32652465  0.90527271
  H  0.40580078 -3.16978609 -0.82951771
  H -0.83244543 -4.28203146 -0.19256745
