18
opt_min/./Reactant_1090_0_opt.xyz
  C  2.79274000 -0.32532900  0.92693400
  O  1.81533891  0.12865143  0.02448404
  C  0.74134700 -0.73096046 -0.13295821
  C -0.45978751 -0.35266648 -0.57076727
  O -1.38183083 -1.34192562 -0.79859282
  C -2.72639531 -0.93534514 -0.97445227
  O -0.87831081  0.90773676 -0.89296546
  C -0.45943211  1.95146723 -0.03326528
  H  3.60059094  0.40792945  0.89301712
  H  3.17933828 -1.30747207  0.63257126
  H  2.40203342 -0.38545030  1.94868318
  H  0.91830977 -1.77514866  0.07498567
  H -3.27770403 -1.85424235 -1.17283645
  H -3.11795073 -0.45742546 -0.06920723
  H -2.83201521 -0.24653889 -1.81453493
  H -0.86358998  2.86850764 -0.46422088
  H -0.85378014  1.80450119  0.97542331
  H  0.62964338  2.01830042  0.00127654
