22
opt_min/./Reactant_4906_1_opt.xyz
  C -2.43962000  1.77111400  0.77529800
  N -1.96521240  0.49301675  0.33813716
  O -0.66726909  0.51591383  0.16238857
  C  0.08116606 -0.49728232 -0.16164996
  C  1.52732458 -0.17835089 -0.37081000
  O  2.37540246 -1.01998376 -0.54907829
  N  1.80794482  1.14946517 -0.31771985
  C  3.15302372  1.63145514 -0.52512959
  C -0.38755381 -1.89074369 -0.28738903
  O  0.26495933 -2.80934254 -0.70583786
  O -1.65413573 -2.00628305  0.15272533
  C -2.22247655 -3.30550608  0.13850071
  H -1.82623697  2.60521962  0.42453992
  H -2.44214003  1.78200038  1.86934793
  H -3.46519882  1.86334429  0.43273337
  H  1.07367999  1.82295491 -0.18835657
  H  3.29872405  2.55520338  0.02749576
  H  3.84650416  0.87293559 -0.16917864
  H  3.34604785  1.80226200 -1.58594861
  H -1.43540227 -4.05980429  0.09598926
  H -2.87016438 -3.40423738 -0.73332765
  H -2.80590085 -3.40829081  1.05144311
