26
opt_min/./Reactant_1785_1_opt.xyz
  C -2.17137517 -0.41335733 -1.68705369
  C -1.21993988  0.18198500 -0.64517549
  C -1.83768181  1.42729459  0.01386228
  C  0.07335640  0.50599015 -1.18569297
  C  1.26475020  0.58943222 -1.30191264
  C  2.62434716  0.57910123 -0.83402141
  F  3.30667275 -0.52953703 -1.25825475
  F  3.37365858  1.63449908 -1.27668663
  C  2.54128274  0.59857294  0.69860997
  C  1.71067816 -0.50185717  1.38573065
  C  0.16596874 -0.53889663  1.52229967
  C -0.84130873 -0.89008652  0.40757374
  H -2.15721722  0.18777214 -2.59417963
  H -3.18937546 -0.43492008 -1.30153204
  H -1.87873547 -1.42844164 -1.94755553
  H -2.65322361  1.81510159 -0.59291674
  H -1.09842853  2.21901146  0.12212292
  H -2.22869154  1.18458862  0.99996820
  H  2.20080875  1.59132072  0.99844085
  H  3.57039267  0.46957039  1.05179870
  H  2.03203321 -0.42928927  2.43174529
  H  2.05545709 -1.47402295  1.02092566
  H -0.16238390  0.36782201  2.03865958
  H  0.03016174 -1.36387233  2.23349913
  H -0.49068730 -1.78325670 -0.11172630
  H -1.77117232 -1.14472261  0.92867627
