19
opt_min/./Reactant_138_1_opt.xyz
  C  3.26994500 -0.29604200 -0.43832300
  C  2.25244991  0.43156812  0.36699551
  O  1.01654392  0.27468122  0.06674034
  C -0.02892190  0.85080106  0.61431576
  C  0.09868498  1.86383367  1.70620337
  C -1.32487410  0.46032662  0.12662403
  O -2.37687365  0.91680838  0.52947195
  O -1.24270273 -0.48977016 -0.84406432
  C -2.46947111 -0.92625561 -1.40001668
  H  2.83160431 -1.19084837 -0.87348268
  H  4.11797038 -0.57034883  0.18356605
  H  3.64147225  0.32445973 -1.25761646
  H  2.56185305  1.10347677  1.15619331
  H  0.76970331  2.67279123  1.41101966
  H  0.48258130  1.41690699  2.62591511
  H -0.88819159  2.27054455  1.90329951
  H -2.66372236 -0.39428486 -2.33407198
  H -3.28586639 -0.73301547 -0.70076877
  H -2.37604156 -1.99390581 -1.59312343
