16
opt_min/./Reactant_3567_0_opt.xyz
  C -3.41026339  1.30212636  1.02048719
  C -2.50648861  0.40273391  0.33289721
  N -1.51753249 -0.24014262  0.45944218
  C -0.39351527 -0.82484721  0.23982355
  C  0.73338301 -0.05113068 -0.25434931
  O  0.67935771  1.13955869 -0.52190130
  N  1.88223836 -0.78094809 -0.38405148
  C  3.10696232 -0.20138269 -0.86922767
  H -3.24683597  2.29725202  0.60811109
  H -4.44434052  1.02310047  0.81901319
  H -3.24312800  1.32885620  2.09944507
  H -0.30627050 -1.87487881  0.46210422
  H  1.88192467 -1.76115184 -0.15935397
  H  3.46530445 -0.72732840 -1.75721775
  H  3.88601552 -0.22396877 -0.10254211
  H  2.89030740  0.83399956 -1.12823736
