36
opt_min/./Reactant_5603_1_opt.xyz
  C -2.43562400 -2.96211400 -3.19163800
  N -1.52507134 -2.27415561 -2.30483610
  C -1.90981964 -1.14189814 -1.66467549
  O -3.01525484 -0.65922629 -1.83167308
  C -0.92459729 -0.50890347 -0.73900641
  N  0.18563643 -1.13113826 -0.43578158
  C  1.30391035 -0.89568099  0.30242773
  C  2.06445714 -2.12434107  0.44829615
  C  3.34723705 -2.11706670  1.21166622
  O  1.61967948 -3.14361578 -0.09051599
  C  1.80244116  0.41026072  0.68352314
  O  2.64952506  0.61717574  1.52426731
  O  1.25938130  1.39158852 -0.07618540
  C  1.65969047  2.72305699  0.19962853
  C -1.32077630  0.76960457 -0.15037264
  C -1.86328177  1.78796144 -0.93079606
  C -2.27732641  2.96810997 -0.34090934
  C -2.16920350  3.14047222  1.02869584
  C -1.64609826  2.12397371  1.81414585
  C -1.22222787  0.94728809  1.23191825
  H -2.31464677 -2.61697655 -4.22149200
  H -3.45457334 -2.74442422 -2.87415903
  H -2.25215695 -4.03311978 -3.14639136
  H -0.60442617 -2.67107808 -2.21941219
  H  0.27330375 -2.13759822 -0.70830850
  H  3.83817939 -3.08075662  1.10694309
  H  3.99319259 -1.31506702  0.86590478
  H  3.13994940 -1.92384244  2.26181387
  H  0.84342875  3.23914158  0.70924088
  H  1.86543572  3.20727390 -0.75337414
  H  2.54995383  2.72055374  0.83102511
  H -1.94695037  1.65848780 -1.99752222
  H -2.68712848  3.75671403 -0.95417268
  H -2.49307040  4.06340440  1.48625658
  H -1.56958845  2.25220769  2.88376567
  H -0.82410560  0.15090235  1.84497254
