24
opt_min/./Reactant_2721_1_opt.xyz
  N  3.11914333 -0.90793329 -2.71103241
  C  2.55036236 -0.52674248 -1.79819919
  C  1.78908975 -0.02223902 -0.66770273
  C  2.76777888  0.65193464  0.30644306
  F  3.57061836  1.52789175 -0.30912320
  F  2.14601515  1.33124915  1.27997816
  F  3.56362388 -0.23920258  0.91640728
  C  0.76911713  0.92084519 -1.09990122
  C -0.32915995  1.39292965 -1.19402843
  C -1.71872893  1.67191433 -0.95144214
  C -1.99587118  0.94986588  0.38451254
  C -1.52545836 -0.51836059  0.42003310
  C -0.11163644 -0.78927694  0.99358057
  C  0.99852286 -1.18689252  0.00088528
  H -2.32870915  1.24251704 -1.74966704
  H -1.93471448  2.73733137 -0.87652929
  H -3.07082490  0.98603644  0.57016101
  H -1.49887824  1.49894143  1.18594835
  H -2.22749017 -1.04071759  1.07472140
  H -1.61783420 -0.97236279 -0.56709483
  H  0.19434004  0.04832893  1.61758483
  H -0.20178028 -1.65600103  1.65387265
  H  0.54936764 -1.77004737 -0.80681466
  H  1.72476819 -1.82688547  0.50874317
