38
opt_min/./Reactant_1236_1_opt.xyz
  C  4.78619202 -0.00564529 -0.65076682
  N  3.59075381 -0.63097547 -0.13835663
  C  2.49941503  0.08864298  0.21288823
  O  2.46240091  1.29683874  0.12880248
  C  1.32093661 -0.76512220  0.72008265
  C  1.71181707 -1.54912779  1.98194393
  C  0.19595074  0.11303638  0.98094740
  C -0.86217187  0.65456842  0.82524636
  C -2.21185301  0.82907879  0.29207363
  O -3.08401561  1.10379036  1.37003721
  C -4.45940396  1.14022921  1.06555227
  O -2.28237009  1.82742006 -0.69770380
  C -1.81058637  3.08988043 -0.27484040
  C -2.49114096 -0.53144353 -0.38698654
  C -1.54967242 -0.94675263 -1.53872756
  C -0.01001502 -0.86840686 -1.49866593
  C  0.77341587 -1.66223777 -0.42693270
  H  5.66793266 -0.53967109 -0.29834785
  H  4.80912310  1.02328833 -0.29151464
  H  4.78429292  0.00970753 -1.74503154
  H  3.57710070 -1.63566603 -0.07327771
  H  1.15578811 -2.48322233  2.04025211
  H  2.77604506 -1.78072085  2.00418764
  H  1.47877639 -0.95786896  2.86527066
  H -4.94051813  1.62015367  1.91787337
  H -4.64944007  1.72370414  0.15862336
  H -4.86903355  0.13126736  0.93954956
  H -2.37824017  3.45440171  0.58764231
  H -1.94772875  3.76131423 -1.12125064
  H -0.74872205  3.03302703 -0.00830940
  H -2.49044974 -1.28705659  0.40283733
  H -3.48416372 -0.50114419 -0.84315402
  H -1.82726224 -1.97973654 -1.77537148
  H -1.82589580 -0.31808172 -2.39095193
  H  0.29706346 -1.25989341 -2.47476685
  H  0.30418252  0.17399771 -1.47956013
  H  0.14002635 -2.44491285 -0.00607125
  H  1.60407002 -2.16758279 -0.92584654
