27
opt_min/./Reactant_2297_0_opt.xyz
  C -0.76511800  1.05239500 -2.22366200
  N -1.32427255  0.77716743 -1.07142909
  C -2.56598212  1.47985255 -0.78061685
  C -0.78710614 -0.06537065 -0.15442299
  C -1.57669874 -0.77395427  0.81639325
  O -1.13655409 -1.35784680  1.78702175
  O -2.92369285 -0.77703998  0.53733920
  C -3.73931823 -1.49861460  1.44041599
  C  0.65531925 -0.33518386 -0.16525569
  C  1.56836817  0.70999584 -0.32792207
  C  2.92785345  0.47774219 -0.28078589
  C  3.41165961 -0.80485608 -0.07170519
  C  2.51721057 -1.84827038  0.09478556
  C  1.15506790 -1.61850103  0.04855200
  H  0.11921796  0.53025242 -2.53248036
  H -1.17374375  1.82544808 -2.84402673
  H -2.75218979  1.50297760  0.28826665
  H -2.49084604  2.50172250 -1.15163155
  H -3.40348065  0.98449252 -1.27087735
  H -3.78723689 -2.54958812  1.14360188
  H -4.73150902 -1.05340118  1.39683657
  H -3.32994299 -1.43552790  2.45096380
  H  1.20967644  1.72003594 -0.47779169
  H  3.61476726  1.30349910 -0.40060913
  H  4.47610772 -0.98292281 -0.03729064
  H  2.88251722 -2.85125243  0.26072035
  H  0.47037861 -2.44104540  0.18151333
