11
opt_min/./Reactant_1153_1_opt.xyz
  C  2.95919000  0.27055901  0.71782300
  C  1.85175946 -0.12011041  0.47337209
  C  0.53093034 -0.64961866  0.18392834
  O  0.26325894 -1.83014972  0.22758269
  N -0.35152270  0.32728039 -0.14168688
  C -1.73209495  0.02969079 -0.44349860
  H  3.93247896  0.59516554  0.94334599
  H -0.05589495  1.28975894 -0.13398536
  H -2.35362385  0.08662355  0.45423172
  H -2.10946514  0.73177400 -1.18454005
  H -1.78309308 -0.98559194 -0.83465625
