31
opt_min/./Reactant_1701_0_opt.xyz
  C  0.57859031 -2.35290445 -3.69197171
  O -0.21095452 -1.40163393 -2.98409382
  C -0.46481520 -1.63337417 -1.70861297
  O -0.09817952 -2.58394635 -1.07713874
  C -1.29101925 -0.48528219 -1.09259506
  C -2.25214484  0.11227203 -2.12896708
  F -3.03808357 -0.82317407 -2.67733351
  F -1.64015840  0.75415930 -3.12568105
  F -3.07431881  1.01479637 -1.56302089
  C -0.42034606  0.57333958 -0.62154117
  C  0.00374321  1.33733983  0.20136620
  C  0.00222994  2.22733008  1.34831476
  C  0.99487476  1.80995444  2.32459377
  N  1.77626026  1.51870051  3.10405050
  C  0.26453620  3.60319077  0.95368285
  N  0.39828441  4.69440360  0.65232142
  C -1.45723694  2.06856488  1.86070289
  C -1.85740542  0.64178640  2.30170944
  C -1.48157754 -0.65505960  1.54820790
  C -2.07897884 -0.97883525  0.16285932
  H  1.60949884 -2.00010422 -3.73450082
  H  0.54245722 -3.32040517 -3.19028414
  H  0.16560962 -2.41776351 -4.69601749
  H -2.11139281  2.40690081  1.05343671
  H -1.61103738  2.71767771  2.72655362
  H -2.94795958  0.65896454  2.39501501
  H -1.46110820  0.49478695  3.31282220
  H -1.87372885 -1.43924150  2.20378558
  H -0.39961974 -0.78289786  1.52523334
  H -3.10433154 -0.60789037  0.12007263
  H -2.10816875 -2.06743996  0.08520351
