14
opt_min/./Reactant_193_0_opt.xyz
  C  1.59246593  0.00840393 -0.95427285
  C  0.17994012 -0.14725788 -1.38195837
  O -0.86208553 -0.01130088 -0.64054545
  C -0.99020130  0.30425965  0.62864021
  C -2.40900081  0.40797729  1.12109954
  C  0.04155404  0.52852829  1.52903583
  N  0.84901531  0.69759262  2.33808436
  H  1.95927009 -0.88664694 -0.44431206
  H  1.69514104  0.84224420 -0.26013399
  H  2.22061046  0.18394186 -1.82377883
  H -0.05919182 -0.45653915 -2.38802448
  H -3.08489386  0.33438570  0.27233544
  H -2.57298892  1.35995651  1.62545645
  H -2.64376447 -0.39072443  1.82603679
