35
opt_min/./Reactant_2221_0_opt.xyz
  C -1.85318400  2.96870300  1.55807600
  O -1.58825133  1.69761006  0.98527664
  C -0.30609221  1.30617956  0.93963188
  O  0.61015436  1.92485079  1.41942459
  C -0.21494436 -0.03242872  0.32069425
  N  0.93306844 -0.57756831 -0.01397971
  C  2.11378099  0.05762907 -0.26317384
  C  2.04757615  1.36782925 -0.89688476
  C  3.35275999  2.01959772 -1.24608136
  O  0.97233562  1.86187419 -1.19908142
  C  3.31392845 -0.72945074 -0.10214398
  O  4.44997393 -0.41660742 -0.37676758
  O  3.00925043 -1.95192250  0.43872957
  C  4.10550723 -2.81471645  0.68698591
  C -1.44957247 -0.82230251  0.16165721
  C -2.11583351 -1.33815718  1.26944281
  C -3.27241537 -2.07673988  1.09904333
  C -3.77368045 -2.30141771 -0.17261890
  C -3.11431405 -1.78871219 -1.27677558
  C -1.95300085 -1.05416980 -1.11415508
  H -0.93371370  3.55478269  1.60739565
  H -2.25736726  2.83307102  2.56343652
  H -2.58837696  3.46222768  0.92449288
  H  0.91442135 -1.57999339 -0.21333374
  H  3.91144411  2.20560446 -0.33182166
  H  3.15655425  2.95509868 -1.76376195
  H  3.95660173  1.36209548 -1.86608640
  H  4.52017570 -2.61378343  1.67759634
  H  3.72163250 -3.83220378  0.64133067
  H  4.88433159 -2.66013937 -0.06285362
  H -1.72146712 -1.15850660  2.25821314
  H -3.78509064 -2.47808313  1.96040707
  H -4.67974694 -2.87446692 -0.30213724
  H -3.50590327 -1.95909241 -2.26821265
  H -1.43801883 -0.64280554 -1.96905261
