34
opt_min/./Reactant_972_1_opt.xyz
  C  2.05640600  1.42116800  1.37051500
  C  2.29851287  0.10360366  0.72148468
  C  3.69065291 -0.44440561  0.67796146
  N  1.33499491 -0.65335940  0.22086596
  C  0.01894007 -0.44112404 -0.03685738
  C -0.79877637 -1.61086041 -0.21954997
  C -0.43066048 -2.85828353  0.32043125
  C -1.19279462 -3.98705857  0.09944970
  C -2.35563347 -3.91826578 -0.64764649
  C -2.74879103 -2.69454435 -1.17153156
  C -1.98839181 -1.56618072 -0.96765999
  C -0.48765912  0.89880468 -0.28029026
  C  0.24629069  1.82310365 -1.03380071
  C -0.25404436  3.08019453 -1.30268955
  C -1.50148786  3.45524616 -0.82941469
  C -2.24348331  2.55071550 -0.08534574
  C -1.74701433  1.29271237  0.18757490
  H  2.57455136  1.44889754  2.33123730
  H  2.44418020  2.24389374  0.76603523
  H  0.99862428  1.58716669  1.54259040
  H  4.04645502 -0.54732850 -0.34975158
  H  4.37286890  0.21636966  1.20367055
  H  3.74089698 -1.43249453  1.14325916
  H  1.63095141 -1.60362834 -0.00374725
  H  0.43352498 -2.93789592  0.96761108
  H -0.88213865 -4.93094545  0.52633017
  H -2.95250093 -4.80296487 -0.81188872
  H -3.65674513 -2.62915702 -1.75441993
  H -2.28943621 -0.62916319 -1.41189243
  H  1.21012122  1.53565623 -1.43060269
  H  0.33117862  3.77221348 -1.89195046
  H -1.89335795  4.43893651 -1.04006033
  H -3.21735445  2.83316877  0.28912668
  H -2.32761243  0.60058594  0.78017496
