26
opt_min/./Reactant_1662_1_opt.xyz
  C  3.25318600  1.91061000 -0.05941400
  N  2.34715112  0.82918002 -0.35720651
  C  1.02041839  0.91784248 -0.08021079
  O  0.53073226  1.91021524  0.41680463
  C  0.24687030 -0.30258039 -0.40436357
  C -1.04782417 -0.59279643 -0.20372500
  C -2.23273487  0.14039327  0.27383644
  O -3.22864367 -0.42822242  0.65936251
  O -2.10690210  1.45587358  0.18716955
  C -3.21008462  2.23501315  0.62191924
  C -1.18323516 -2.08063106 -0.57028629
  C -0.44175260 -2.82153280  0.54435742
  C  0.83592956 -2.54609551  0.33605591
  C  0.84062381 -1.64462803 -0.90078467
  O -0.24948975 -2.17104137 -1.63093805
  H  3.91411357  2.09138381 -0.90714893
  H  3.85612469  1.68799358  0.82552721
  H  2.65342041  2.79836641  0.13729328
  H  2.74223237 -0.01601264 -0.73153192
  H -3.25064084  2.24802762  1.71337419
  H -3.04071376  3.23839067  0.23928158
  H -4.14465600  1.81828942  0.23819463
  H -2.17424132 -2.42399903 -0.84056219
  H -0.92112437 -3.39396261  1.31065015
  H  1.70789933 -2.83414012  0.88716969
  H  1.73757682 -1.62237522 -1.51117409
