21
opt_min/./Reactant_1758_0_opt.xyz
  C  0.79864504  1.62387599  3.06707999
  C  0.71790260  0.12327767  3.15571180
  O  0.89673822 -0.48860347  4.18549852
  C  0.42963718 -0.58454588  1.88768564
  C  0.38645354 -1.98817035  1.91931830
  N  0.34210586 -3.13522417  1.98832538
  O  0.22185459  0.15986334  0.83159523
  C -0.03897792 -0.12002204 -0.40460890
  C -0.09978800 -1.50831166 -0.93897977
  C -0.29306827  1.09064878 -1.20802024
  C -0.66618584  0.88568465 -2.65188480
  O -0.18113245  2.19433495 -0.71156507
  H  0.31226969  2.02241082  2.18134870
  H  0.36041055  2.05409070  3.96514443
  H  1.85150139  1.90621288  3.04349647
  H -1.08772157 -1.94413008 -0.76862303
  H  0.09673267 -1.51960808 -2.00761477
  H  0.63059700 -2.14151414 -0.43829607
  H -1.48116484  0.17373360 -2.75432395
  H  0.19642166  0.51398066 -3.20442311
  H -0.96299912  1.84287516 -3.07337600
