21
opt_min/./Reactant_1506_0_opt.xyz
  C  3.88279600 -0.04402300 -0.91890600
  O  2.58776030  0.51003108 -0.73826894
  C  1.61833048 -0.31820375 -0.31608842
  O  1.78143240 -1.50329872 -0.09109568
  C  0.36959366  0.38786051 -0.17120992
  C  0.09559436  1.76936292 -0.36594480
  O  0.72316279  2.73233918 -0.69995482
  O -1.30554228  1.88806837 -0.04875551
  C -1.76362116  0.69841510  0.28657514
  C -3.18884930  0.52004108  0.65444754
  N -0.81788518 -0.21089647  0.23369710
  C -0.97370197 -1.60874987  0.53527523
  H  4.55180731  0.36210950 -0.15939987
  H  3.83200562 -1.13171393 -0.82352788
  H  4.23012791  0.23632632 -1.91221357
  H -3.29999979  0.39144882  1.73216163
  H -3.73748773  1.40935427  0.35579680
  H -3.61646887 -0.34680833  0.15299601
  H -1.02230847 -2.18425367 -0.39029978
  H -1.87450043 -1.76486311  1.12406541
  H -0.09801323 -1.95235592  1.08470378
