34
opt_min/./Reactant_3004_0_opt.xyz
  C  3.27110818  0.14018948 -1.64621358
  C  1.80439044  0.32451879 -1.41560935
  O  0.97060152  0.17997733 -2.26352612
  C  1.38530432  0.67879660  0.03708084
  C  2.31554130  1.69551736  0.70543150
  F  3.52690982  1.19151009  0.99730090
  F  2.52890101  2.76980846 -0.06434503
  F  1.81203636  2.13653737  1.86316236
  C  0.01350996  1.16551203  0.06574376
  C -1.17849007  1.11649911  0.23605684
  C -2.48852648  0.55503177  0.48326992
  C -3.40770272  0.73021532 -0.74634142
  F -2.95085877  0.07821580 -1.81746283
  F -4.64154359  0.25950655 -0.52304434
  F -3.53983177  2.00856691 -1.10807165
  C -3.14595628  1.29411778  1.66940841
  F -2.31821683  1.33819912  2.72329745
  F -3.46466646  2.55698072  1.38443329
  F -4.25876930  0.69254180  2.10404204
  C -1.89758862 -1.32534175  0.81819350
  C -0.83979562 -1.76199039 -0.18452786
  C  0.61402100 -1.83934391  0.30888861
  C  1.32107464 -0.61493361  0.91224944
  H  3.76841026  1.10936866 -1.61806422
  H  3.42442539 -0.29928192 -2.62872477
  H  3.71962857 -0.48793282 -0.88052366
  H -2.77251437 -1.97472491  0.75875029
  H -1.49454101 -1.37880962  1.83011655
  H -1.09038764 -2.77147699 -0.51397466
  H -0.87397214 -1.13098649 -1.07125609
  H  1.19717351 -2.19213832 -0.54413960
  H  0.66994862 -2.61328934  1.07871077
  H  2.34522845 -0.91990783  1.14322407
  H  0.84056389 -0.34065055  1.85453513
