20
opt_min/./Reactant_844_1_opt.xyz
  C  4.31831284 -0.76157469  0.04724914
  O  2.96782227 -1.13005765 -0.20039237
  C  2.03252311 -0.18661470 -0.03038921
  O  2.24664972  0.95711749  0.31133127
  C  0.69701719 -0.69338504 -0.30971874
  N -0.30138765  0.14266330 -0.17415496
  C -1.61450435 -0.01698373 -0.35038742
  C -2.16408493 -1.23301028 -0.76411838
  N -2.64186686 -2.22013788 -1.11103054
  C -2.43228724  1.16807444 -0.08263039
  C -3.91311685  1.00723406 -0.26449263
  O -1.89193160  2.20081963  0.26983667
  H  4.41244386  0.32577396  0.06283126
  H  4.92433908 -1.18863035 -0.75070360
  H  4.62928351 -1.17112092  1.01045136
  H  0.53401275 -1.71181318 -0.61981622
  H -0.04930341  1.10198003  0.12535270
  H -4.28334649  0.21423855  0.38345142
  H -4.13017065  0.72247522 -1.29299897
  H -4.41633135  1.94152637 -0.02783622
