26
opt_min/./Reactant_5744_1_opt.xyz
  C  5.12424600 -0.45386800  0.07425900
  O  4.10252477  0.49856353  0.31556923
  C  2.82262067  0.01852593  0.23894885
  O  2.56890596 -1.14194531 -0.03758718
  C  1.90696506  1.04717974  0.59370512
  O  0.57724127  0.95181192  0.59770733
  C -0.15408644  0.24364625 -0.21463193
  C  0.40408508 -0.32955663 -1.46261048
  C -1.54417818  0.11428985  0.15928964
  C -2.02801323  0.73340562  1.32401944
  C -3.34830331  0.61494195  1.69765767
  C -4.23010870 -0.13277121  0.93039164
  C -3.76834102 -0.76233342 -0.21454833
  C -2.44849850 -0.64320448 -0.59938245
  H  4.82033579 -1.43193423  0.45142549
  H  6.01130899 -0.09384129  0.58816081
  H  5.31334784 -0.53304631 -0.99970033
  H  2.26361891  1.90130627  1.14420830
  H  0.81295916 -1.33095380 -1.31882913
  H  1.23503914  0.29861083 -1.78942821
  H -0.35682451 -0.35399560 -2.23843473
  H -1.34459234  1.31017202  1.92860154
  H -3.69501548  1.10432452  2.59576739
  H -5.26384349 -0.22833529  1.22570486
  H -4.44486004 -1.35431912 -0.81374345
  H -2.11343902 -1.15441256 -1.48768851
