29
opt_min/./Reactant_2538_1_opt.xyz
  C -4.61086300 -1.08406400 -1.56434900
  O -3.45536346 -0.34841100 -1.19179209
  C -2.41530399 -1.06172143 -0.79529372
  O -2.40592977 -2.28617448 -0.72690261
  C -1.21870407 -0.30476884 -0.42658448
  N -0.24266394 -1.14526826 -0.03688005
  C  1.03798983 -1.05538296  0.24259490
  C  1.71321835 -2.28813083  0.75924734
  C  1.83798352  0.11326316 -0.13147485
  O  1.51683650  0.94607229 -0.94685000
  O  3.03426497  0.11854205  0.49068919
  C  3.89503111  1.19028038  0.14000560
  C -1.24195655  1.14872541 -0.29670016
  O -1.97401618  1.88378126 -0.91004925
  O -0.40923976  1.56800635  0.68044961
  C -0.32943827  2.96933200  0.88765211
  H -4.93816653 -1.72332653 -0.74126105
  H -4.39763921 -1.71131840 -2.43228932
  H -5.36916697 -0.34457383 -1.80319811
  H -0.65600786 -2.09983806 -0.00822465
  H  1.08261102 -2.79097189  1.48951348
  H  1.91415360 -2.98853075 -0.05282236
  H  2.65783668 -2.02816298  1.22235684
  H  3.49563289  2.13475972  0.51562850
  H  3.99440067  1.25850691 -0.94502688
  H  4.85374206  0.97261197  0.60199055
  H -1.25909919  3.44505177  0.57273893
  H -0.15596492  3.12358234  1.95040366
  H  0.50039485  3.37059586  0.30379640
