38
opt_min/./Reactant_5657_1_opt.xyz
  C -4.69109200  0.51449400 -1.92834700
  N -3.55076766  0.26580013 -1.08679716
  C -2.47977411 -0.40325553 -1.53235138
  O -2.43508207 -0.90245001 -2.65143426
  C -1.32765906 -0.45570975 -0.57291105
  C -1.55126644 -0.13506956  0.86714700
  O -2.50496094  0.50836484  1.27911602
  N -0.72697010 -0.76378794  1.73876944
  C -0.82716986 -0.54602066  3.16185409
  N -0.10979516 -0.77082912 -1.01886150
  C  0.06428045 -1.50895196 -2.25720689
  C  1.01366537 -0.27511608 -0.42486160
  C  2.30100218 -0.99332923 -0.47744265
  O  3.39107509 -0.47469277 -0.58607282
  N  2.16956948 -2.35737308 -0.36343905
  C  3.32344012 -3.22129980 -0.30691543
  C  0.94049240  1.07893854  0.11567175
  O -0.07081353  1.75623731  0.08870551
  O  2.10582352  1.49828937  0.61345252
  C  2.17095561  2.84376582  1.05816517
  H -4.68836845 -0.21105913 -2.74176200
  H -4.64746570  1.51963382 -2.35574051
  H -5.60469275  0.41624809 -1.34413255
  H -3.52562274  0.62758819 -0.13474940
  H  0.09969003 -1.23688306  1.40855128
  H -1.83509188 -0.19700105  3.37815393
  H -0.63500367 -1.47901951  3.68951300
  H -0.11305253  0.21167496  3.49496885
  H -0.47821229 -2.45288775 -2.22073466
  H -0.36200364 -0.93486893 -3.08202868
  H  1.12293185 -1.67279797 -2.43847286
  H  1.27610478 -2.77676880 -0.16480727
  H  3.55328832 -3.51742807  0.72019495
  H  3.15125739 -4.11369002 -0.90840159
  H  4.16860174 -2.66291638 -0.70553884
  H  2.67611415  3.44774428  0.30270089
  H  1.16447541  3.23220212  1.22804820
  H  2.74907789  2.84931791  1.98092876
