29
opt_min/./Reactant_4693_1_opt.xyz
  C  1.74620400 -1.56541000  2.66692300
  N  1.46913229 -0.62719989  1.60638938
  C  0.27102180 -0.61909482  0.98975639
  O -0.60694241 -1.40258463  1.33828469
  C  0.07224655  0.31146232 -0.15368300
  C  1.04582623  1.25692296 -0.65613836
  O  0.84224355  2.09459117 -1.51537206
  O  2.25845382  1.23033864 -0.02982587
  C  3.20836381  2.17455915 -0.50027522
  N -1.10209658  0.15521331 -0.83891863
  C -1.13816977  0.41014822 -2.26568473
  C -2.21332786 -0.20428813 -0.22426251
  C -3.40055336 -0.81132439 -0.81218855
  C -4.48938273 -1.05890737  0.20379007
  O -3.54094165 -1.10865804 -1.98603846
  H  2.43188700 -1.11291389  3.37995375
  H  0.80896231 -1.81906292  3.16094399
  H  2.18742051 -2.48663389  2.27609139
  H  2.21506318 -0.02867110  1.29666777
  H  2.78691612  3.18072557 -0.47771725
  H  3.50155246  1.93735178 -1.52456392
  H  4.06163764  2.09996913  0.16888212
  H -0.88173048  1.45119790 -2.45444954
  H -2.12526557  0.18707081 -2.65467092
  H -0.40225005 -0.21530882 -2.77070687
  H -2.19898726 -0.18927419  0.85230704
  H -4.08163011 -1.48937678  1.11329964
  H -5.23873098 -1.72233061 -0.21854146
  H -4.95893111 -0.10779139  0.45024501
