42
opt_min/./Reactant_3156_0_opt.xyz
  C -2.72932965 -2.05934581 -2.72837034
  O -2.19599647 -1.49176209 -1.53781339
  C -3.07873246 -0.92560495 -0.71585759
  O -4.25926068 -0.88357288 -0.92641698
  C -2.39831395 -0.35485950  0.53210332
  C -3.36203954  0.68230428  1.12120468
  O -3.24632885  1.86680754  0.97322402
  O -4.33493032  0.08799277  1.80168818
  C -5.35547799  0.93017142  2.32351311
  C -1.10724667  0.20921736  0.21161781
  C  0.08815462  0.29443154  0.15174372
  C  1.47766979 -0.03668675  0.30114609
 Br  2.13245257  0.83608990  2.01387887
  C  2.34504763  0.45997013 -0.82167938
  C  3.07284010 -0.37838081 -1.65339001
  C  3.80978817  0.14604380 -2.70275370
  C  3.82805145  1.51060837 -2.92837246
  C  3.10906075  2.35411557 -2.09890589
  C  2.37017619  1.83381828 -1.05419739
  C  1.49040274 -1.55214265  0.55653117
  C  0.50108613 -2.07947136  1.61700015
  C -0.93253566 -2.43622300  1.15812713
  C -2.08875347 -1.49381750  1.54192920
  H -3.30082734 -1.31155182 -3.28034007
  H -1.87663424 -2.39643100 -3.31166092
  H -3.38577699 -2.89725600 -2.48547662
  H -6.09599371  1.12965270  1.54715833
  H -4.92843471  1.87463558  2.66634833
  H -5.81351651  0.38977795  3.14841732
  H  3.08737214 -1.44456509 -1.48855620
  H  4.37050876 -0.51745032 -3.34362996
  H  4.40449730  1.91362763 -3.74776590
  H  3.12301839  3.42119409 -2.26245317
  H  1.80961327  2.49577988 -0.41031026
  H  2.50423338 -1.82188637  0.86496761
  H  1.26631603 -2.06953786 -0.37975434
  H  0.94667907 -3.01324433  1.96853707
  H  0.46603462 -1.40430580  2.47277758
  H -1.17907723 -3.38682159  1.63753230
  H -0.93484811 -2.60871041  0.08173041
  H -3.00177519 -2.08389306  1.65078437
  H -1.87243235 -1.03955354  2.51084649
