39
opt_min/./Reactant_2737_1_opt.xyz
  C -2.40804635  2.44722153  0.28290742
  C -2.03844541  1.03904653  0.75723612
  C -2.79268420  0.69976048  2.05142935
  C -0.60366283  0.87792322  0.92124743
  C  0.48924765  0.40015441  0.77052280
  C  1.44782770 -0.63916915  0.42210487
  C  2.12144383 -1.19584822  1.67785178
  C  2.43784263 -0.15854051 -0.62210934
  C  2.00789621  0.75227121 -1.58340853
  C  2.86089382  1.19815613 -2.57488630
  C  4.16550543  0.73701844 -2.62664047
  C  4.60288399 -0.17029220 -1.67941467
  C  3.74709087 -0.61499283 -0.68545422
  C  0.52078060 -1.71341413 -0.23907586
  C -0.78312593 -1.99292661  0.53489119
  C -2.10237616 -1.48084708 -0.07693864
  C -2.34456543  0.01426985 -0.36946520
  H -2.01505706  3.19078690  0.97305871
  H -1.99152682  2.64201476 -0.70337572
  H -3.48968133  2.55495739  0.22969185
  H -3.00139778  1.60439446  2.61813338
  H -3.73809955  0.21301722  1.82403944
  H -2.20696563  0.03302903  2.67969348
  H  2.64228720 -2.12519103  1.46077654
  H  2.82948947 -0.47405822  2.07993091
  H  1.37276605 -1.40002127  2.44031909
  H  0.99280833  1.12034951 -1.54087890
  H  2.50739619  1.90809657 -3.30864951
  H  4.83594532  1.08397205 -3.39910493
  H  5.61926200 -0.53693211 -1.71146112
  H  4.11689228 -1.32406794  0.03842718
  H  1.09998407 -2.63587820 -0.33235407
  H  0.27493837 -1.37759671 -1.24840899
  H -0.69081310 -1.61564333  1.55169901
  H -0.90918999 -3.07712987  0.60668610
  H -2.89843849 -1.82995533  0.58658564
  H -2.24223588 -1.99936287 -1.03080626
  H -3.39816495  0.11297224 -0.64547258
  H -1.75052134  0.29904411 -1.24100630
