18
opt_min/./Reactant_446_1_opt.xyz
  C -0.92573458  2.14001537 -2.10691159
  N  26.44811768  43.55560995 -11.80498964
  C  14.44495602 -0.10927967  11.71820010
  C -5.63258402 -33.44885589 -17.07486379
  O -0.72994977 -5.62974931 -31.46889801
  O  3.58178823  4.22402886 -26.64981821
  C -3.74687692  40.80596670 -0.76091982
  C  31.55261937 -0.81675466  19.16332305
  O -24.64009937 -9.17101686  41.69768673
  O  19.79766753 -2.23426424 -0.99507138
  C  5.88894373  16.83521549 -20.24409149
  H -10.74126245 -13.17503526 -5.14254512
  H  13.68472271  1.95659990 -2.14726444
  H -11.96970628  6.12928159 -4.71663781
  H -28.67658438 -33.54793543 -6.64696873
  H -4.87654438  20.94766828  12.14394291
  H -22.45278681 -9.34439369 -0.31792008
  H -3.15084428 -9.03199828  3.88013728
