34
opt_min/./Reactant_2415_0_opt.xyz
  C -3.68993300 -3.22818100  0.30104900
  N -3.00393172 -1.96527510  0.21458827
  C -1.69338065 -1.87670193 -0.10717738
  O -0.99864428 -2.86253830 -0.34931394
  C -1.09088696 -0.53678308 -0.11496645
  N  0.22961100 -0.61060778 -0.21929890
  N  1.08070736  0.34656697 -0.24671838
  C  2.41932619  0.05661716 -0.33384265
  C  3.24974956  1.15677066 -0.58889815
  C  4.61510721  0.99816166 -0.68777998
  C  5.18654356 -0.25680497 -0.52939721
  C  4.37506855 -1.34666705 -0.26148313
  C  3.00622632 -1.20273232 -0.16090129
  C -1.79966091  0.72910024  0.00467158
  C -1.25352394  1.78066051  0.74475610
  C -1.93371379  2.97669600  0.86414004
  C -3.16097214  3.15295951  0.24705734
  C -3.70385139  2.12364066 -0.50506423
  C -3.03128555  0.92260966 -0.62703777
  H -2.98332038 -4.00565741  0.00853802
  H -4.03101452 -3.41905413  1.32139346
  H -4.54812577 -3.24543410 -0.37419118
  H -3.49684367 -1.12862793  0.48547773
  H  0.53576350 -1.60090689 -0.32846704
  H  2.78685253  2.12304004 -0.70969928
  H  5.24267017  1.85391627 -0.88790196
  H  6.25618061 -0.38205503 -0.60933590
  H  4.81375408 -2.32598439 -0.12483707
  H  2.40445283 -2.07235274  0.07120771
  H -0.29791487  1.64960517  1.22403917
  H -1.50208031  3.78076423  1.44304497
  H -3.68702631  4.09039416  0.34401043
  H -4.65202589  2.26307430 -1.00225429
  H -3.44163090  0.13918789 -1.24870803
