21
opt_min/./Reactant_2509_1_opt.xyz
  C  3.25271696 -0.89105813  0.54530788
  N  1.90055552 -0.37961349  0.48378747
  C  0.83410114 -1.19646322  0.73231363
  O  0.90364654 -2.39036656  0.86550816
  N -0.37961514 -0.49985222  0.80710893
  N -0.74495456  0.21525130 -0.17122790
  C -1.84051414  0.97060898 -0.25128816
  C -2.11624316  1.60225060 -1.47011799
  N -2.31993539  2.11953044 -2.47538484
  C -2.73713125  1.17632280  0.90543614
  O -2.49664221  0.83858885  2.03336419
  O -3.83333287  1.84409607  0.51488073
  C -4.79134519  2.14323014  1.52126052
  H  3.77340514 -0.68314942 -0.39059155
  H  3.18957995 -1.96743892  0.69017814
  H  3.80547729 -0.44514696  1.37182925
  H  1.79017787  0.61468116  0.61322210
  H -0.17995587  0.20945976 -1.04186430
  H -4.30059397  2.24908082  2.49046669
  H -5.27306079  3.07205381  1.22666221
  H -5.52834140  1.34006764  1.57548906
