37
opt_min/./Reactant_3188_1_opt.xyz
  N  2.15018646  0.92735664  2.55592038
  C  1.59415997  0.56909238  1.62375594
  C  0.93396242  0.16307259  0.39819018
  C  1.64634660 -1.07249394 -0.15187697
  C  2.05705703 -1.18311632 -1.47062509
  C  2.66844865 -2.34652053 -1.90734989
  C  2.87178504 -3.40218292 -1.03642891
  C  2.45497100 -3.29635979  0.27920102
  C  1.84115614 -2.13786069  0.71948985
  C -0.45747128 -0.16325657  0.63645850
  C -1.64530224 -0.18034358  0.46940785
  C -2.96705530  0.34980143  0.17913427
  C -3.56601259 -0.41939502 -1.02266679
  F -3.19487732  0.12506424 -2.19029447
  F -3.15253055 -1.69077182 -1.05060137
  F -4.89975973 -0.44956750 -1.04055070
  C -3.86739771  0.16817754  1.41712535
  F -5.14142356  0.50804389  1.21371221
  F -3.85637786 -1.09281181  1.85016062
  F -3.43812042  0.93179744  2.43112427
  C -2.67348952  1.84358397 -0.08694124
  C -1.59904618  2.22672701 -1.15245968
  C -0.34381638  1.40713855 -1.53063502
  C  0.83931224  1.40362604 -0.54245395
  H  1.89901904 -0.37751116 -2.17064749
  H  2.98513087 -2.42572888 -2.93655348
  H  3.34977277 -4.30525222 -1.38467065
  H  2.60297024 -4.11371792  0.96821381
  H  1.51449785 -2.05869095  1.74669395
  H -3.58500748  2.35802145 -0.40471007
  H -2.36567562  2.27124629  0.86896027
  H -1.23909205  3.20921902 -0.83086293
  H -2.12319634  2.38275175 -2.09686464
  H  0.02126898  1.90078702 -2.43671755
  H -0.61592093  0.39439708 -1.82294170
  H  0.79058263  2.30011236  0.08213720
  H  1.77379350  1.47082261 -1.10328591
