25
opt_min/./Reactant_4383_1_opt.xyz
  C -2.57507697 -2.07414205  1.80415373
  N -1.55133645 -1.36919879  1.07299141
  C -1.45806005 -0.01752836  1.08338705
  O -2.18613462  0.69147638  1.75861914
  C -0.34375682  0.50273013  0.25515947
  C  0.88774259 -0.33843457  0.09374223
  O  1.40248901 -0.56486166 -0.97916351
  N  1.32824672 -0.87064503  1.26071956
  C  2.51211539 -1.69418640  1.32064356
  N -0.41111396  1.67120146 -0.35966413
  C -1.66343728  2.42130356 -0.35363148
  N  0.62223768  2.14603812 -0.95824588
  C  0.66632713  3.26160658 -1.60634903
  N  0.84833596  4.22433084 -2.21853307
  H -3.34313131 -2.46236165  1.13123919
  H -2.13753434 -2.90292666  2.36088897
  H -3.03230536 -1.36676145  2.49417880
  H -0.97327417 -1.89946069  0.43982534
  H  0.89852313 -0.59190774  2.12841484
  H  2.25185978 -2.73974438  1.50429884
  H  3.01536982 -1.61824796  0.35796881
  H  3.17638154 -1.34883331  2.11199287
  H -1.52179044  3.34816588 -0.90921979
  H -1.95657422  2.63887338  0.67315181
  H -2.45163589  1.83031096 -0.81874699
