36
opt_min/./Reactant_908_1_opt.xyz
  C -0.94254800 -3.25994300 -0.22003100
  C -1.72183324 -2.01226508  0.20015506
  O -2.91956000 -2.12729147  0.42916162
  C -1.05335788 -0.73900594  0.18626055
  C -1.84215178  0.47554691 -0.03066568
  C -1.45161454  1.68723920  0.55325957
  C -2.21684384  2.82469084  0.41046789
  C -3.39244948  2.78980481 -0.32453390
  C -3.79111342  1.60089624 -0.90962062
  C -3.02782077  0.45763714 -0.76792799
  N  0.30696735 -0.60889769  0.26065227
  C  1.01507362 -1.39612492  1.25013579
  C  0.94567340  0.28218417 -0.48523092
  C  2.29678958  0.75322970 -0.37556468
  C  2.92467535  1.17980170 -1.55823889
  C  4.22210778  1.64447179 -1.54673101
  C  4.92541960  1.72434648 -0.35427407
  C  4.30804855  1.35101104  0.82880155
  C  3.01396235  0.87130091  0.82574010
  H -1.59911756 -3.83381384 -0.86988143
  H -0.72600205 -3.89107696  0.64029195
  H -0.02546472 -3.02916896 -0.75536757
  H -0.54177388  1.73685103  1.13641930
  H -1.89797833  3.74399427  0.87991548
  H -3.98878237  3.68286473 -0.43740991
  H -4.70408460  1.56289014 -1.48585187
  H -3.35138614 -0.46176890 -1.22817002
  H  0.50017643 -2.33555459  1.41224896
  H  2.03987176 -1.58038043  0.93218994
  H  1.02019403 -0.86314530  2.20306596
  H  0.36117688  0.69789459 -1.29413491
  H  2.37976839  1.12400618 -2.48879375
  H  4.68801647  1.95191965 -2.47109939
  H  5.94120627  2.09032127 -0.34558395
  H  4.84009907  1.44168133  1.76460579
  H  2.54226269  0.63517840  1.76522941
