24
opt_min/./Reactant_1089_1_opt.xyz
  C  3.93802600 -0.65130100  0.16908200
  O  2.68930478 -0.10451749 -0.22895751
  C  1.59298079 -0.76390402  0.19471732
  O  1.63458219 -1.74189359  0.88893871
  C  0.37988653 -0.07387797 -0.28100396
  C -0.93191883 -0.36434116 -0.19216318
  C -1.60363046 -1.59787626  0.26998217
  C -3.09052466 -1.49717247  0.51165754
  O -0.99787560 -2.62290065  0.45855240
  C -1.62183801  0.90410621 -0.73884809
  C -1.37935855  1.96361819  0.34508272
  C -0.08972490  2.24247623  0.25346417
  C  0.42581019  1.34639771 -0.87489740
  O -0.70053630  1.30776754 -1.73192406
  H  3.90372431 -1.74156270  0.12973835
  H  4.17480212 -0.33915485  1.18874226
  H  4.68123743 -0.26230484 -0.52399166
  H -3.58949895 -0.82183231 -0.17296269
  H -3.52633140 -2.49152421  0.44559156
  H -3.23950107 -1.13361165  1.52912185
  H -2.62401579  0.81820250 -1.14066941
  H -2.13302007  2.32521013  1.01338841
  H  0.52633352  2.91456629  0.81468566
  H  1.33468182  1.63499062 -1.38726557
