21
opt_min/./Reactant_4787_1_opt.xyz
  C  0.24851552  2.86639381 -1.13545646
  C -0.94680498  1.94908023 -0.99144878
  O -2.09116940  2.33142822 -1.10056558
  C -0.61607425  0.55445009 -0.68912512
  O  0.64077279  0.29215779 -0.43286246
  C  1.21933339 -0.86512154 -0.26030183
  C  2.69704082 -0.82079567 -0.00836644
  C  0.57913631 -2.09992136 -0.33712392
  N  0.09818943 -3.14659831 -0.38004263
  C -1.71673949 -0.46226893 -0.62377073
  C -1.95004895 -0.99389650  0.77548650
  O -2.39599022 -0.74895010 -1.57115010
  H  0.88625228  2.52625195 -1.94815301
  H  0.83394871  2.86542087 -0.21862943
  H -0.10167155  3.87223993 -1.34443382
  H  2.93887698 -0.01695293  0.68413446
  H  3.03736936 -1.76795795  0.40110154
  H  3.23881087 -0.63743203 -0.93822873
  H -2.08040143 -2.07436493  0.74099038
  H -1.15172571 -0.73780664  1.46667696
  H -2.88326038 -0.55528768  1.12667167
