26
opt_min/./Reactant_1405_1_opt.xyz
  C  1.48852648  1.49535862 -1.28552974
  C  0.91505837  0.29956096 -0.51996631
  C  2.00278731 -0.75735631 -0.27726708
  C  0.29812462  0.74191908  0.71494244
  C -0.47528402  0.87189984  1.62393021
  C -1.80335991  0.71320265  2.19293672
  F -2.44537028  1.91031044  2.42144772
  C -2.52973974 -0.06696682  1.08531205
  C -1.76319425 -1.36054348  0.70464839
  C -1.09773823 -1.44430738 -0.68436545
  C -0.31771832 -0.26177615 -1.29032637
  H  2.22922435  2.00811131 -0.67512679
  H  0.70525670  2.20803643 -1.53657383
  H  1.96211317  1.16832671 -2.20940939
  H  2.83017013 -0.62547610 -0.97057393
  H  1.60907639 -1.76144244 -0.40997532
  H  2.39463856 -0.68675349  0.73501260
  H -1.78783076  0.17459274  3.15040934
  H -3.54917221 -0.31058545  1.38877988
  H -2.59465736  0.58158112  0.21036822
  H -1.00450229 -1.53818805  1.46746090
  H -2.49917370 -2.16202054  0.77165149
  H -0.43262510 -2.31021590 -0.64881006
  H -1.87591998 -1.68112942 -1.41549030
  H -1.00160996  0.57192854 -1.45501421
  H  0.03445531 -0.59594003 -2.27070169
