14
opt_min/./Reactant_731_1_opt.xyz
  C  0.26860289  1.96581572 -1.81712489
  N  0.56121187  1.15273270 -0.99610181
  C  0.62046049  0.39921685  0.03507569
  C  1.49178058  0.78808594  1.19793873
  C -0.12315203 -0.85159678  0.09055090
  C -1.00060904 -1.15879896 -1.10498638
  O -0.03662899 -1.59658506  1.04874414
  H  0.68003629  2.19740407 -2.77387124
  H  0.90088483  1.29993777  1.96118903
  H  1.90357765 -0.11514132  1.64374579
  H  2.29954791  1.44564883  0.88003087
  H -1.78514761 -0.40580734 -1.18710856
  H -0.41764546 -1.14743030 -2.02427102
  H -1.45457623 -2.13750897 -0.97323190
