26
opt_min/./Reactant_1562_0_opt.xyz
  C  3.74934613  0.20741968  0.28735739
  N  2.32084040  0.20207979  0.46853539
  C  1.52004346 -0.74133951 -0.10699081
  O  1.97486702 -1.60799629 -0.83773809
  C  0.09292502 -0.55928009  0.20675910
  C -0.43127866  0.82199021  0.30355967
  O -1.31747345  1.15766768  1.07542418
  N  0.13929492  1.69499100 -0.56438853
  C -0.20594802  3.09230955 -0.59398490
  N -0.72592849 -1.61300784  0.36338053
  C -0.15293330 -2.94531505  0.25934102
  C -2.02195719 -1.52637508  0.62948394
  C -2.84920945 -2.62512965  0.78474093
  N -3.58905477 -3.49888040  0.92535325
  H  4.26602549 -0.03365503  1.21881413
  H  3.98307738 -0.55037742 -0.45945565
  H  4.08437956  1.18494104 -0.06484780
  H  1.91986076  0.81175356  1.16260979
  H  0.81521862  1.34663245 -1.22545632
  H -0.67556508  3.35526871 -1.54396874
  H -0.91304026  3.26766444  0.21618252
  H  0.68133529  3.71133008 -0.44520126
  H  0.36274036 -3.05476583 -0.69443290
  H -0.93998006 -3.69029857  0.35582795
  H  0.58262476 -3.09891083  1.05133143
  H -2.46205107 -0.54882561  0.75552801
