13
opt_min/./Reactant_42_1_opt.xyz
  C -3.17791298  1.04169095 -0.07414601
  C -1.76722055  0.75551134 -0.10727052
  C -0.58516206  0.53408778 -0.13160916
  C  0.83675211  0.32386277 -0.13608216
  O  1.65032827  1.20091003  0.00659321
  O  1.13872277 -0.97099105 -0.31223021
  C  2.51981667 -1.28826269 -0.32593428
  H -3.61767546  0.83351417 -1.04876955
  H -3.33947906  2.08820619  0.17920916
  H -3.66122096  0.41129801  0.67187750
  H  2.97527604 -0.96129697 -1.26354050
  H  3.03343010 -0.79885796  0.50480959
  H  2.58840733 -2.36965564 -0.23175713
