32
opt_min/./Reactant_5589_0_opt.xyz
  C -0.02762200  2.15909100 -1.95983400
  C -1.23774602  1.46811067 -1.39250425
  O -2.36957642  1.77653855 -1.72236711
  C -0.99120698  0.41059315 -0.41202688
  N  0.20934971  0.03598607  0.01546759
  N  1.36189844  0.46997214 -0.35278557
  C  2.49001575 -0.02477545  0.25197024
  C  2.53098784 -0.74402610  1.45433033
  C  3.74040942 -1.16930289  1.96731750
  C  4.92603555 -0.89055528  1.30710579
  C  4.89713844 -0.16442055  0.12545380
  C  3.69843025  0.26929244 -0.39597157
  C -2.13307259 -0.28339519  0.20383003
  C -2.14690016 -0.54254685  1.57720350
  C -3.21580140 -1.19956683  2.15532694
  C -4.28710437 -1.60535014  1.37758696
  C -4.28660544 -1.34493137  0.01726197
  C -3.21996912 -0.68979405 -0.56801769
  H  0.56446087  2.59242204 -1.15664356
  H  0.60674428  1.43749756 -2.46996359
  H -0.34997435  2.93391371 -2.65100816
  H  0.16105763 -0.71838223  0.72161128
  H  1.62911710 -0.95495699  2.01590363
  H  3.75581154 -1.71963889  2.89728014
  H  5.86437026 -1.22987779  1.71780875
  H  5.81985814  0.06420228 -0.38798281
  H  3.65790933  0.83442038 -1.31356949
  H -1.33571486 -0.19389037  2.20301096
  H -3.21810697 -1.38621736  3.21996643
  H -5.12243094 -2.11574039  1.83378786
  H -5.12253907 -1.65836728 -0.59021939
  H -3.22209484 -0.48967937 -1.62724867
