25
opt_min/./Reactant_3037_1_opt.xyz
  C  3.07145786  0.65190739 -1.51259554
  C  2.45747274 -0.35728309 -0.58746049
  O  3.04139110 -0.87351097  0.32561456
  C  1.00138038 -0.72369151 -0.90295429
 Br  1.18578519 -1.79327141 -2.60359976
  C  0.17097347  0.43733172 -1.18825770
  C -0.88802087  1.00226808 -0.96962383
  C -2.11586421  1.36956225 -0.29036226
 Br -3.29368819  2.46392200 -1.46410499
 Br -1.59067750  2.53590018  1.26014898
  C -3.01669622  0.19904707  0.27253456
  C -2.36611741 -0.93659300  1.14220521
  C -1.02149392 -1.02689047  0.43111388
  C  0.34808261 -1.65777311  0.23102856
  H  2.32952505  1.15119066 -2.13010455
  H  3.79095131  0.14414313 -2.15533878
  H  3.62296033  1.38204322 -0.92287854
  H -3.81756347  0.68719414  0.83360725
  H -3.46484277 -0.27166989 -0.60686484
  H -2.28051473 -0.63807406  2.18590932
  H -2.99415388 -1.82448917  1.07305882
  H -1.37806460 -1.06769281 -0.60173593
  H -0.67379422 -0.03775354  0.72871633
  H  0.31372308 -2.68160352 -0.13699825
  H  0.99880266 -1.61120887  1.10413244
