34
opt_min/./Reactant_917_1_opt.xyz
  C  0.48656800  3.84680400 -0.16220300
  C -0.06876953  2.46889150 -0.08639016
  N  0.66762244  1.36537099 -0.10277587
  C  2.11279274  1.53270386 -0.17026014
  C  0.16794454  0.10748110 -0.10751860
  C -1.20303860 -0.16115533 -0.52787949
  C -1.79776721  0.50423482 -1.60767884
  C -3.07300339  0.18006508 -2.01961878
  C -3.79844059 -0.80917838 -1.37374432
  C -3.22252066 -1.48175846 -0.30757896
  C -1.94641996 -1.16172999  0.10775699
  C  0.98366679 -1.03099439  0.27934653
  C  1.79855626 -1.01677025  1.41887436
  C  2.53719059 -2.12429876  1.78098964
  C  2.47911387 -3.28311459  1.02423584
  C  1.66320027 -3.32204427 -0.09652346
  C  0.92672050 -2.21670551 -0.46548623
  H  0.96215862  4.05813909 -1.12498476
  H  1.22665131  4.03839517  0.61788640
  H -0.32679096  4.55577840 -0.03593477
  H -1.12981734  2.33953483  0.02857363
  H  2.56623128  0.63605267 -0.58613170
  H  2.34813267  2.38450387 -0.80428742
  H  2.53426803  1.71049931  0.81929494
  H -1.24316099  1.26746875 -2.13468332
  H -3.50494647  0.70362054 -2.86173274
  H -4.79769857 -1.04925520 -1.70335228
  H -3.77739914 -2.25513304  0.20294399
  H -1.50162984 -1.68858126  0.94017401
  H  1.82378504 -0.12996100  2.03599938
  H  3.15393084 -2.08916453  2.66806603
  H  3.05551285 -4.15116778  1.30764230
  H  1.60904288 -4.22528819 -0.68840888
  H  0.29484486 -2.25742027 -1.34099278
