14
opt_min/./Reactant_739_0_opt.xyz
  C  3.52024941  0.55628356 -0.64098910
  N  2.28552191  1.05876825 -0.11233921
  N  1.25580053  0.43400353 -0.17367335
  C  0.18444136 -0.05095986 -0.15148852
  C -1.11065384 -0.60095397 -0.07899557
  O -1.42275366 -1.69479892 -0.48865688
  O -1.96381457  0.26715736  0.51334481
  C -3.29560762 -0.19930395  0.65517024
  H  4.31053381  0.81685134  0.06262893
  H  3.73131259  1.04622911 -1.59557189
  H  3.50715131 -0.52689573 -0.79252452
  H -3.69065549 -0.52592048 -0.30926364
  H -3.33229633 -1.03996865  1.35239297
  H -3.86781220  0.64008462  1.04195360
