25
opt_min/./Reactant_3552_1_opt.xyz
  C  3.15630400  0.21684700  0.27648600
  N  1.76433211  0.49542009  0.15426137
  N  0.88578883 -0.41211458  0.13350341
  C  1.24807396 -1.82698217  0.20953247
  C -0.43013948 -0.08554069  0.03610736
  C -0.87310792  1.32172561  0.03970708
  O -2.02226694  1.68397910 -0.06167302
  O  0.13445465  2.20594685  0.17878551
  C -0.22222259  3.57882641  0.21482740
  C -1.45408787 -1.13198671 -0.07327957
  O -1.24423570 -2.33340254 -0.08529247
  O -2.69391041 -0.64459855 -0.16038241
  C -3.74562414 -1.58688033 -0.28131289
  H  3.41117381 -0.32295797  1.19552494
  H  3.54924723 -0.34257720 -0.58066605
  H  3.64576104  1.18914781  0.30090553
  H  0.89803088 -2.34525292 -0.68124272
  H  2.32434249 -1.93447135  0.29521663
  H  0.76081170 -2.28938381  1.06553503
  H  0.41744013  4.05653613  0.95525918
  H -0.04904444  4.02341867 -0.76722319
  H -1.27496910  3.68914197  0.48322858
  H -4.06561027 -1.91480011  0.71066522
  H -3.41758569 -2.45546833 -0.85663090
  H -4.56103516 -1.07214125 -0.78399705
