12
opt_min/./Reactant_27_1_opt.xyz
  C  1.06944112  1.94215298  2.35730936
  N  0.89035167  0.90528610  1.82086043
  C  0.77868955 -0.05844709  0.98750210
  C -0.34508212 -0.12259022  0.07433386
  O -1.25100469  0.67791075  0.01256611
  O -0.25267890 -1.22877205 -0.69946274
  C -1.29222490 -1.44955479 -1.64111608
  H  0.83490806  2.38904954  3.29195919
  H  1.51992303 -0.83813438  0.98386398
  H -0.87825034 -1.38641643 -2.64921736
  H -1.69918450 -2.44618788 -1.47561531
  H -2.07291146 -0.69756059 -1.51631459
