28
opt_min/./Reactant_2917_1_opt.xyz
  C -0.76662730 -3.52109614  2.08522884
  O -0.25361723 -2.20832391  1.89921192
  C  0.67102428 -2.05971516  0.95168782
  O  1.08818934 -2.94753858  0.26000835
  C  1.15594664 -0.61418249  0.89033509
  C  0.08672090  0.33825111  1.08681055
  C -0.68134515  1.18744110  0.72212677
  C -1.20887014  2.23586952 -0.14124462
  C -1.53221352  3.44209362  0.59997882
  N -1.76462629  4.38988912  1.19209222
  C -2.40008184  1.77143245 -0.83263774
  N -3.32936050  1.40913083 -1.38752182
  C -0.03887779  2.50721104 -1.13649037
  C  0.32483283  1.35417635 -2.08970813
  C  0.60364441 -0.07182711 -1.57146047
  C  1.71183584 -0.25292574 -0.51244208
  H  0.00828559 -4.17367769  2.49249786
  H -1.11108696 -3.93243353  1.13483392
  H -1.59227284 -3.42650566  2.78546213
  H  1.93951002 -0.50996564  1.64852432
  H  0.82904431  2.78664515 -0.53458256
  H -0.31025212  3.37053917 -1.75245459
  H -0.47696843  1.26165527 -2.82738081
  H  1.21495571  1.69399825 -2.62766203
  H -0.32419930 -0.51074817 -1.20380022
  H  0.88531878 -0.64282786 -2.45847019
  H  2.29550558  0.66451393 -0.42795174
  H  2.37920896 -1.06080631 -0.81520670
