33
opt_min/./Reactant_4812_1_opt.xyz
  C -2.13052222 -3.89884314  0.64379705
  N -1.53789670 -2.60153596  0.42749459
  C -2.29925235 -1.52539839  0.06874825
  O -3.50545073 -1.62156325 -0.07047906
  C -1.54786221 -0.27301121 -0.10809644
  N -0.25441474 -0.30370257 -0.04285261
  C  0.92150270 -0.30097571  0.04420080
  C  2.29767676 -0.31042235  0.12701211
  C  3.02813600 -1.47614073 -0.17252987
  C  4.40192616 -1.46754063 -0.07961591
  C  5.07999668 -0.31858412  0.29991786
  C  4.36686895  0.83592008  0.59250438
  C  2.99204339  0.85074943  0.51448424
  C -2.18770496  1.01234311 -0.37270982
  C -3.52702333  1.24594414 -0.05785598
  C -4.10585205  2.46892999 -0.33430304
  C -3.36830574  3.48774675 -0.91440293
  C -2.03538134  3.26877612 -1.22147463
  C -1.44814838  2.04870170 -0.95638623
  H -2.19065155 -4.46859123 -0.28909168
  H -3.14454374 -3.75556182  1.01852026
  H -1.54165040 -4.45611657  1.36928680
  H -0.54154024 -2.51076320  0.52950619
  H  2.50025441 -2.36875852 -0.47461044
  H  4.95475382 -2.36537599 -0.31589396
  H  6.15661519 -0.32154850  0.36687559
  H  4.89021934  1.73074587  0.89447037
  H  2.43270168  1.74531751  0.74428091
  H -4.11119663  0.45875109  0.38837756
  H -5.14538035  2.63128541 -0.08953395
  H -3.82689361  4.44133272 -1.12762038
  H -1.45002802  4.05469946 -1.67839375
  H -0.41099882  1.88522675 -1.21570699
