27
opt_min/./Reactant_1185_0_opt.xyz
  C  4.53246200 -0.56390600 -0.27761700
  C  3.34294167  0.23960188 -0.73106389
  O  3.46238003  1.22424988 -1.44847199
  C  2.08112133 -0.22885769 -0.20882514
  C  1.87670911 -1.32460938  0.67555720
  O  2.59443394 -2.13974430  1.19454136
  O  0.48348674 -1.34142954  0.90839090
  C -0.08812644 -0.35316084  0.22336344
  C -1.51969875 -0.17994792  0.34400652
  C -2.29948173  0.62376039 -0.49464566
  C -3.66411108  0.71671494 -0.29240856
  C -4.28066143  0.02140306  0.73373174
  C -3.51893166 -0.78558448  1.56274720
  C -2.15707141 -0.88990876  1.37308426
  N  0.83370585  0.32579460 -0.44727072
  C  0.62042326  1.48699394 -1.27648112
  H  5.43609127 -0.13046328 -0.69977327
  H  4.58744769 -0.58334562  0.80742420
  H  4.42727801 -1.59543800 -0.60834076
  H -1.86648934  1.16171471 -1.31798911
  H -4.25213139  1.33960351 -0.95025545
  H -5.34604349  0.10318269  0.88395771
  H -3.98908379 -1.33784194  2.36236410
  H -1.56295515 -1.51650447  2.01743036
  H  1.60345249  1.88667638 -1.53579206
  H  0.03860831  2.23353218 -0.73654726
  H  0.10394560  1.20235091 -2.19395147
