25
opt_min/./Reactant_2429_0_opt.xyz
  C -1.35881131  3.40539823 -0.13360929
  O -0.64839707  2.17612373 -0.21852444
  C -1.28391660  1.10460566  0.26223810
  O -2.38885809  1.13581476  0.75393656
  C -0.50079502 -0.14169909  0.15814892
  O -1.10208229 -1.29808028  0.18785806
  C -2.36469730 -1.62443255  0.00899845
  C -2.66349240 -2.99637048  0.10540852
  N -2.93216329 -4.11039772  0.17297900
  C -3.44396750 -0.80982099 -0.36475803
  N -4.36443111 -0.24226224 -0.75504443
  C  0.95010077 -0.20089798  0.13807868
  C  1.74311220  0.84238339  0.62546886
  C  3.11947854  0.74451647  0.58411958
  C  3.73094002 -0.38869822  0.06785729
  C  2.95311541 -1.43527496 -0.40447403
  C  1.57706657 -1.34676848 -0.37042098
  H -0.83827566  4.10256327 -0.78705273
  H -1.35707804  3.77168639  0.89636561
  H -2.39300333  3.26542613 -0.45528917
  H  1.28185017  1.72019687  1.04955770
  H  3.72481784  1.55381870  0.96438140
  H  4.80714193 -0.45617494  0.03699390
  H  3.42042720 -2.32250838 -0.80579516
  H  0.97406835 -2.15971870 -0.74819149
