30
opt_min/./Reactant_2038_1_opt.xyz
  C  2.55433600 -2.70929800  0.83689200
  N  1.77339211 -1.50533824  0.71855523
  C  2.24738399 -0.39263257  0.10558171
  O  3.34668347 -0.33944676 -0.41346484
  C  1.32484193  0.75166714  0.10232741
  C -0.00408117  0.89383939  0.20494758
  C -1.09964423 -0.05697740  0.27239587
  C -1.09638788 -1.19439132 -0.53792367
  C -2.14850326 -2.08865363 -0.49042891
  C -3.21396287 -1.86762400  0.36799219
  C -3.22630290 -0.74183535  1.17450475
  C -2.18207036  0.16263648  1.12426313
  C -0.22153003  2.42126090  0.11109327
  C  0.08122162  2.75606681 -1.35000808
  C  1.39126932  2.61038189 -1.46248327
  C  1.85474934  2.18778198 -0.06862142
  O  0.94487097  2.90148028  0.75497079
  H  1.99371285 -3.56482426  0.45645477
  H  3.45851854 -2.57125133  0.24631882
  H  2.83174880 -2.89893949  1.87680325
  H  0.87174797 -1.47746310  1.16600148
  H -0.27128316 -1.35475771 -1.21625611
  H -2.14034232 -2.96103952 -1.12713350
  H -4.03454625 -2.56862397  0.40570995
  H -4.05477093 -0.56568427  1.84509279
  H -2.18756816  1.03373881  1.76236890
  H -1.13075404  2.82528823  0.54038866
  H -0.66533206  3.01162828 -2.07405199
  H  2.04472766  2.71610496 -2.30300986
  H  2.89180901  2.35163019  0.19529940
