28
opt_min/./Reactant_5420_0_opt.xyz
  C  2.54786347 -3.19355397  0.20656144
  N  1.47500477 -2.22263551  0.22361415
  C  1.66568663 -0.99619221 -0.32475522
  O  2.74288769 -0.71619949 -0.84018593
  C  0.52699063 -0.06087985 -0.30233607
  N -0.54678490 -0.36481990  0.41172297
  C -1.79928034  0.08812525  0.49537045
  C -2.42850426  1.08610571 -0.26622715
  N -3.14802117  1.78763017 -0.82656258
  C -2.57759568 -0.65415131  1.49412184
  C -4.02308731 -0.31195382  1.65045418
  O -1.99472084 -1.50931654  2.15732098
  C  0.57377027  1.27671471 -0.95299101
  O -0.33981713  2.07234186 -0.77745503
  N  1.67418962  1.55191319 -1.66790155
  C  1.84663215  2.81340288 -2.34219733
  H  2.28058381 -4.03515612  0.83914299
  H  3.46231155 -2.72767868  0.57531106
  H  2.73619491 -3.54315538 -0.81150113
  H  0.57977213 -2.54083067  0.55399186
  H -0.47313342 -1.12324966  1.12110906
  H -4.52673020 -0.37160352  0.68659887
  H -4.12170570  0.71245777  2.00632299
  H -4.48588548 -0.99373701  2.36008275
  H  2.44128685  0.88448407 -1.66765276
  H  0.97332488  3.43157985 -2.13787172
  H  2.74400179  3.31934097 -1.98196333
  H  1.93528162  2.65425603 -3.41890466
