23
opt_min/./Reactant_1311_0_opt.xyz
  C  0.19058770 -2.11724582 -1.06816774
  C -0.34208344 -0.79379750 -0.61025790
  N -1.47471146 -0.40043242 -1.15734284
  C -2.31965411  0.63380910 -0.86086120
  C -3.42909922  0.81446546 -1.68530784
  N -4.34055902  0.93546594 -2.37973702
  C -2.18884214  1.45808928  0.25290661
  N -2.12881256  2.15479064  1.16875810
  C  0.39444340 -0.00202923  0.36037841
  C  0.95881966 -0.60907400  1.48570662
  C  1.68897013  0.13361709  2.39129095
  C  1.88920561  1.48877522  2.18281004
  C  1.35823734  2.09639834  1.05698732
  C  0.61338251  1.36435861  0.15500268
  H  0.25690594 -2.14845775 -2.15698104
  H  1.18320124 -2.28966591 -0.66451684
  H -0.46095541 -2.93339234 -0.75079279
  H -1.82937060 -0.98804174 -1.91038194
  H  0.79211344 -1.66148672  1.66352934
  H  2.10210185 -0.34655944  3.26585929
  H  2.45902982  2.06799248  2.89299341
  H  1.52010564  3.14883652  0.88191172
  H  0.23059158  1.84532586 -0.73298228
