33
opt_min/./Reactant_2993_0_opt.xyz
  C -1.90093005 -2.65387728  0.70354127
  C -2.60630438 -1.35368228  0.44361842
  O -3.75147661 -1.16879250  0.75883850
  C -1.73933278 -0.27227607 -0.21999389
  C -2.56637582  0.66214330 -1.12494030
  C -3.63659110  1.48079417 -0.46374914
  O -2.33802105  0.71819287 -2.30455666
  C -0.67075767 -0.87207880 -1.03804739
  C  0.50823787 -0.97318220 -1.32052942
  C  1.95676347 -0.89787427 -1.09744473
 Cl  2.39664032 -2.32707066 -0.05389341
  C  2.73496223 -1.09257649 -2.40622543
  F  4.05303401 -1.22112353 -2.21060657
  F  2.33349061 -2.17180245 -3.07922098
  F  2.57650676 -0.04265813 -3.22616743
  C  2.51318035  0.40852179 -0.38992067
  C  1.85189936  0.92953484  0.93644515
  C  0.40067913  0.57378180  0.63863185
  C -1.07116494  0.57601412  1.01317384
  H -2.30495273 -3.10963090  1.60529904
  H -2.11665112 -3.32338852 -0.12918478
  H -0.82481164 -2.53850447  0.78017364
  H -3.22991873  2.45944451 -0.21084704
  H -4.01742809  1.00425161  0.43300581
  H -4.44191967  1.63872150 -1.17758132
  H  2.42693471  1.20193785 -1.13647657
  H  3.57489568  0.21716726 -0.22202968
  H  2.24961184  0.40556405  1.80375577
  H  2.06660450  1.99372785  1.03025741
  H  0.32715582  0.97979875 -0.37228141
  H  0.55342976 -0.50204771  0.64551616
  H -1.28356636  0.06716681  1.95384237
  H -1.52808933  1.56135253  1.03365602
