24
opt_min/./Reactant_1707_0_opt.xyz
  C  2.67597879  1.90894117 -1.52333932
  O  1.39257767  1.53084269 -1.05093553
  C  1.36701651  0.38029505 -0.32010855
  O  2.38777224 -0.22606043 -0.10762399
  C  0.02702053 -0.04726387  0.08439544
  C -0.13184284 -1.44672954  0.51195176
  O -1.20077970 -1.98547007  0.74705271
  O  1.01571865 -2.10918042  0.62988997
  C  0.90818210 -3.46455327  1.03360981
  N -1.05808120  0.77616993  0.07357812
  C -0.87380877  2.21688448 -0.02380871
  C -2.30524636  0.36802505  0.20403986
  C -3.39521111  1.22426068  0.29212119
  N -4.34329354  1.87097999  0.39759329
  H  3.33401513  2.15049586 -0.68629910
  H  2.51777857  2.78231951 -2.15023367
  H  3.12595423  1.09651348 -2.09662741
  H  0.51906246 -3.52886988  2.05214949
  H  1.91511681 -3.86834512  0.98285686
  H  0.23592877 -4.01027398  0.36769880
  H -0.64405620  2.50260508 -1.04905316
  H -1.78964230  2.71706799  0.28722249
  H -0.05299039  2.53585261  0.61548519
  H -2.51696512 -0.68956191  0.28034934
