27
opt_min/./Reactant_837_1_opt.xyz
  C  4.60654373 -1.20087615  1.34172041
  N  3.23657616 -1.43002322  0.95487006
  C  2.36403185 -0.41357837  0.78923883
  O  2.62679940  0.77927157  0.90831417
  C  1.02721374 -0.70915270  0.45352758
  N -0.09397628 -0.47110021  0.13761405
  C -1.27651238 -0.07911948 -0.14662190
  C -2.33662280 -1.04410468 -0.53082262
  O -3.48533620 -0.74674873 -0.75341234
  N -1.89911117 -2.33896728 -0.57767661
  C -2.76850094 -3.41575811 -0.98381089
  C -1.58405828  1.38763525 -0.09752236
  O -2.68058997  1.82685869 -0.35081047
  N -0.53725917  2.16585195  0.27546396
  C -0.65768377  3.60182467  0.33683909
  H  5.28853210 -1.67080378  0.63167938
  H  4.77719708 -0.12516984  1.33973325
  H  4.79881114 -1.59098651  2.34326652
  H  2.92819272 -2.38488844  0.87110210
  H -0.92238131 -2.55788307 -0.47279827
  H -3.78860855 -3.03681767 -0.95557394
  H -2.54338993 -3.75122324 -2.00006843
  H -2.66923611 -4.25719900 -0.29721857
  H  0.37992699  1.78098670  0.44297766
  H -1.71734631  3.84911083  0.30618792
  H -0.21527309  3.97261274  1.26111623
  H -0.15617015  4.07710467 -0.51076763
