14
opt_min/./Reactant_154_0_opt.xyz
  C -2.28868300  0.93834900 -0.20716300
  O -0.88549356  0.86165082 -0.22283586
  C -0.36988208 -0.40054744 -0.32892663
  C  0.91303504 -0.69699112 -0.15693374
  O  1.87117102  0.20992003  0.20640913
  C  3.18545191 -0.14033716 -0.14265568
  H -2.53428434  1.99875873 -0.17098476
  H -2.72159947  0.49429269 -1.11145761
  H -2.70609135  0.43451533  0.67244063
  H -1.07501568 -1.18972601 -0.56373489
  H  1.24454785 -1.72211940 -0.27968315
  H  3.83366210  0.61980937  0.29215226
  H  3.31832379 -0.16228532 -1.23056992
  H  3.45777690 -1.12401263  0.26349746
