19
opt_min/./Reactant_3583_1_opt.xyz
  C -2.69415200 -1.52085400  0.01182200
  N -2.56252014 -0.09523708 -0.04011436
  N -1.40853248  0.40256144 -0.07081576
  C -1.41862522  1.86042680 -0.14483773
  N -0.32450013 -0.28266470  0.01149505
  C  0.92111656  0.25654734 -0.24561911
  O  1.16130203  1.30390373 -0.82011918
  N  1.88109049 -0.58996470  0.20162130
  C  3.28007881 -0.36715290 -0.05585175
  H -3.30895303 -1.76775194  0.87695108
  H -3.23083381 -1.84121402 -0.88168910
  H -1.73341880 -2.03300412  0.07201344
  H -0.90605593  2.17425787 -1.05315614
  H -0.88019976  2.27308860  0.70701528
  H -2.45463908  2.18804043 -0.14243719
  H  1.58947193 -1.46017919  0.61225423
  H  3.60508863 -0.86912532 -0.97277243
  H  3.43104293  0.70422407 -0.18074403
  H  3.87805198 -0.72632192  0.77946275
