18
opt_min/./Reactant_412_1_opt.xyz
  C  4.01586800  0.09224100 -0.73130100
  O  2.59377689  0.09227010 -0.75079030
  C  1.95595310 -0.02104454  0.42041375
  O  2.49805418 -0.12139928  1.49083721
  C  0.48852958 -0.00131340  0.20594537
  C -0.35576159 -0.10053791  1.23185001
  C -1.83270348 -0.08782742  1.10376882
  O -2.58690968 -0.16896855  2.03941502
  O -2.22580746  0.01938623 -0.17241735
  C -3.62549363  0.03981325 -0.42079775
  H  4.35470571  0.91422252 -1.36088765
  H  4.37642426 -0.85535540 -1.13404447
  H  4.37545163  0.21961790  0.29122124
  H  0.14328701  0.09584103 -0.81157959
  H  0.02685003 -0.19584008  2.23911634
  H -3.96505998  1.07369329 -0.50554155
  H -4.16055654 -0.45096425  0.39404992
  H -3.79048247 -0.48471860 -1.36032467
