28
opt_min/./Reactant_2184_1_opt.xyz
  N  3.30045293 -2.65829211 -0.79541991
  C  2.25042031 -2.21694531 -0.93443307
  C  0.96302155 -1.69198913 -1.17635734
  C  0.30957874 -2.31254506 -2.26969577
  N -0.20332363 -2.85155433 -3.14206432
  C  0.39501083 -0.69572187 -0.44009316
  C -0.90199908 -0.13151950 -0.83254469
  C -1.86818148  0.09518266  0.14809757
  C -3.10279127  0.60493140 -0.20106178
  C -3.38212077  0.91282609 -1.52342752
  C -2.41872720  0.71080692 -2.49899951
  C -1.18477966  0.18817133 -2.15852980
  C  1.02916607 -0.16061758  0.76349580
  C  1.70642531 -0.98123085  1.66476150
  C  2.29557301 -0.44478936  2.79527229
  C  2.22172522  0.91761996  3.03636248
  C  1.54701672  1.73960522  2.14726114
  C  0.94822196  1.20948407  1.02320833
  H -1.64836592 -0.15256573  1.17700982
  H -3.84841514  0.76360732  0.56396406
  H -4.34734167  1.31474732 -1.79037306
  H -2.62680269  0.96029133 -3.52772298
  H -0.43024736  0.05457751 -2.91943672
  H  1.74841935 -2.04472058  1.49549313
  H  2.81265277 -1.09365536  3.48638517
  H  2.68495483  1.33675263  3.91565175
  H  1.48648999  2.80288569  2.33328316
  H  0.43125614  1.85621872  0.32614723
