26
opt_min/./Reactant_1783_1_opt.xyz
  C  2.40512508 -2.10165649  2.13469107
  O  1.54520882 -1.15275914  1.52242679
  C  2.01604996 -0.54475882  0.43286896
  O  3.10218823 -0.75902818 -0.04085178
  C  1.00875861  0.42280564 -0.16151096
  C -0.05824400  0.82423248  0.71800565
  C -1.15848976  1.06990212  1.12776955
  C -2.54798546  1.42933771  0.99714932
  C -2.68095487  1.75167450 -0.50167865
  C -2.29402850  0.60509355 -1.45855650
  C -0.86628473  0.46760510 -2.05014742
  C  0.30272412 -0.26274773 -1.35424949
  H  3.32263029 -1.61740864  2.47458050
  H  1.85483810 -2.51142711  2.97743950
  H  2.66782158 -2.89028132  1.42654491
  H  1.56517023  1.30101102 -0.50940379
  H -3.18023631  0.57645903  1.25823138
  H -2.83151258  2.28737160  1.60906603
  H -3.72488214  2.01584294 -0.69847970
  H -2.06734698  2.62491228 -0.73123917
  H -2.91162355  0.77056090 -2.34697208
  H -2.60382053 -0.35326387 -1.03754910
  H -1.02703881 -0.14718555 -2.94208201
  H -0.52996201  1.44645055 -2.39878936
  H  1.06604193 -0.41465714 -2.12280425
  H -0.03942255 -1.24947876 -1.03302033
