29
opt_min/./Reactant_5394_0_opt.xyz
  C  1.89308004  3.30325792 -1.20048339
  N  1.91329575  1.86745475 -1.06840278
  C  0.78406722  1.14227447 -0.99660744
  O -0.33842135  1.59120479 -1.11206401
  C  1.00799144 -0.33981346 -0.87548062
  C  2.13980857 -0.89135957 -1.47233493
  N  3.09320472 -1.30328025 -1.97352096
  N  0.02403504 -1.11248747 -0.41919037
  C  0.03934629 -2.52694878 -0.74003721
  C -0.81540221 -0.64629338  0.54701089
  C -0.16981236  0.18888214  1.55447884
  C -0.93707627  0.45825263  2.81187100
  O  0.98586405  0.56635655  1.40170165
  C -2.20419828 -1.07196050  0.61062345
  C -2.88097735 -1.25762566 -0.73938028
  O -2.84582995 -1.18283413  1.63740691
  H  2.46954827  3.76504427 -0.39961396
  H  0.85639909  3.62751126 -1.13929667
  H  2.30847056  3.60725530 -2.16412678
  H  2.80245461  1.42109779 -0.90970511
  H -0.90358653 -2.98154856 -0.44872514
  H  0.21389024 -2.67131061 -1.80556691
  H  0.84457902 -3.01754635 -0.18848725
  H -1.25271094 -0.46959268  3.28029152
  H -1.83760685  1.01530831  2.56455713
  H -0.31471817  1.03324449  3.49163357
  H -2.21158155 -1.12392179 -1.58139789
  H -3.36825901 -2.22945765 -0.78279135
  H -3.66562947 -0.50621286 -0.80080969
