43
opt_min/./Reactant_2895_0_opt.xyz
  C -4.53591080 -0.48737171  1.25419683
  N -3.13516142 -0.55890841  0.91582522
  C -2.49251296 -1.72689430  0.76150753
  O -3.00842284 -2.81523950  0.87781769
  C -1.00699409 -1.56061800  0.35181141
  C -0.21058110 -2.53016382  1.21625156
  O  0.29944861 -2.22431733  2.26250561
  O -0.17003790 -3.74652712  0.68697384
  C  0.47706636 -4.74430743  1.46284964
  C -0.49604367 -0.22464782  0.50330206
  C  0.03010817  0.81466827  0.21510144
  C  0.81710558  1.72023575 -0.58820417
  C  1.97720257  2.32093236  0.20885323
  C  1.57957190  2.82517582  1.56634347
  O  3.09866257  2.38165813 -0.22374355
  C -0.09614423  2.80855207 -1.18121777
  C  0.58134370  4.06010922 -1.66459521
  O -1.28331826  2.63260864 -1.27112027
  C  1.32607573  0.84185454 -1.77660615
  C  1.56611168 -0.64644208 -1.44377520
  C  0.50306303 -1.70378518 -1.81771197
  C -0.90013873 -1.80614450 -1.17360670
  H -4.67190815 -0.27675110  2.31797011
  H -4.98769339 -1.45163808  1.02617464
  H -5.01690247  0.29543637  0.66994395
  H -2.62332715  0.30101200  0.77853728
  H  1.50171604 -4.44204575  1.69028833
  H -0.06117406 -4.90084397  2.39909876
  H  0.46890574 -5.65002190  0.86210017
  H  2.40961081  3.35484379  2.02727076
  H  1.30353771  1.97662572  2.19099161
  H  0.71251811  3.47821292  1.49065891
  H  0.33737107  4.21199926 -2.71530619
  H  0.17698128  4.91436401 -1.12358876
  H  1.65864446  4.02711011 -1.54238942
  H  2.28178326  1.27825980 -2.08182925
  H  0.64241570  0.92463716 -2.62450830
  H  1.84732044 -0.75109818 -0.39530864
  H  2.45457799 -0.93462748 -2.01406382
  H  0.32813651 -1.62573036 -2.89349368
  H  0.99831235 -2.66270529 -1.64258381
  H -1.27604088 -2.81300758 -1.36510044
  H -1.57413832 -1.10183840 -1.66774895
