28
opt_min/./Reactant_1968_1_opt.xyz
  C -1.97028300  3.05231000  0.95091400
  O -1.10323649  2.04847285  0.44281539
  C -1.21821419  0.83601751  1.01007424
  O -2.00473746  0.59815508  1.89452538
  C -0.31071606 -0.16816814  0.44048918
  C  0.81975824 -0.07548580 -0.28700454
  C  1.66810415  1.04577718 -0.72789760
  C  1.91606932  2.14222769  0.27563553
  O  2.18464965  1.03586682 -1.82250068
  C  1.15331933 -1.48374334 -0.74177528
  C  0.06182664 -1.84693368 -1.77618931
  C -1.20843361 -1.95571396 -0.91872038
  C -0.68880634 -1.63031635  0.50407523
  C  0.69041193 -2.28977863  0.47212569
  H -1.80219789  3.93726270  0.34271308
  H -3.00988134  2.72716147  0.87623683
  H -1.74036589  3.25570110  1.99904284
  H  1.08924600  2.84624027  0.22042965
  H  1.95925103  1.74212876  1.28508971
  H  2.83700324  2.66372408  0.03128331
  H  2.16818772 -1.61434244 -1.10320398
  H  0.30858799 -2.80053967 -2.24220859
  H -0.00617815 -1.09227780 -2.55697962
  H -1.98830958 -1.26065581 -1.22711578
  H -1.62516046 -2.96215479 -0.94314746
  H -1.37549172 -1.88878690  1.30340820
  H  0.65078363 -3.36202149  0.29275270
  H  1.27980048 -2.09160717  1.36690246
