42
opt_min/./Reactant_3178_0_opt.xyz
  C -2.72932965 -2.05934581 -2.72837034
  O -2.19599651 -1.49176199 -1.53781341
  C -3.07873253 -0.92560486 -0.71585767
  O -4.25926071 -0.88357279 -0.92641712
  C -2.39831409 -0.35485940  0.53210328
  C -3.36203972  0.68230440  1.12120457
  O -3.24632884  1.86680768  0.97322417
  O -4.33493027  0.08799291  1.80168844
  C -5.35547770  0.93017157  2.32351377
  C -1.10724681  0.20921746  0.21161780
  C  0.08815449  0.29443163  0.15174374
  C  1.47766965 -0.03668672  0.30114614
 Br  2.13245243  0.83608992  2.01387892
  C  2.34504751  0.45997013 -0.82167934
  C  3.07283992 -0.37838083 -1.65338997
  C  3.80978800  0.14604376 -2.70275369
  C  3.82805131  1.51060832 -2.92837244
  C  3.10906066  2.35411553 -2.09890586
  C  2.37017610  1.83381828 -1.05419734
  C  1.49040255 -1.55214261  0.55653122
  C  0.50108594 -2.07947129  1.61700021
  C -0.93253585 -2.43622290  1.15812716
  C -2.08875365 -1.49381738  1.54192918
  H -3.30082737 -1.31155187 -3.28034011
  H -1.87663422 -2.39643100 -3.31166090
  H -3.38577696 -2.89725602 -2.48547657
  H -6.09599371  1.12965289  1.54715928
  H -4.92843425  1.87463572  2.66634884
  H -5.81351590  0.38977811  3.14841815
  H  3.08737193 -1.44456512 -1.48855616
  H  4.37050856 -0.51745035 -3.34362995
  H  4.40449717  1.91362757 -3.74776590
  H  3.12301834  3.42119406 -2.26245313
  H  1.80961322  2.49577989 -0.41031021
  H  2.50423319 -1.82188636  0.86496766
  H  1.26631583 -2.06953785 -0.37975428
  H  0.94667885 -3.01324428  1.96853711
  H  0.46603444 -1.40430572  2.47277764
  H -1.17907746 -3.38682146  1.63753234
  H -0.93484829 -2.60871034  0.08173045
  H -3.00177538 -2.08389293  1.65078435
  H -1.87243254 -1.03955342  2.51084647
