21
opt_min/./Reactant_4518_0_opt.xyz
  C  3.85027700 -0.24217900  0.10017000
  N  2.43798421 -0.42343154  0.30640165
  C  1.50670186  0.13522579 -0.49296508
  O  1.75637571  0.79125493 -1.48634237
  N  0.24461162 -0.12037975  0.04645675
  N -0.85702729  0.02892509 -0.55734179
  C -0.97399840  0.20695964 -2.00424972
  N -1.91130789  0.02425812  0.15601866
  C -3.15903787 -0.32385896 -0.27168788
  C -4.23419705  0.22388128  0.62687227
  O -3.36730632 -1.07345935 -1.20509678
  H  4.28572862  0.37801150  0.88758221
  H  4.35812404 -1.20810415  0.08283487
  H  3.98060423  0.25596994 -0.86067571
  H  2.11153855 -0.87590017  1.14561782
  H -0.01413665  0.50455172 -2.42199247
  H -1.72758533  0.96644012 -2.21259428
  H -1.31629846 -0.73690474 -2.43367740
  H -4.92545310 -0.57260290  0.89295378
  H -3.79716843  0.66188336  1.51757990
  H -4.79199605  0.98356392  0.08011885
