20
opt_min/./Reactant_4496_0_opt.xyz
  C  3.34427601  0.18610212  0.87941393
  N  1.92680747  0.18251289  0.68369043
  O  1.63754971 -0.27553080 -0.51991345
  C  0.42621633 -0.43707822 -0.98194567
  C  0.41763879 -0.92857715 -2.30292070
  N  0.39661383 -1.33303459 -3.37808096
  C -0.83646038 -0.18464590 -0.31789904
  C -0.90202348  0.30132838  0.99355792
  C -2.12955807  0.52551946  1.58768260
  C -3.30443863  0.27535512  0.89834665
  C -3.24938432 -0.20556979 -0.40288462
  C -2.03307573 -0.43466063 -1.00846472
  H  3.60886388  1.14061886  1.33208972
  H  3.61106128 -0.61111794  1.57765671
  H  3.89117937  0.04140534 -0.05465815
  H  0.00637063  0.50018560  1.53855326
  H -2.16862399  0.90020444  2.59971715
  H -4.26077036  0.45247117  1.36722201
  H -4.16189083 -0.40198212 -0.94531635
  H -1.99165010 -0.80885669 -2.02054324
