29
opt_min/./Reactant_5384_1_opt.xyz
  C  1.66237975  1.88194999 -1.99609058
  C  1.37020313  0.79768335 -0.99917244
  N  0.14102841  0.43019241 -0.85887276
  C -0.99237239  0.13790366 -0.69228692
  C -2.30801538 -0.17795262 -0.46849543
  C -2.65436163 -1.23256585  0.40244978
  C -3.97711910 -1.54354426  0.61765682
  C -4.98791977 -0.83230408 -0.01526835
  C -4.65456989  0.20602605 -0.87248022
  C -3.34110691  0.54092388 -1.10722759
  C  2.39159747  0.20014642 -0.17833589
  C  2.10349232 -0.92544846  0.61135944
  C  3.06804974 -1.49024013  1.41728418
  C  4.34707006 -0.95699485  1.46480654
  C  4.64582742  0.15219362  0.69119135
  C  3.68882982  0.72662273 -0.11970179
  H  1.76738790  2.85337576 -1.50598370
  H  2.59775811  1.66832932 -2.51137196
  H  0.86135295  1.95316720 -2.72745981
  H -1.86903376 -1.78452511  0.89668207
  H -4.22693605 -2.35518228  1.28574639
  H -6.02172067 -1.08583543  0.15941934
  H -5.43693338  0.76676552 -1.36448414
  H -3.08301943  1.34985681 -1.77324766
  H  1.11314389 -1.35657906  0.57951586
  H  2.82482738 -2.35769673  2.01462310
  H  5.10012745 -1.40081846  2.09814505
  H  5.63804927  0.57991542  0.72429055
  H  3.93883132  1.59893883 -0.70287464
