25
opt_min/./Reactant_1274_0_opt.xyz
  C  2.81587400  1.37013800 -1.68245500
  C  1.36419060  1.60900604 -1.45931376
  O  0.75971456  0.82003022 -0.65239680
  C -0.47103150  0.68255779 -0.18895081
  C -1.55929377  1.62308724 -0.35599800
  C -1.24150488  3.02820923 -0.84292968
  O -2.71565852  1.33617150 -0.08067269
  C -0.64141401 -0.56899564  0.55938846
  C -1.61165421 -0.71478706  1.55321177
  C -1.73167703 -1.90132281  2.24990934
  C -0.88557087 -2.96529171  1.98385160
  C  0.08433624 -2.83156900  1.00407034
  C  0.20359838 -1.65087062  0.29859363
  H  3.42300538  2.13909758 -1.19957083
  H  3.04358949  1.39553888 -2.74704549
  H  3.10243953  0.40449817 -1.27251777
  H  0.88463307  2.41871307 -1.98675441
  H -1.14978509  3.04008099 -1.92845813
  H -0.33220252  3.41556489 -0.38858519
  H -2.08171466  3.66512533 -0.57463711
  H -2.27562172  0.10473523  1.77102636
  H -2.49027479 -1.99267138  3.01354966
  H -0.98129784 -3.89177198  2.53076175
  H  0.74801189 -3.65462697  0.78079004
  H  0.95618049 -1.57246147 -0.47393354
