26
opt_min/./Reactant_2287_1_opt.xyz
  C  0.83544800  1.85654300  1.35791100
  C  1.13786625  0.54888457  0.73239001
  C  0.36661820 -0.38232259  0.16205243
  C -1.05890592 -0.42192068 -0.10866419
  C -1.78190851 -1.60112504  0.07385087
  C -3.14095804 -1.63377502 -0.17266902
  C -3.79865943 -0.49590026 -0.61214095
  C -3.08674242  0.67555789 -0.80660771
  C -1.72735478  0.71674560 -0.55829304
  C  1.35689230 -1.50018207 -0.23537501
  C  2.15451858 -0.90084078 -1.39570143
  C  2.91654391  0.02498463 -0.83459279
  C  2.56411229 -0.03363296  0.65357644
  O  2.30228167 -1.41709658  0.81796133
  H  1.23989134  2.66738123  0.74960747
  H  1.29979808  1.91858239  2.34086604
  H -0.23801799  1.99244500  1.45654808
  H -1.27459489 -2.48454535  0.43165715
  H -3.69187629 -2.54987730 -0.02121610
  H -4.86059562 -0.52546063 -0.80421877
  H -3.59425198  1.56264143 -1.15765637
  H -1.17306567  1.62620543 -0.73637533
  H  0.96511801 -2.50435930 -0.35857880
  H  2.05015042 -1.18384955 -2.42257510
  H  3.60996262  0.70785976 -1.28030295
  H  3.29812910  0.33187764  1.36502200
