31
opt_min/./Reactant_5534_0_opt.xyz
  C -4.21763400  0.13337500 -1.58967400
  N -2.87887151 -0.07709714 -1.09172602
  C -2.55051766 -1.22474923 -0.44069176
  O -3.36937616 -2.09841987 -0.20778545
  C -1.15205104 -1.32357108  0.00956395
  C -0.69459491 -2.58442188  0.65412045
  O -0.42864006 -0.24957975 -0.11860229
  C  0.83978901 -0.03125459  0.14888714
  C  1.34838784  1.32071485 -0.13172847
  O  2.51687293  1.53003775 -0.40338763
  N  0.40586076  2.30129606 -0.09925312
  C  0.74048648  3.67615179 -0.38305150
  C  1.82853919 -1.03694591  0.66048394
  O  2.24436812 -1.03571174  1.79740601
  N  2.19611193 -1.95774795 -0.27062892
  C  3.25813402 -2.90142315  0.00808048
  H -4.35993723  1.18596246 -1.81950293
  H -4.39714520 -0.46129909 -2.48981762
  H -4.93326425 -0.18310618 -0.83067179
  H -2.17045987  0.60010835 -1.31844699
  H -0.06768534 -2.36760844  1.51879027
  H -0.11908772 -3.20913444 -0.03175396
  H -1.57777960 -3.14245681  0.95806903
  H -0.52885306  2.09912925  0.21329594
  H  0.45807538  3.94792146 -1.40483837
  H  1.82003367  3.78554652 -0.28555224
  H  0.23634096  4.33735578  0.31943201
  H  1.98686718 -1.77811000 -1.23971789
  H  3.98902777 -2.90490268 -0.79831479
  H  3.73980783 -2.60140770  0.93822342
  H  2.85174878 -3.90821868  0.13191762
