33
opt_min/./Reactant_4811_1_opt.xyz
  C  4.47655000 -2.18673900  0.12038200
  O  3.72264177 -0.98837538  0.11112175
  C  2.38815526 -1.11770211  0.17219915
  O  1.81860694 -2.19516081  0.15503498
  C  1.70666815  0.15652393  0.29271385
  N  0.33603791  0.19734137  0.22430880
  C -0.50383567 -0.49889105 -0.50680501
  C -0.04365179 -1.29531569 -1.67414195
  C -1.91871536 -0.42429086 -0.17457037
  C -2.31775622 -0.11339439  1.13411277
  C -3.65434365 -0.03609579  1.47061676
  C -4.63048284 -0.27289255  0.51640832
  C -4.25508764 -0.59922144 -0.77706148
  C -2.92010434 -0.67734923 -1.11987993
  C  2.35839672  1.33294816  0.80733489
  O  3.53034435  1.49097361  1.04917930
  O  1.43340098  2.34126353  1.01209111
  C  1.94924406  3.55649129  1.52450231
  H  4.68716226 -2.48720967  1.14966256
  H  3.92341854 -2.98721432 -0.37722179
  H  5.40589141 -1.97373534 -0.40251322
  H -0.07377001  0.91149672  0.82704031
  H -0.62442478 -1.02187099 -2.55431936
  H  1.00389304 -1.10720584 -1.88055220
  H -0.17380234 -2.36067065 -1.49198815
  H -1.57507045  0.02446074  1.90654675
  H -3.93796725  0.20041409  2.48532213
  H -5.67538207 -0.21409923  0.78009297
  H -5.01007178 -0.79237510 -1.52441006
  H -2.65462334 -0.92021030 -2.13590930
  H  1.14852239  4.02413679  2.09391880
  H  2.25525542  4.20663391  0.70198277
  H  2.81332846  3.35704839  2.16082422
