43
opt_min/./Reactant_2816_0_opt.xyz
  C -4.90219811 -1.57493531 -1.12022628
  O -3.80306504 -1.37484394 -0.24209674
  C -2.84166234 -0.55423206 -0.67792986
  O -2.85591879 -0.01215580 -1.74768209
  C -1.74427221 -0.41531248  0.37399157
  C -2.28297402  0.39306181  1.55458317
  O -1.92334165  0.25770642  2.69200774
  O -3.17441381  1.29225543  1.14218081
  C -3.72288199  2.16610329  2.12095271
  C -0.58505011  0.26042596 -0.17858432
  C  0.54592042  0.40054505 -0.55434981
  C  1.85732532 -0.02417640 -1.02112570
  C  2.02572224  0.33146545 -2.42083849
  N  2.20860058  0.59837061 -3.51657425
  C  2.98327394  0.66920823 -0.27093472
  C  2.82925004  2.01041779  0.06109773
  C  3.84011736  2.68761423  0.71718422
  C  5.01601447  2.03349449  1.04283056
  C  5.17653157  0.70197153  0.70536874
  C  4.16750423  0.01998359  0.04603103
  C  1.80452769 -1.57263567 -0.86497961
  C  0.46175246 -2.19685512 -1.30687999
  C -0.56544171 -2.66900023 -0.25549033
  C -1.16568991 -1.76530473  0.83965513
  H -4.54583727 -1.87895496 -2.10687703
  H -5.47310665 -0.64946889 -1.22371969
  H -5.51228258 -2.35437314 -0.67105214
  H -4.61919912  1.71496456  2.55213948
  H -3.97650702  3.09117684  1.60667842
  H -2.99359720  2.34843012  2.91301300
  H  1.90988636  2.51998710 -0.19231368
  H  3.70943255  3.72866454  0.97276764
  H  5.80642298  2.56117838  1.55493559
  H  6.09402955  0.18720988  0.95188465
  H  4.31375277 -1.01542702 -0.21989654
  H  2.01921366 -1.83061415  0.17286681
  H  2.58925541 -2.00437128 -1.48799277
  H -0.02417482 -1.53897986 -2.02919054
  H  0.70958581 -3.11126623 -1.85659831
  H -0.12787470 -3.51480087  0.28456305
  H -1.40443192 -3.05317140 -0.84469688
  H -1.96758484 -2.35292004  1.29900546
  H -0.42784014 -1.54915417  1.61587938
