29
opt_min/./Reactant_1354_1_opt.xyz
  C  5.08280600  0.23752800 -0.91451900
  N  3.67343697  0.04366574 -0.65497579
  C  3.28133770 -0.72508298  0.40771111
  O  4.06180504 -1.17574539  1.21831037
  C  1.82849100 -0.92120399  0.53341929
  O  1.36351684 -1.99592912  1.17235432
  C -0.03154256 -1.91483367  1.24113911
  O -0.69623565 -2.77315917  1.76837251
  C -0.36828968 -0.69587276  0.57639893
  C -1.70692623 -0.19539727  0.35901455
  C -2.69294526 -0.49861438  1.30529866
  C -3.98830860 -0.05645542  1.13406218
  C -4.33223094  0.69400198  0.02008504
  C -3.37152550  0.97801502 -0.93524994
  C -2.07145830  0.53634971 -0.77420074
  N  0.80593982 -0.13229921  0.17192039
  C  0.94595138  1.20449241 -0.34987611
  H  5.22947906  1.18870426 -1.42429583
  H  5.59931467  0.24377435  0.04362883
  H  5.49885645 -0.56876307 -1.52569620
  H  3.06177037  0.15161479 -1.44785388
  H -2.42366430 -1.09091232  2.16412631
  H -4.73702778 -0.29776509  1.87461833
  H -5.34441185  1.04438031 -0.11123085
  H -3.63857888  1.54015283 -1.81846131
  H -1.35383090  0.72624192 -1.55804415
  H  1.86353977  1.64936073  0.03351631
  H  0.97484260  1.20357003 -1.44135522
  H  0.09022552  1.79776239 -0.02553410
