34
opt_min/./Reactant_2136_1_opt.xyz
  C -1.33552300 -2.30641600  2.43617200
  O -1.12880859 -1.98849692  1.06694127
  C -1.13547242 -0.66040287  0.74901802
  O -2.23629436  0.06402857  1.12659920
  C -3.49751678 -0.50721468  0.82350832
  C -0.12384030 -0.07476572  0.08777962
  C  1.14739872 -0.77571541 -0.16503659
  C  1.83320166 -1.44475275  0.84273446
  C  3.03037282 -2.08344744  0.57633432
  C  3.56281942 -2.05993420 -0.70110155
  C  2.89392773 -1.38675724 -1.71053241
  C  1.69843910 -0.74754651 -1.44462708
  C -0.22358037  1.30047650 -0.43258759
  C -1.35487046  1.75604447 -1.10314793
  C -1.40304721  3.04364771 -1.60265109
  C -0.32443477  3.89722224 -1.44360977
  C  0.80922585  3.45142388 -0.78480777
  C  0.86141396  2.16237703 -0.28846104
  H -1.94146833 -3.21367423  2.47770927
  H -1.84452518 -1.49719463  2.96531320
  H -0.37294707 -2.49353983  2.92158061
  H -4.23170060  0.26739159  1.04233331
  H -3.71015750 -1.39197410  1.43084358
  H -3.55985125 -0.78620693 -0.23265909
  H  1.43854524 -1.44718281  1.84762137
  H  3.55440235 -2.59740196  1.36937427
  H  4.49740375 -2.55889207 -0.91177408
  H  3.31129981 -1.36250383 -2.70687181
  H  1.17548391 -0.22243565 -2.23094847
  H -2.19492424  1.09441898 -1.24851332
  H -2.28429450  3.38504255 -2.12696643
  H -0.36576030  4.90272096 -1.83629931
  H  1.65704343  4.10909107 -0.65802814
  H  1.74774121  1.81649159  0.22417168
