22
opt_min/./Reactant_4550_0_opt.xyz
  C  3.93147019 -0.87620150 -0.73089154
  C  2.43124271 -0.70873115 -0.79914754
  O  1.73525676 -1.27958187 -1.62095713
  C  1.87819347  0.18454865  0.19984036
  C  2.64097035  0.87664367  1.14124626
  N  3.27316173  1.43559357  1.92233114
  N  0.57830880  0.36415357  0.21969648
  C -0.58125123  0.41183132  0.09066754
  C -1.96914320  0.50221128 -0.05317101
  C -2.80791707 -0.41049901  0.59884507
  C -4.17559757 -0.31901718  0.43157736
  C -4.71478517  0.67208891 -0.37380524
  C -3.88737946  1.57884313 -1.02128866
  C -2.51792281  1.50184021 -0.86777726
  H  4.14886136 -1.80422691 -0.20217462
  H  4.40913045 -0.05317852 -0.20599797
  H  4.32341432 -0.96373816 -1.74070511
  H -2.37975015 -1.17891017  1.22326220
  H -4.82441622 -1.02162384  0.93147790
  H -5.78477226  0.74241189 -0.50227799
  H -4.31600388  2.34707465 -1.64993733
  H -1.86620338  2.20077274 -1.37021805
