21
opt_min/./Reactant_567_0_opt.xyz
  C -1.93493889 -0.26925746 -1.24344683
  N -1.83204603  0.67781979 -0.13765959
  N -2.88910131  1.27222918  0.27745117
  C -0.64324505  0.99207912  0.37821901
  C -0.55984776  2.07844384  1.26122875
  N -0.39849122  2.96341253  1.97651243
  C  0.59912373  0.26041949  0.12168920
  C  0.66144348 -1.13678052  0.14631124
  C  1.86375914 -1.78145257 -0.07771375
  C  3.01820682 -1.05800094 -0.31720201
  C  2.97372906  0.32861670 -0.31194162
  C  1.77642467  0.98030822 -0.09059647
  H -2.51342601 -1.14046344 -0.92924446
  H -0.95705455 -0.59181400 -1.59108336
  H -2.46944970  0.21479478 -2.06226050
  H -3.71315972  0.99968088 -0.25059302
  H -0.22298186 -1.70925583  0.38375078
  H  1.89942277 -2.86156365 -0.05475328
  H  3.95406650 -1.56542859 -0.49214138
  H  3.87263823  0.89916395 -0.48178297
  H  1.74311713  2.05984802 -0.08491782
