25
opt_min/./Reactant_2391_1_opt.xyz
  C -1.45257494 -1.09143572  1.92145305
  C -0.93062128 -1.46262744  0.53609532
 Cl -1.26358496 -3.22286454  0.23492927
  C  0.46782258 -1.16843372  0.38762304
  C  1.45579317 -0.58698467  0.03623104
  C  2.28322551  0.45895754 -0.53611719
  C  3.36838420  0.83686687  0.35261147
  N  4.20001399  1.12833448  1.07783245
  C  2.83495459  0.03175342 -1.81092583
  N  3.25263709 -0.29666169 -2.82087292
  C  1.30134644  1.65377640 -0.73873657
  C -0.01136236  1.31950353 -1.47400855
  C -1.25439382  0.84440033 -0.68033765
  C -1.58806494 -0.66080715 -0.60696705
  H -2.50743953 -0.83358853  1.87131958
  H -0.89765293 -0.24203020  2.31455462
  H -1.33031928 -1.92451534  2.60836075
  H  1.07666974  2.08090889  0.24173249
  H  1.83306986  2.41151319 -1.32186560
  H -0.30916386  2.27283799 -1.91983671
  H  0.18434918  0.63442869 -2.30134652
  H -2.10268455  1.27448724 -1.21954442
  H -1.25621079  1.29063408  0.31456178
  H -1.31688461 -1.11993081 -1.56006599
  H -2.66897202 -0.76491110 -0.48741622
