29
opt_min/./Reactant_639_1_opt.xyz
  C  0.58879570 -2.01756006  4.46121102
  N  0.18436567 -0.85670371  3.71170707
  C  0.21704990 -0.82274554  2.35272637
  O  0.59865375 -1.78925750  1.69903762
  C -0.23112053  0.44418746  1.77364080
  C -0.58417064  1.46707635  2.64300792
  N -0.87671383  2.28991164  3.40059750
  N -0.32168837  0.67732012  0.42466949
  C -0.74326853  2.02204661  0.06433746
  C -0.00212964 -0.20009917 -0.49741370
  C -0.18895407 -0.09031249 -1.92196357
  C -1.29287946  0.52381957 -2.52871651
  C -1.41769744  0.54549788 -3.90412106
  C -0.45293140 -0.03874163 -4.70894162
  C  0.62876602 -0.67950532 -4.12285470
  C  0.75359703 -0.71692571 -2.75047340
  H  1.41964462 -1.77708384  5.12751422
  H -0.24241665 -2.40564637  5.05368760
  H  0.90623183 -2.77369171  3.74570294
  H -0.13362890 -0.04818299  4.22140955
  H -0.22518809  2.74221761  0.69748360
  H -1.81441929  2.14636203  0.22611425
  H -0.50111542  2.22432323 -0.97568688
  H  0.44969765 -1.11314797 -0.13034256
  H -2.08647454  0.93735397 -1.92488953
  H -2.27978497  1.01805668 -4.35167231
  H -0.55263926 -0.01026864 -5.78311072
  H  1.37351104 -1.15639122 -4.74255883
  H  1.59231927 -1.22047754 -2.29489861
