12
opt_min/./Reactant_1354_0_opt.xyz
  C  1.89299600  0.15459400 -0.07900000
  C  0.42900577  0.30774043 -0.30940171
 Cl  0.03092876  1.43141353 -1.56484678
  C -0.55498839 -0.32789275  0.32433497
  C -2.02322493 -0.17592497  0.09658807
 Cl -0.16649337 -1.45021630  1.58508456
  H  2.08272916 -0.38538427  0.84236773
  H  2.37318280  1.12797099 -0.02336765
  H  2.35307457 -0.38955606 -0.90206960
  H -2.50744938 -1.14752615  0.13089841
  H -2.21115936  0.29642380 -0.86174789
  H -2.45809547  0.44682234  0.87640909
