19
opt_min/./Reactant_957_1_opt.xyz
  C  3.64588500  0.09012500 -0.26908800
  O  2.27956281  0.45406222 -0.11747544
  C  1.43307789 -0.50725661  0.26566634
  O  1.73668188 -1.65719113  0.46430241
  C  0.05942384  0.00131211  0.35106542
  C -0.49846369  1.18155648  0.06825274
  F  0.02620446  2.29150747 -0.41748050
  C -1.99679656  1.02634310  0.33986526
  C -2.48824849  0.09307532 -0.77747646
  C -1.95737306 -1.08307436 -0.48653074
  C -1.14786496 -0.84507242  0.79349164
  O -1.94811569  0.13402698  1.43678285
  H  4.04547922  0.70251010 -1.07536929
  H  4.18567884  0.29356234  0.65739315
  H  3.72924344 -0.97123068 -0.50981626
  H -2.56348139  1.92713324  0.54941767
  H -3.10930031  0.39576106 -1.59468212
  H -2.02488989 -2.01707434 -1.00398056
  H -0.93256131 -1.69598596  1.42862365
