27
opt_min/./Reactant_1886_0_opt.xyz
  C -3.66622700 -2.41831600  0.05902700
  N -2.66876758 -1.37829857  0.15097670
  C -1.39998923 -1.57368646 -0.29741438
  O -1.04704483 -2.60133336 -0.86353144
  C -0.42760795 -0.49080164 -0.06056654
  N  0.83016951 -0.89101821 -0.23461641
  C  1.98851739 -0.28808173 -0.09785930
  C  3.17275559 -1.06153853 -0.41117744
  C  4.48771897 -0.34791635 -0.23131312
  O  3.08724237 -2.21983343 -0.78932290
  C -0.72634596  0.88078896  0.38384857
  O  0.04283663  1.54651641  1.05885575
  N -1.93942865  1.36261891 -0.02434429
  C -2.33512277  2.72473962  0.24706653
  H -4.54097482 -2.05922641 -0.48736245
  H -3.97495527 -2.75366737  1.05048684
  H -3.22176858 -3.25137748 -0.48369714
  H -2.84025623 -0.61596088  0.78756226
  H  0.88949969 -1.86921378 -0.57708299
  H  2.01945473  0.72620052  0.26023781
  H  5.27294888 -0.87521944 -0.76661069
  H  4.42261895  0.68167208 -0.57194791
  H  4.73758428 -0.34131781  0.82958958
  H -2.41682390  0.87960897 -0.77039048
  H -2.32608074  3.33075135 -0.66115129
  H -1.62030795  3.13323527  0.96033282
  H -3.33614421  2.74727566  0.68145969
