30
opt_min/./Reactant_3197_0_opt.xyz
 Br -3.22016066  1.51297060  2.51788403
  C -2.40810917  0.01833787  1.50905134
 Br -2.47279481 -1.59306534  2.65882300
  C -1.07209835  0.29275152  1.12079495
  C -0.15973778  0.36886572  0.34569000
  C  0.65559075  0.31681085 -0.82275199
 Br  0.26325717  1.97216469 -1.90021904
  C  2.13073429  0.31511131 -0.49792995
  C  2.97281901 -0.71369759 -0.89566544
  C  4.31657086 -0.67967336 -0.55727709
  C  4.82661124  0.37444250  0.17742778
  C  3.98735635  1.40048785  0.57978134
  C  2.64859829  1.37177918  0.24332338
  C  0.07220788 -0.89314812 -1.56390147
  C -1.44789413 -0.89927169 -1.84133430
  C -2.56562394 -1.22545114 -0.81430444
  C -3.17031093 -0.22843273  0.19951672
  H  2.59747708 -1.54383783 -1.47284477
  H  4.96395300 -1.48312675 -0.87547628
  H  5.87449646  0.39899423  0.43480000
  H  4.37577852  2.22813644  1.15336944
  H  1.99530633  2.17528500  0.55545351
  H  0.33459529 -1.79221881 -0.99855032
  H  0.54805645 -0.95411402 -2.54828383
  H -1.72007345  0.01761029 -2.37406336
  H -1.55233649 -1.72463999 -2.55780884
  H -2.33985908 -2.17074162 -0.30945745
  H -3.41985583 -1.41502851 -1.47692007
  H -4.15436408 -0.63018619  0.46340037
  H -3.32941234  0.73236743 -0.29666476
