18
opt_min/./Reactant_2555_1_opt.xyz
  C  3.67410600  0.11307300 -0.06723100
  N  2.27957378 -0.24152280 -0.00919514
  C  1.30161914  0.68940697  0.07605474
  O  1.49085851  1.88798646  0.14188055
  C -0.03856210  0.07884561  0.09029431
  O -1.16928376  0.83851826  0.18723764
  C -2.18956528  0.05243075  0.17350671
  C -3.58129554  0.54016192  0.25164859
  O -1.86500798 -1.20581889  0.07477486
  C -0.41254804 -1.26929580  0.01225370
  O  0.16414522 -2.32255486 -0.08355276
  H  3.75510913  1.18020933  0.13860577
  H  4.09000754 -0.08843765 -1.05788285
  H  4.23703513 -0.44860048  0.67896251
  H  2.02056391 -1.21598874 -0.07572376
  H -3.57577419  1.58816001  0.53899303
  H -4.14364488 -0.04895251  0.97376673
  H -4.06997076  0.43658258 -0.71823555
