22
opt_min/./Reactant_3544_1_opt.xyz
  C -2.35078900  1.90699100  0.53541600
  N -1.38456174  0.83170703  0.51867279
  C -1.53628290 -0.23133955 -0.32323970
  O -2.43776912 -0.30058999 -1.13853439
  C -0.54116429 -1.31931444 -0.16211936
  C -0.98160301 -2.70836241 -0.49396380
  O  0.69127650 -1.19067374  0.19082428
  C  1.43877660 -0.12792093  0.37862811
  C  2.81202618 -0.35192980  0.75057703
  C  3.65571910  0.90328041  0.86235075
  O  3.26814663 -1.46318039  0.96530559
  H -1.92842672  2.80799493  0.08440015
  H -2.65797759  2.12732021  1.55570954
  H -3.21351531  1.59486412 -0.05299834
  H -0.78029869  0.75160164  1.32020336
  H -0.32008953 -3.42701283 -0.01771489
  H -0.94402756 -2.86310584 -1.57312078
  H -2.00980961 -2.86437315 -0.18106724
  H  1.05739867  0.86685954  0.19656122
  H  3.93293007  1.04302544  1.90454363
  H  3.13024245  1.78244954  0.50646944
  H  4.57174757  0.76513007  0.29607685
