23
opt_min/./Reactant_1293_0_opt.xyz
 Br  0.74345000  2.75387600 -1.24204200
  C  1.18287242  0.97866966 -0.89478832
  C  0.43936158 -0.03978444 -0.44526457
  C -0.95761517 -0.14503874 -0.07484023
  C -1.66980127 -1.31307718 -0.35862482
  C -3.00614922 -1.40835543 -0.02334160
  C -3.64906827 -0.35387674  0.60608897
  C -2.94509835  0.80136566  0.89953620
  C -1.60777596  0.91112380  0.56188952
  C  1.46388650 -1.19510446 -0.37994054
  C  2.37433629 -0.83078281  0.79642796
  C  3.09514484  0.19146728  0.36397058
  C  2.60430856  0.42689137 -1.06906409
  O  2.30802561 -0.89462773 -1.48094609
  H -1.17724207 -2.12977822 -0.86589848
  H -3.55127122 -2.31024518 -0.25585969
  H -4.69297676 -0.43423050  0.86640994
  H -3.43824416  1.62340072  1.39441179
  H -1.06136773  1.80686366  0.81027088
  H  1.08104237 -2.20948406 -0.42345599
  H  2.36979118 -1.31460960  1.75056231
  H  3.83576471  0.78423479  0.85869873
  H  3.25620689  0.94550827 -1.76577095
