28
opt_min/./Reactant_2785_0_opt.xyz
  C -4.21089200  2.11393200  0.06188000
  O -3.42403267  0.96339687 -0.20328494
  C -2.11496310  1.09983084 -0.03295680
  O -1.57506739  2.12140430  0.36400103
  C -1.32032434 -0.09943226 -0.32042802
  N -0.01678480  0.12925828 -0.08678653
  C  1.09917960 -0.47321657 -0.44098963
  C  1.15532872 -1.67616915 -1.31153224
  C  2.36372623  0.15097770 -0.04718858
  O  3.45497800 -0.24010194 -0.39205168
  O  2.17618552  1.21770550  0.76306681
  C  3.35234308  1.90149822  1.16942358
  C -1.97635324 -1.37981589 -0.60387584
  C -1.43524510 -2.58099170  0.15000440
  O -2.95322796 -1.47171636 -1.31418425
  H -3.99712345  2.89621706 -0.66972598
  H -5.24654000  1.79387163 -0.01581380
  H -3.99853147  2.50003321  1.06144037
  H  0.09342881  1.06340867  0.34984691
  H  0.28934570 -1.70197563 -1.97045829
  H  1.18697537 -2.59911679 -0.73246610
  H  2.07182130 -1.63154415 -1.89689109
  H  3.94063420  1.27390618  1.84192693
  H  3.01675243  2.79989606  1.68073174
  H  3.96308047  2.15448633  0.30075638
  H -2.28002737 -3.06821200  0.63376107
  H -1.00888012 -3.30225389 -0.54396065
  H -0.69698936 -2.30563294  0.89652241
