36
opt_min/./Reactant_3091_0_opt.xyz
  C  2.46202713  4.14348263 -2.66938892
  O  3.39736397  3.34034189 -1.85818380
  C  3.41372783  2.07757850 -1.89766208
  O  2.84507544  1.17846998 -2.43936269
  C  0.21016854  1.26175063 -1.20133386
  F  0.51046742  2.52059780 -1.28264253
  C -0.04822079  0.11483272 -0.90161081
  C -0.21769445 -1.23201645 -0.73811079
  C -1.09930672 -1.86415430  0.27860152
  C -1.61395196 -0.92984721  1.37065168
  C -0.58252512 -0.03016241  2.00112395
  O -2.75533981 -0.95550820  1.75647958
  C -2.21707745 -2.39270175 -0.65345100
  C -3.23679084 -1.37553963 -1.07202167
  O -2.21120079 -3.53189946 -1.04525081
  C -0.43358402 -3.04800752  1.03901921
  C  0.79652866 -3.61881527  0.34030831
  C  1.92664992 -2.63696230  0.28818917
  C  2.77904959 -2.48365440 -0.70959120
  H  3.06828802  4.79609087 -3.29311672
  H  1.85622721  4.72108728 -1.97671572
  H  1.84431422  3.48662328 -3.27687136
  H -0.77252878  0.98660662  1.66049427
  H  0.43063347 -0.30474554  1.72940313
  H -0.70916839 -0.03888739  3.08214916
  H -3.77145501 -1.72940284 -1.94997582
  H -2.77563757 -0.41113916 -1.26889859
  H -3.94388225 -1.25114569 -0.25195244
  H -1.18609732 -3.82957522  1.15705692
  H -0.14614707 -2.71196283  2.03850505
  H  1.13049320 -4.48939870  0.91508738
  H  0.52881553 -3.97116219 -0.65604184
  H  2.05576735 -2.04581266  1.18746347
  H  0.19681583 -1.84132668 -1.48808756
  H  2.70423300 -3.05554409 -1.61984618
  H  3.58289239 -1.77036068 -0.65995445
