24
opt_min/./Reactant_235_0_opt.xyz
  C  4.03938200 -0.68305800  0.07092400
  N  2.74463370 -0.37921621 -0.48332278
  C  1.63101991 -0.31189958  0.29552526
  O  1.67142436 -0.58767303  1.51003668
  C  0.37663477  0.04681474 -0.30994291
  C  0.20323552  0.47969885 -1.73167498
  N -0.60127412  0.01354476  0.61887250
  C -1.89808004  0.13137505  0.69096970
  C -2.55057710  0.01453489  2.03078670
  C -2.78856468  0.41585478 -0.48056969
  H  4.56995731  0.22612855  0.37467770
  H  4.64060143 -1.22112044 -0.65994175
  H  3.89426814 -1.30126321  0.95453225
  H  2.68216802 -0.17089502 -1.46325372
  H  1.08083862  1.02815361 -2.06881350
  H -0.64733023  1.14457028 -1.82215040
  H  0.05135753 -0.36232959 -2.41301181
  H -0.09545832 -0.23566381  1.49988504
  H -1.81769114 -0.16323797  2.81308740
  H -3.26553225 -0.81026587  2.03333737
  H -3.10037857  0.92370900  2.27316332
  H -2.87464683  1.49280426 -0.64703897
  H -2.41511478 -0.04628901 -1.38967727
  H -3.78621510  0.03207316 -0.28541733
