17
opt_min/./Reactant_581_1_opt.xyz
  N  5.06744561  1.59109404  0.84099887
  C -4.24927842 -0.78451446  0.71912865
  C -5.93106402 -2.65386068 -1.45361640
  N -17.53924139 -12.05665381  4.12341596
  C  5.16619110 -14.60807605  5.07870051
  C  15.17416452 -8.31902335  15.98902898
  C -11.11605181  0.57231986 -13.13724400
  C -4.03088377  2.94877394 -9.32334599
  C  8.92142026  7.34021500  0.76696328
  C  16.12842478  6.25490457  7.85920026
  C  1.33763652 -2.49522196  9.00148093
  H -6.49522381 -18.35495645 -6.76120077
  H -1.42593982 -3.78139653  4.79768084
  H  9.25154664 -6.96903533  0.31332256
  H -0.04771377  14.52315273  0.54033718
  H  1.54455651  9.26299243  3.05154038
  H -27.05942852  23.37433401 -5.19845466
