36
opt_min/./Reactant_5770_1_opt.xyz
  C -2.16974300 -1.90331100  1.00302400
  C -0.71648132 -1.49619806  0.83196980
  O  0.17781689 -2.27872726  1.15363241
  C -0.46195422 -0.18902201  0.30896629
  N  0.80607014  0.25481194  0.05573303
  C  1.94976338 -0.35742317 -0.22585110
  C  1.98714471 -1.68986167 -0.89679989
  C  3.17535171  0.39503864 -0.06249536
  C  3.22909037  1.54783209  0.74072509
  C  4.40716359  2.24369631  0.91382571
  C  5.57582875  1.81404264  0.30628174
  C  5.54806251  0.67317919 -0.47999348
  C  4.37244087 -0.02415460 -0.66331991
  C -1.47647351  0.85757274  0.16501184
  C -1.47645797  1.64330558 -0.98984808
  C -2.39313088  2.66448415 -1.15387128
  C -3.32332854  2.92730388 -0.16296433
  C -3.32115570  2.17040044  0.99761417
  C -2.40481488  1.15088399  1.16573487
  H -2.83782451 -1.32656441  0.37127263
  H -2.25202192 -2.96214396  0.76402225
  H -2.46301714 -1.78348282  2.04488841
  H  0.87747008  1.27154742  0.11797266
  H  2.20106729 -1.53282674 -1.95717226
  H  2.76105193 -2.32395171 -0.47170768
  H  1.04312774 -2.21132891 -0.81060076
  H  2.34809642  1.88704865  1.26730448
  H  4.41829958  3.12323575  1.54134538
  H  6.49800895  2.35604934  0.45202905
  H  6.45367994  0.32791129 -0.95750139
  H  4.37442282 -0.89815228 -1.29344524
  H -0.75820244  1.43519458 -1.77197463
  H -2.38544562  3.25397018 -2.05916973
  H -4.04262771  3.72252018 -0.29060900
  H -4.03187412  2.38506650  1.78275576
  H -2.38977521  0.58456099  2.08400250
