27
opt_min/./Reactant_2980_0_opt.xyz
  C -4.30188400 -0.44151100  0.12939300
  N -2.90681716 -0.06890281  0.08563440
  C -2.23965562  0.31336185  1.21995540
  O -2.70552659  0.25104560  2.33009418
  N -0.95562804  0.79320817  0.96740911
  N -0.17067272  0.10846871  0.23161224
  C  1.03619817  0.43180742 -0.19923181
  C  1.79765482 -0.60171964 -0.96776839
  O  2.31488998 -0.38886010 -2.03774862
  N  1.75996918 -1.83492578 -0.38055761
  C  2.49487113 -2.94485423 -0.94762473
  C  1.64496714  1.75881386  0.00004452
  O  2.82926417  1.96744772 -0.09111603
  O  0.73727064  2.69341528  0.29846489
  C  1.24853337  3.99616038  0.53343822
  H -4.91873320  0.27465001 -0.41509344
  H -4.60321929 -0.45557511  1.17521965
  H -4.44041090 -1.43511241 -0.30106792
  H -2.54081915  0.21593491 -0.81027106
  H -0.47076293 -0.84464172 -0.05418365
  H  1.56427219 -1.89714707  0.60752282
  H  2.63291566 -2.74323000 -2.00781607
  H  1.92517338 -3.86384253 -0.81587559
  H  3.47603286 -3.05627073 -0.48149385
  H  0.40968532  4.58880974  0.88763605
  H  2.04366336  3.96319791  1.28087452
  H  1.65460630  4.41700609 -0.38927175
