19
opt_min/./Reactant_3285_1_opt.xyz
  C -2.30978100 -0.03081600  0.79444300
  N -2.24315946  0.27535365 -0.63459101
  O -3.34740508  0.46339381 -1.19810459
  C -1.10046382  0.34721228 -1.23665645
  C  0.20091726  0.12884549 -0.57617933
  C  0.95660177  1.21494287 -0.14436687
  C  2.19085308  1.01622884  0.45096460
  C  2.68421222 -0.26688790  0.61756907
  C  1.94118663 -1.35260464  0.18492735
  C  0.70813916 -1.15664863 -0.40929752
  H -2.98471874 -0.87265152  0.92813318
  H -1.32672424 -0.25346300  1.19673742
  H -2.74526638  0.82402885  1.30675329
  H -1.11370162  0.58708493 -2.29028642
  H  0.58476363  2.22021837 -0.27031596
  H  2.76842607  1.86254749  0.78455755
  H  3.64689549 -0.42432188  1.08063476
  H  2.31902339 -2.35621292  0.30658331
  H  0.13043099 -2.00625419 -0.74888438
