40
opt_min/./Reactant_2829_1_opt.xyz
  F  3.27417371  0.12574699  2.80074312
  C  2.65511287 -0.69194792  1.90132947
 Br  2.93688418 -2.54794240  2.58403152
  C  1.26237308 -0.43811112  1.72595467
  C  0.26540283 -0.26450826  1.08149043
  C -0.65082275 -0.22450788 -0.03183694
  C -0.66934671  1.16939755 -0.63276115
  C -0.16971833  2.26469265  0.05874897
  C -0.17265635  3.52436754 -0.51460237
  C -0.67387056  3.71024236 -1.79030372
  C -1.18074141  2.62663385 -2.48673804
  C -1.17880705  1.36799979 -1.91278426
  C -2.03219921 -0.70917535  0.39161155
  C -2.11009716 -1.83457098  1.20747162
  C -3.33426601 -2.32535569  1.62046518
  C -4.50223339 -1.69420144  1.23034599
  C -4.43267889 -0.56336245  0.43708846
  C -3.20659184 -0.07103674  0.02165564
  C  0.01122730 -1.24923443 -0.99161340
  C  1.45550638 -0.97825727 -1.45954445
  C  2.70760969 -1.37052167 -0.63365679
  C  3.28481185 -0.52636729  0.51773582
  H  0.21542782  2.13407782  1.06007928
  H  0.22063833  4.36342521  0.04112690
  H -0.66995492  4.69229240 -2.23920316
  H -1.57886160  2.75869131 -3.48262742
  H -1.57217193  0.53513128 -2.47641773
  H -1.20181592 -2.32527717  1.52746497
  H -3.37467741 -3.20057927  2.25216025
  H -5.46051567 -2.07682584  1.54993612
  H -5.33776223 -0.05385678  0.14024467
  H -3.17661467  0.82643628 -0.57857959
  H -0.03461782 -2.25023549 -0.55754190
  H -0.60022449 -1.28228140 -1.89872158
  H  1.55225622 -1.63013951 -2.33571729
  H  1.54873492  0.05437107 -1.80456799
  H  2.60786885 -2.40899437 -0.30665511
  H  3.50618500 -1.33725811 -1.38340428
  H  4.34290657 -0.80076618  0.60456557
  H  3.24702310  0.53481531  0.25471881
