31
opt_min/./Reactant_2473_0_opt.xyz
  C -3.96184400  2.01432300 -1.06752900
  O -2.76400392  1.39139089 -0.63517896
  C -2.67451418  0.05842885 -0.90234733
  O -3.56597178 -0.52670784 -1.47509253
  C -1.46314419 -0.53586809 -0.36323489
  C -1.36700500 -1.97727001 -0.08297963
  C -2.60504660 -2.80361601 -0.28917091
  O -0.31064390 -2.48431542  0.24155920
  N -0.30757602  0.16681501 -0.23662190
  C -0.04688331  1.30372638 -1.12048865
  N  0.53528204 -0.21208545  0.62637027
  C  1.87269880  0.06610550  0.61449119
  C  2.48073879  0.41880444  1.82421722
  C  3.84510654  0.60358429  1.88962672
  C  4.63478997  0.41185789  0.76498383
  C  4.04599122  0.02689528 -0.42774543
  C  2.67761446 -0.13645388 -0.51480546
  H -4.82104031  1.59522750 -0.54011652
  H -3.85375846  3.07129467 -0.83691483
  H -4.10379619  1.86381849 -2.13947923
  H -3.44608487 -2.37242605  0.24626918
  H -2.41153361 -3.81402303  0.06208819
  H -2.86759332 -2.82822973 -1.34403547
  H  0.99816588  1.59433272 -1.03374300
  H -0.67650234  2.13937703 -0.82048430
  H -0.27696162  1.03921191 -2.15097544
  H  1.85570298  0.55777938  2.69223328
  H  4.30127498  0.89045515  2.82545719
  H  5.70395930  0.54766307  0.82264426
  H  4.65739757 -0.14986981 -1.30066485
  H  2.23018319 -0.48011385 -1.43677357
