27
opt_min/./Reactant_3121_0_opt.xyz
  C  4.60654373 -1.20087615  1.34172041
  N  3.23657616 -1.43002314  0.95487005
  C  2.36403187 -0.41357824  0.78923889
  O  2.62679951  0.77927167  0.90831432
  C  1.02721375 -0.70915249  0.45352761
  N -0.09397628 -0.47110003  0.13761408
  C -1.27651240 -0.07911937 -0.14662189
  C -2.33662276 -1.04410463 -0.53082261
  O -3.48533619 -0.74674874 -0.75341237
  N -1.89911107 -2.33896722 -0.57767657
  C -2.76850077 -3.41575811 -0.98381083
  C -1.58405839  1.38763533 -0.09752237
  O -2.68059008  1.82685870 -0.35081052
  N -0.53725933  2.16585212  0.27546391
  C -0.65768403  3.60182483  0.33683897
  H  5.28853207 -1.67080382  0.63167938
  H  4.77719714 -0.12516985  1.33973328
  H  4.79881111 -1.59098654  2.34326651
  H  2.92819268 -2.38488834  0.87110202
  H -0.92238120 -2.55788297 -0.47279817
  H -3.78860841 -3.03681776 -0.95557384
  H -2.54338978 -3.75122320 -2.00006840
  H -2.66923586 -4.25719900 -0.29721854
  H  0.37992684  1.78098693  0.44297762
  H -1.71734660  3.84911091  0.30618789
  H -0.21527332  3.97261298  1.26111606
  H -0.15617054  4.07710483 -0.51076782
