24
opt_min/./Reactant_4190_1_opt.xyz
  C  3.28566588 -1.87181716 -0.15358549
  N  2.29016590 -0.83114469 -0.15497292
  C  1.01474074 -1.07592063  0.17710328
  O  0.63768939 -2.18631820  0.54022754
  C  0.07991471  0.08444651  0.04518150
  C  0.53698364  1.38621697 -0.37786063
  C -0.33497303  2.59807968 -0.08878104
  O  1.65557273  1.59110216 -0.84665917
  N -1.23578875 -0.14188709  0.30893138
  C -1.60836372 -1.03456098  1.38367971
  C -2.19578091  0.43133131 -0.39331162
  C -3.54334370  0.37593885 -0.05428748
  N -4.66871630  0.37624157  0.19224275
  H  4.20843096 -1.49037676  0.28191728
  H  2.91035353 -2.70489224  0.43995246
  H  3.48648261 -2.22625118 -1.16797250
  H  2.52211607  0.08204007 -0.53856673
  H -0.79245356  2.96609403 -1.00530840
  H -1.10816767  2.41558447  0.65253756
  H  0.32714221  3.38485750  0.26883993
  H -1.08478072 -0.74345236  2.29444279
  H -1.28886783 -2.04919695  1.13494089
  H -2.68429583 -1.00205368  1.53980192
  H -1.94331737  0.99035665 -1.28095016
