35
opt_min/./Reactant_2566_1_opt.xyz
  C  3.18529564  0.55993594  1.94705710
  O  2.95693109 -0.47382181  1.01353510
  C  2.02606564 -0.22578113 -0.00896499
  O  2.54256479  0.53125794 -1.07432757
  C  2.56177503  1.93551881 -0.94035184
  C  0.73962723  0.27420894  0.46965987
  C -0.43223692  0.34063685  0.73434091
  C -1.80982794 -0.04770019  0.44875681
  O -2.60641296  0.94912145 -0.13305615
  C -2.62998724  2.20028058  0.52436250
  C -2.46157843 -0.58919860  1.74488741
  F -3.75654114 -0.87783512  1.57172800
  F -1.86918185 -1.71214878  2.17984354
  F -2.39446609  0.27988984  2.76699604
  C -1.68418787 -1.19877389 -0.58925152
  C -0.68618958 -0.89247976 -1.72348189
  C  0.64211112 -1.67671359 -1.73900487
  C  1.64004607 -1.62164926 -0.57081467
  H  2.25390801  1.08028471  2.19750036
  H  3.92032363  1.28385044  1.58111105
  H  3.57713981  0.07803508  2.84238643
  H  1.68514111  2.29572079 -0.39092166
  H  3.47088730  2.28335021 -0.43951306
  H  2.53934606  2.33786225 -1.95327991
  H -3.10652394  2.88611865 -0.17286378
  H -1.61391328  2.54521754  0.74537790
  H -3.20805613  2.16794380  1.45220826
  H -1.39943386 -2.11588983 -0.07430824
  H -2.68502347 -1.33376137 -1.00523032
  H -1.17714303 -1.14510101 -2.66596672
  H -0.48651203  0.17721677 -1.75598812
  H  1.16562671 -1.36237358 -2.64313356
  H  0.38899498 -2.73489078 -1.85548922
  H  2.58288371 -2.05814541 -0.90564023
  H  1.28033196 -2.21257866  0.27194906
