30
opt_min/./Reactant_1915_0_opt.xyz
  C -0.67032400  4.03871100  0.90311800
  N -0.09241287  2.74149642  0.64231325
  C -0.88636092  1.66192140  0.38910565
  O -2.09750969  1.78045711  0.31890020
  C -0.21693655  0.35796501  0.19248216
  N  1.09515419  0.25180284  0.23725369
  C  1.94031816 -0.75416333  0.00220977
  C  3.31712896 -0.40120949  0.12741113
  C  4.32516007 -1.48527182 -0.16273651
  O  3.63462364  0.75479999  0.42578415
  C -1.06555619 -0.81156025 -0.04198039
  C -2.10299610 -0.77009583 -0.97237172
  C -2.91355346 -1.87296614 -1.16321219
  C -2.70925595 -3.03179783 -0.43400631
  C -1.68450198 -3.08051920  0.49783952
  C -0.86927945 -1.98457198  0.69247729
  H -1.69517320  4.02164977  0.53746755
  H -0.10284976  4.80809417  0.38100251
  H -0.68129890  4.26072683  1.97308312
  H  0.89649900  2.66445513  0.80690288
  H  1.65839977  1.08435925  0.45776434
  H  1.59991527 -1.72675574 -0.29404699
  H  5.33202931 -1.11356799  0.00124451
  H  4.15635950 -2.34685292  0.47909000
  H  4.21773883 -1.80047316 -1.19722287
  H -2.26498648  0.12682900 -1.54642367
  H -3.71152046 -1.82787087 -1.88934652
  H -3.34549810 -3.89090490 -0.58399341
  H -1.52462235 -3.97609272  1.08002318
  H -0.09722979 -2.02098921  1.44710091
