13
opt_min/./Reactant_3417_1_opt.xyz
  C  1.08697200 -1.29026700 -0.26393100
  C  1.08889501  0.21006859 -0.27032941
  O  2.08943619  0.87032857 -0.44897291
  C -0.21379112  0.86823295 -0.04207379
  C -0.25925189  2.27312159 -0.04062230
  N -0.32154577  3.41988671 -0.03734914
  N -1.38113272  0.25553900  0.16803533
  N -1.59038422 -0.99846189  0.21003217
  H  0.41508167 -1.67437147 -1.02654508
  H  0.72551366 -1.66504232  0.68994317
  H  2.09883115 -1.64159074 -0.44476468
  H -2.15964268  0.92188619  0.30386977
  H -2.56890693 -1.21768442  0.38208878
