37
opt_min/./Reactant_5724_0_opt.xyz
  C -2.68419017 -2.62539392 -1.03801450
  C -1.19903533 -2.37323981 -1.19423400
  O -0.48920235 -3.24532741 -1.69188481
  C -0.73370018 -1.08495036 -0.73298974
  C -1.75070925 -0.05806342 -0.40983140
  C -2.57743566  0.47166617 -1.39483882
  C -3.52694777  1.42283943 -1.07293402
  C -3.66870751  1.84714383  0.23705157
  C -2.85960446  1.31582985  1.22727244
  C -1.90454480  0.37106448  0.90825932
  N  0.56005220 -0.73319725 -0.59505118
  C  1.60835883 -1.74008672 -0.63711009
  C  0.97131992  0.52424201 -0.39443491
  C  0.18992145  1.66637823 -0.56302354
  N -0.29787030  2.70213514 -0.70677656
  C  2.36529291  0.84531907 -0.01476870
  C  2.87977574  0.43607385  1.21338827
  C  4.16961673  0.77685405  1.57580984
  C  4.95459673  1.53491846  0.72277046
  C  4.44191285  1.96222721 -0.49022283
  C  3.15176244  1.62553767 -0.85827930
  H -3.10624884 -2.09377664 -0.19166746
  H -3.20256156 -2.31363384 -1.94234004
  H -2.83438551 -3.69656449 -0.92299413
  H -2.45858523  0.14969104 -2.41964839
  H -4.15379957  1.83858635 -1.84726613
  H -4.40729319  2.59383592  0.48679554
  H -2.96981741  1.64087088  2.25115648
  H -1.27179309 -0.04671822  1.67986196
  H  1.21291113 -2.65819177 -1.06613432
  H  1.98341191 -1.93902030  0.36584549
  H  2.43154439 -1.38435205 -1.25501507
  H  2.26276380 -0.13375594  1.89435492
  H  4.55636149  0.45588729  2.53156523
  H  5.96151964  1.79928482  1.00927953
  H  5.04656380  2.56284731 -1.15333785
  H  2.74680782  1.96429024 -1.80045381
