33
opt_min/./Reactant_1809_0_opt.xyz
  C -2.58038100  2.31129800  0.17040500
  N -1.77953564  1.11205664  0.19259491
  C -1.79007496  0.21927917 -0.83803839
  O -2.43013851  0.42986367 -1.85397389
  C -0.98675721 -0.99735690 -0.56585146
  C -1.44877727 -2.29036493 -1.02534440
  C -2.82894606 -2.34090658 -1.63066989
  O -0.76040880 -3.30626473 -0.96834745
  N  0.19624789 -0.85203691  0.10319589
  C  0.59715981 -1.93509796  0.98142501
  C  0.99643781  0.19593853 -0.08050607
  C  0.88477757  1.00890642 -1.33504984
  C  1.88780651  0.67009522  0.99360066
  O  1.74737351  0.34737969  2.16850380
  N  2.83713020  1.57026201  0.63002273
  C  3.72632278  2.16504718  1.59623003
  H -3.38745911  2.26190170  0.90505168
  H -1.96199746  3.18624961  0.38057753
  H -3.00930437  2.39778207 -0.82667616
  H -1.34039687  0.86480804  1.06486442
  H -2.87556854 -1.71793359 -2.51971820
  H -3.56598751 -1.96412976 -0.92478552
  H -3.05622601 -3.37175051 -1.88968122
  H  1.52846379 -1.70340170  1.48388275
  H  0.70120842 -2.83779536  0.37518590
  H -0.18191641 -2.11493735  1.72141730
  H  0.49567625  2.01085779 -1.15505965
  H  0.23361797  0.52073204 -2.05471961
  H  1.86999146  1.09619050 -1.79802395
  H  2.95888927  1.83291441 -0.33218019
  H  4.76608979  1.99331484  1.31363366
  H  3.52834872  1.69903857  2.55988522
  H  3.54983969  3.24042537  1.67583479
