20
opt_min/./Reactant_2011_1_opt.xyz
  F  3.03677800  0.33375400 -1.11416000
  C  2.41439890  0.11960177  0.06199844
  F  3.03476220  0.89163969  0.96948484
  F  2.69796558 -1.15874113  0.39512984
  C  0.95454596  0.37456972 -0.00811393
  C  0.21753910  1.17374150  0.75999427
  C -1.21607675  0.95899549  0.35685621
  C -1.56040625 -0.45465216  0.89291222
  C -0.72398091 -1.37895317 -0.01205517
  C  0.02491524 -0.38159227 -0.92649924
  C -1.05809927  0.67783483 -1.14018977
  H  0.54995541  1.79031156  1.57439978
  H -1.91705189  1.73699800  0.65022456
  H -1.29092158 -0.54725463  1.94267470
  H -2.62455642 -0.65505199  0.79740309
  H -0.03960571 -2.00995502  0.55067175
  H -1.35720499 -2.02061351 -0.62141289
  H  0.49240421 -0.82220135 -1.80491064
  H -1.95963574  0.28566481 -1.60376876
  H -0.70074396  1.54274007 -1.69501752
