20
opt_min/./Reactant_635_0_opt.xyz
  C  2.46263785  2.52536815  0.06349906
  N  1.37857134  1.71974213 -0.43987473
  C  0.83807622  0.70892839  0.28358307
  O  1.22914491  0.42670590  1.40500234
  C -0.25213546 -0.00329245 -0.41683043
  C -0.58650245  0.42423487 -1.70353999
  N -0.83982739  0.79288143 -2.76640782
  N -0.93519537 -1.03784354  0.11871931
  C -0.61491106 -1.49190939  1.45397729
  C -1.90196596 -1.65728311 -0.53965816
  C -2.62839266 -2.72012180 -0.02148031
  N -3.25727313 -3.59670349  0.38294843
  H  2.19636318  3.58265563  0.03136953
  H  3.36894323  2.36773784 -0.52525355
  H  2.64523318  2.22283097  1.09336781
  H  1.03439317  1.91820475 -1.36699247
  H -0.74644518 -0.67886770  2.16776800
  H -1.26110462 -2.32689879  1.72097805
  H  0.42954984 -1.80047456  1.50362903
  H -2.15299343 -1.32195780 -1.53682577
