11
opt_min/./Reactant_1027_0_opt.xyz
  C  2.43107499 -0.08463395 -0.40273904
  O  1.54868747  0.58137200  0.50132019
  C  0.29841979  0.36460391  0.37080010
  C -0.88564031  0.17940247  0.26128265
  C -2.31126108 -0.03199633  0.13542834
  F -3.02704846  1.06393978  0.43560677
  F -2.65487169 -0.38669227 -1.11727142
  F -2.76419289 -1.01300573  0.94104367
  H  1.90467403 -0.45957574 -1.28019186
  H  3.18715263  0.63910183 -0.71211811
  H  2.92131114 -0.91144485  0.11666231
