30
opt_min/./Reactant_2094_1_opt.xyz
  C -1.69046148 -1.72333823  0.38447722
  C -1.43183796 -0.21317229  0.37263716
  C -2.44523965  0.52469140  1.24821618
  C -0.06253423  0.06160267  0.75423656
  C  1.08759448  0.38155158  0.65568773
  C  2.35933936  0.71026125  0.03824834
  C  2.57766930  2.14588839  0.15073245
  N  2.71021134  3.27590044  0.24002912
  C  3.53633554 -0.02590074  0.68448389
  F  3.62930982  0.20832879  1.99670274
  F  3.43438793 -1.35526873  0.53831638
  F  4.71170171  0.32430190  0.14105203
  C  2.21189340  0.30690955 -1.45285701
  C  0.92592869  0.78670747 -2.15033900
  C -0.37089148 -0.05488640 -2.05572101
  C -1.48083882  0.35960174 -1.06923116
  H -0.82574241 -2.26665256  0.01066886
  H -1.89219907 -2.06579854  1.39656979
  H -2.54858895 -1.96319430 -0.23888566
  H -2.55270780  0.02993347  2.21053065
  H -2.12159522  1.54882614  1.42233756
  H -3.41625906  0.54623051  0.75855538
  H  2.27832670 -0.78102411 -1.52382327
  H  3.06541593  0.73465525 -1.98745737
  H  0.71880669  1.82611133 -1.88858491
  H  1.19315726  0.77687623 -3.21125856
  H -0.12371088 -1.11053661 -1.94315684
  H -0.83719668  0.05316171 -3.03949661
  H -2.43472411  0.03973588 -1.49619553
  H -1.49470738  1.45005305 -1.01071015
