14
opt_min/./Reactant_500_0_opt.xyz
  C -2.39182100  0.22972100 -0.65240400
  N -1.87944775 -0.92592273 -0.98596308
  C -0.67549413 -1.46937914 -0.76674344
  C  0.45496798 -0.88642835 -0.11745631
  O  1.51061596 -1.47121975  0.03175882
  O  0.26709725  0.39390899  0.32140578
  C  1.37908538  0.99655966  0.95751826
  H -1.80438898  0.94344719 -0.11300181
  H -3.39965212  0.45753035 -0.94056895
  H -2.50661781 -1.54775481 -1.49022745
  H -0.51971956 -2.46507738 -1.14444264
  H  2.30829399  0.64313639  0.50592297
  H  1.27328158  2.07162061  0.82928626
  H  1.38494073  0.74436268  2.02098943
