31
opt_min/./Reactant_991_1_opt.xyz
  C  5.19255664  1.59219648 -0.04948625
  N  4.22632913  0.56635570 -0.35108589
  C  2.90748435  0.74433374 -0.19247228
  O  2.38554974  1.77994730  0.21522489
  C  2.02488585 -0.40098491 -0.54427004
  C  2.61330203 -1.57074158 -1.02569240
  N  3.37546905 -2.35450892 -1.39834808
  N  0.74673901 -0.08365798 -0.35596035
  C -0.42584824 -0.69819795 -0.47263878
  C -0.46878452 -2.10748847 -0.82385095
  C -1.79686858 -2.81952673 -0.75340670
  O  0.55288780 -2.70896660 -1.12107346
  C -1.60792582  0.10697789 -0.14211039
  C -1.59844710  0.90891693  1.00176983
  C -2.69507573  1.68737196  1.32152793
  C -3.81328539  1.68591985  0.50472985
  C -3.82661285  0.90432258 -0.63901701
  C -2.73522208  0.12054534 -0.96191159
  H  4.65013593  2.47785363  0.27755508
  H  5.86416971  1.26560576  0.74667898
  H  5.78059173  1.83056996 -0.93656142
  H  4.55644612 -0.32307244 -0.69698771
  H  0.72437282  0.90447977 -0.02880664
  H -2.27752128 -2.77779959 -1.72956678
  H -2.45669186 -2.37799380 -0.01304343
  H -1.61498583 -3.86614787 -0.52146688
  H -0.73984396  0.90472445  1.65841322
  H -2.67633070  2.29471219  2.21396566
  H -4.66929911  2.29304517  0.75676882
  H -4.69015469  0.90988601 -1.28722530
  H -2.74331763 -0.46405732 -1.86896960
