27
opt_min/./Reactant_1268_0_opt.xyz
  C -3.80333940 -2.23777320  0.63052794
  N -2.94036292 -1.09001867  0.49424741
  C -1.60923564 -1.22367382  0.41085898
  O -1.02139128 -2.29395335  0.37098568
  C -0.82532488  0.05083851  0.40423074
  N  0.45818033 -0.01597964  0.03544438
  C  1.11958264 -0.92849677 -0.67460175
  C  0.53507612 -1.96842429 -1.42056410
  N  0.16348712 -2.73919077 -2.18708638
  C  2.57035683 -0.75412206 -0.81308347
  O  3.29623114 -1.44427704 -1.48035229
  O  3.00470596  0.30881092 -0.08347676
  C  4.39560550  0.60183518 -0.12154343
  C -1.34069083  1.29764515  0.93662665
  C -0.38510152  2.47874576  0.97461995
  O -2.49900279  1.43579845  1.30326900
  H -4.12658113 -2.36640380  1.66557044
  H -3.24934518 -3.12122993  0.31841837
  H -4.67945014 -2.10912782 -0.00419742
  H -3.31549703 -0.17947598  0.73511720
  H  1.06602919  0.74542418  0.34221131
  H  4.89168351 -0.05486714 -0.83902671
  H  4.51350565  1.64315267 -0.41889680
  H  4.81089872  0.44486497  0.87392433
  H  0.03516035  2.67508129 -0.00900903
  H  0.41884765  2.30112442  1.68921591
  H -0.93793191  3.35462041  1.30158206
