38
opt_min/./Reactant_5349_0_opt.xyz
  C -0.84414400  3.54325100  1.75128500
  N -0.47725002  2.27404939  1.17033297
  C -1.41935914  1.48433895  0.55589791
  O -2.56438118  1.88366405  0.39769336
  C -1.00336538  0.12627113  0.19317742
  C -2.11678828 -0.84385377  0.16045831
  C -2.21081067 -1.88617953  1.08238221
  C -3.29709417 -2.74049294  1.06963839
  C -4.31300802 -2.56023499  0.14615002
  C -4.24119681 -1.51424108 -0.75776186
  C -3.15448667 -0.65941314 -0.75125901
  N  0.25754153 -0.24266706 -0.10723435
  C  0.51332911 -1.66461916 -0.28328195
  C  1.22719483  0.62432430 -0.41830347
  C  2.63120429  0.38459856 -0.52034990
  C  3.38975305  1.29545305 -1.28033141
  C  4.75342856  1.16018249 -1.40909882
  C  5.41880225  0.12355102 -0.76981709
  C  4.69857684 -0.75909875  0.01778565
  C  3.32980295 -0.63592362  0.14753279
  H -0.28800441  4.35540856  1.27579448
  H -1.90914712  3.69043954  1.57461181
  H -0.64503203  3.55582712  2.82362339
  H  0.37725581  1.85076526  1.49838240
  H -1.44196177 -2.01228100  1.83138018
  H -3.35661982 -3.54275200  1.79071098
  H -5.16284931 -3.22654439  0.14035228
  H -5.03704162 -1.36230848 -1.47174984
  H -3.10257381  0.16066537 -1.44886767
  H  1.39273782 -1.80146391 -0.90758198
  H  0.66955758 -2.15615638  0.67771785
  H -0.34755354 -2.12704674 -0.76522343
  H  0.90128998  1.62868699 -0.64133486
  H  2.87940560  2.10677773 -1.77873198
  H  5.30732324  1.86613351 -2.01041326
  H  6.48810551  0.01665338 -0.87099826
  H  5.21112880 -1.55023896  0.54610472
  H  2.81102661 -1.30905970  0.81196552
