17
opt_min/./Reactant_3432_1_opt.xyz
  N  3.40011001 -1.12449200  1.45456599
  C  2.55781128 -0.39946665  1.16542561
  C  1.51120012  0.48013889  0.80516957
  O  1.76091549  1.71146837  1.14530920
  N  0.94178124  2.72351203  0.92464166
  C  0.34003538 -0.05538108  0.14147629
  C  0.27755569 -1.43081392 -0.13224582
  C -0.82704246 -1.96594747 -0.75986888
  C -1.88715742 -1.14873403 -1.12788898
  C -1.83352092  0.21034435 -0.86250845
  C -0.73402689  0.76202980 -0.23349692
  H  1.42784694  3.54451419  1.30187549
  H  1.10008317 -2.06990937  0.15327129
  H -0.86469051 -3.02589495 -0.96453840
  H -2.75027722 -1.57239361 -1.61952606
  H -2.65608205  0.84980326 -1.14725261
  H -0.69445793  1.82016232 -0.02760048
