24
opt_min/./Reactant_2913_1_opt.xyz
  C  4.10008900 -1.37124900 -0.85111200
  O  3.00712313 -0.60965493 -0.37359170
  C  3.31081540  0.51759050  0.36575067
  O  4.45150056  0.85761903  0.59984611
  C  2.13206338  1.19749576  0.78481075
  N  0.92578202  0.72320433  0.47260863
  C -0.26444064  1.19301802  0.76941161
  C -1.49172263  0.58319698  0.35861691
  C -2.70329413  1.15310701  0.77693892
  C -3.91114521  0.59623796  0.41566087
  C -3.94925667 -0.54286387 -0.37300289
  C -2.76216645 -1.11708990 -0.80211798
  C -1.54910235 -0.56607129 -0.44623629
  H  4.07317365 -1.37920284 -1.94259241
  H  4.00778962 -2.38949231 -0.46927000
  H  5.03455694 -0.92403890 -0.50494301
  H  2.21768704  2.10092259  1.36248326
  H  0.96382452 -0.13446185 -0.07965296
  H -0.30282968  2.09386668  1.36368312
  H -2.67933344  2.04010512  1.39231414
  H -4.83224167  1.05192957  0.74987654
  H -4.89539602 -0.97976253 -0.65375893
  H -2.78658581 -2.00297773 -1.42035612
  H -0.63964946 -1.03059580 -0.80311071
