22
opt_min/./Reactant_2818_0_opt.xyz
  C -4.95293919  1.81965539 -0.98300614
  O -4.00626935  0.91487274 -0.43992430
  C -2.70999305  1.24888080 -0.67042287
  O -2.34538102  2.23309021 -1.28224280
  C -1.82492997  0.32343950 -0.11980319
  N -1.00579104 -0.40566531  0.32867670
  C -0.08288737 -1.14813780  0.79708458
  C  1.31972651 -0.86000277  0.63019452
  C  1.76437124  0.19808067 -0.17002510
  C  3.11444195  0.44883263 -0.30579744
  C  4.04491182 -0.34397889  0.34843073
  C  3.61441705 -1.39561474  1.14256080
  C  2.26632594 -1.65459172  1.28480075
  H -4.82972146  2.81235528 -0.54402266
  H -4.83171981  1.89757415 -2.06573448
  H -5.93018314  1.41229391 -0.73676429
  H -0.39075396 -2.01690791  1.35902533
  H  1.04365403  0.81925169 -0.68225529
  H  3.44602771  1.26785422 -0.92677841
  H  5.10071766 -0.14584424  0.24144845
  H  4.33618171 -2.01540690  1.65416001
  H  1.93404864 -2.47538887  1.90401573
