12
opt_min/./Reactant_3314_1_opt.xyz
  C -2.33955342 -0.09563789 -1.64712748
  O -1.02770246 -0.14200905 -1.09994470
  C -0.91203202  0.29012435  0.15708157
  O -1.80939853  0.69217177  0.85171286
  C  0.44205344  0.21206671  0.61287655
  N  1.50651808  0.24401226  1.09792799
  N  2.51774784  0.32154481  1.76213211
  C  3.74506021  0.00760879  1.49464560
  N  4.86317607 -0.24217198  1.39506891
  H -3.05295571 -0.55902970 -0.96314063
  H -2.63859504  0.93969442 -1.82338508
  H -2.29280637 -0.64057192 -2.58618846
