19
opt_min/./Reactant_4558_0_opt.xyz
  C  2.35513219 -1.95774869  0.10040199
  N  1.09194748 -1.27294778  0.02404972
  C  0.99835789  0.03632298 -0.22334523
  O  1.91672527  0.78456408 -0.49294168
  C -0.42358588  0.56059442 -0.14515065
  N -0.55955983  1.78331225 -0.51278178
  C -0.37491861  2.88177410 -0.90487169
  C -0.35100830  4.12908893 -1.38403055
  N -0.33818498  5.21337036 -1.78657081
  C -1.55924972 -0.19227736  0.34453691
  C -2.84714370  0.58757615  0.46837603
  O -1.50950545 -1.37966315  0.63096867
  H  2.50351734 -2.37515196  1.09774548
  H  3.14610248 -1.24035005 -0.11427923
  H  2.39093572 -2.76655302 -0.63191756
  H  0.22658222 -1.75958432  0.24915571
  H -3.54364992  0.03182078  1.09125005
  H -3.28900656  0.70552464 -0.52056254
  H -2.67488642  1.57343278  0.89263736
