38
opt_min/./Reactant_3087_1_opt.xyz
  N -0.67074702 -2.78182791 -2.77172116
  C -0.02740165 -1.90648398 -2.38167385
  C  0.76502087 -0.83066126 -1.98706971
  O  0.32102165  0.18438689 -1.25029776
  C -0.82753850  0.33349965 -0.64163559
  C -1.06361932  1.64782879 -0.09075965
  C -2.06550416  1.85463917  0.86779015
  C -2.27816921  3.11017540  1.39711526
  C -1.49848021  4.18446793  0.99343242
  C -0.49902286  3.99161738  0.05108897
  C -0.28109893  2.74181955 -0.48822159
  C -1.81234579 -0.74005853 -0.49276368
  C -3.14088114 -0.52937698 -0.86471956
  C -4.07374915 -1.53503973 -0.70393998
  C -3.70087963 -2.75328937 -0.15990869
  C -2.38802366 -2.96592553  0.22618643
  C -1.44669473 -1.96975933  0.05697756
  C  2.14048339 -0.74239866 -2.43536506
  C  2.65851672 -1.69318598 -3.32304744
  C  3.96889258 -1.60610089 -3.74592328
  C  4.78600713 -0.57922906 -3.29852037
  C  4.28138584  0.36398814 -2.41647441
  C  2.97449354  0.28689158 -1.98211667
  H -2.66207488  1.01869989  1.20087889
  H -3.05266019  3.25337806  2.13557981
  H -1.66943762  5.16496735  1.41088156
  H  0.10857675  4.82588232 -0.26762191
  H  0.48641921  2.60269726 -1.23509357
  H -3.42546266  0.41897448 -1.29583721
  H -5.09598463 -1.36669545 -1.00770022
  H -4.43247520 -3.53783881 -0.03917005
  H -2.09316647 -3.91135147  0.65458287
  H -0.42562466 -2.13878786  0.36997232
  H  2.02046941 -2.49024156 -3.67470638
  H  4.35679809 -2.34508676 -4.43129388
  H  5.81036213 -0.51607742 -3.63213716
  H  4.91394118  1.16406295 -2.05963914
  H  2.59049544  1.01730928 -1.28528951
