21
opt_min/./Reactant_4035_1_opt.xyz
  C  3.20587184  0.74078234 -0.91050926
  N  1.90221970  0.47429585 -0.34965694
  C  0.86592602  1.36668047 -0.53789293
  O  0.94309691  2.30481300 -1.29439364
  N -0.22679568  1.13010661  0.26162755
  N -0.86685347  0.01756652  0.33549497
  C -0.85148150 -0.92221516 -0.78514592
  C -1.65357495 -0.24627868  1.36838004
  C -2.59873924 -1.40637274  1.39254192
  C -1.61432084  0.59431160  2.48716123
  N -1.60170859  1.23513404  3.44160504
  H  3.71572965 -0.20082282 -1.11104695
  H  3.05698271  1.28918935 -1.84006403
  H  3.82091244  1.35177557 -0.24262883
  H  1.87075583 -0.14822335  0.44425052
  H -1.72506776 -0.74165281 -1.41533192
  H  0.04333684 -0.74816579 -1.38094358
  H -0.86457741 -1.95022688 -0.42895358
  H -3.15590055 -1.48632169  0.45969551
  H -2.07189307 -2.34888602  1.56377760
  H -3.30690090 -1.27076725  2.20688174
