15
opt_min/./Reactant_242_0_opt.xyz
  C -3.76241116  0.20832230  0.77173316
  N -2.74067291  0.16263338 -0.23676441
  N -1.57073389  0.06894819  0.07097907
  C -0.39408380  0.04231061  0.05645225
  C  0.98945011  0.00082375  0.35386598
  O  1.40603647  0.01086467  1.50062190
  N  1.79610720 -0.06836187 -0.74333026
  C  3.23333150 -0.03794820 -0.63874269
  H -4.09650342 -0.80628017  1.01366803
  H -3.42781904  0.70187450  1.68701325
  H -4.61007929  0.74944080  0.35273196
  H  1.38340354 -0.00781010 -1.66127882
  H  3.47222517  0.02747308  0.42155736
  H  3.64397291  0.82180148 -1.17131746
  H  3.66841100 -0.95318060 -1.04870381
