37
opt_min/./Reactant_2145_1_opt.xyz
  C  0.91989700  4.08196600  0.29971700
  C  1.44612517  3.17487368 -0.60595255
  C  0.87618130  1.92468428 -0.75273192
  C -0.23415844  1.56004821  0.01215004
  C -0.85079336  0.25526034 -0.15222424
  C -0.28807359 -0.93802770 -0.44165765
  C  1.11630144 -1.30433784 -0.53517237
  C  2.05526139 -0.78713840  0.35882523
  C  3.38445340 -1.15032771  0.27038435
  C  3.80437817 -2.03671837 -0.70885639
  C  2.88030791 -2.56341130 -1.59625001
  C  1.54807125 -2.20639254 -1.50755503
  C -1.41701279 -1.94681014 -0.49609610
  C -1.85026066 -2.13729253  0.97553787
  C -2.50634046 -0.78539772  1.31487310
  C -2.33869622  0.01548537  0.00203212
  C -2.55582128 -1.08249099 -1.03808473
  C -0.76500414  2.48759596  0.90882721
  C -0.18685274  3.73414755  1.05530970
  H  1.37225010  5.05676384  0.41007002
  H  2.30333580  3.44301024 -1.20616052
  H  1.28015219  1.22203294 -1.46509898
  H  1.72842429 -0.10235242  1.12780815
  H  4.09684704 -0.74059297  0.97107754
  H  4.84439484 -2.31590000 -0.77750640
  H  3.19969568 -3.25668298 -2.36057166
  H  0.83684079 -2.61193750 -2.21215269
  H -1.20030188 -2.87820567 -1.01732337
  H -0.99159352 -2.35165577  1.60917434
  H -2.55726676 -2.95961318  1.07078769
  H -3.56409753 -0.90283122  1.54781915
  H -2.02474013 -0.29306769  2.15753801
  H -2.96236086  0.90444427 -0.06807570
  H -3.53200347 -1.55978357 -0.97201581
  H -2.37898153 -0.74191554 -2.05655802
  H -1.62461939  2.22084198  1.50728498
  H -0.60269346  4.43923508  1.76086996
