36
opt_min/./Reactant_5391_0_opt.xyz
  C -0.51080802  0.36838728 -3.73269100
  N  0.24753286  0.66142921 -2.54155638
  C  1.42059990  0.02206454 -2.27351844
  O  1.94343326 -0.72396051 -3.07946674
  C  2.08126784  0.37624750 -1.00019555
  C  3.47450341  0.27691267 -1.01855551
  N  4.62470788  0.21195544 -1.01910335
  N  1.47610062  0.82560543  0.12871680
  C  2.35887160  1.46173614  1.09829641
  C  0.19650839  0.61507390  0.44945469
  C -0.48597816  1.49888182  1.43587901
  O -1.20571595  1.09186270  2.32308224
  N -0.25751797  2.83228859  1.24168689
  C -0.93666713  3.81890702  2.05284879
  C -0.60583012 -0.46886141 -0.10208139
  C -0.04536983 -1.71642865 -0.40139565
  C -0.83702660 -2.74733221 -0.86001738
  C -2.19926255 -2.55952424 -1.04358703
  C -2.76920628 -1.33500790 -0.73945346
  C -1.98379635 -0.29983663 -0.27082746
  H  0.16956717 -0.07190958 -4.45953293
  H -0.94218041  1.28355371 -4.13582393
  H -1.31122370 -0.34657667 -3.51904361
  H -0.16297853  1.29527936 -1.87731238
  H  3.13296529  0.74976770  1.39181409
  H  1.80539053  1.75521141  1.98560072
  H  2.85055433  2.32766883  0.65334312
  H  0.21270371  3.15645216  0.41225652
  H -0.47023074  4.78931471  1.90741651
  H -1.99810101  3.88016365  1.79793154
  H -0.86037062  3.52519048  3.09955164
  H  1.01059081 -1.88884988 -0.25505730
  H -0.38824602 -3.70406284 -1.07879084
  H -2.81074821 -3.36640612 -1.41786371
  H -3.82999804 -1.18150434 -0.86977564
  H -2.43871046  0.65132560 -0.03540347
