27
opt_min/./Reactant_2500_1_opt.xyz
  C  2.32851710 -0.14610022 -3.14840667
  N  1.57542017 -0.46375089 -1.95714947
  C  0.60668676 -1.39754121 -1.96325426
  O  0.29060320 -2.03712683 -2.93604481
  C -0.12240524 -1.58994749 -0.61759107
 Br -0.36902194 -3.55242905 -0.43452040
  C -1.39684839 -0.91949208 -0.61883064
  C -2.21799642 -0.13291938 -0.22674051
  C -2.77048905  0.82493484  0.71253222
  F -2.57336183  2.10766333  0.28704084
  F -4.11015005  0.71483853  0.90496252
  C -2.02136054  0.55778962  2.03221769
  C -0.52251966  0.91119354  2.04555297
  C  0.40792651  0.45951270  0.90074869
  C  0.54944749 -1.06368352  0.67714625
  H  2.24539851  0.91710893 -3.37574567
  H  3.38058639 -0.40678975 -3.02058855
  H  1.91196480 -0.72835244 -3.96839493
  H  1.80346186  0.04142030 -1.11823388
  H -2.17021885 -0.49887638  2.26088989
  H -2.51355592  1.14722764  2.80946797
  H -0.12490064  0.51236625  2.98201695
  H -0.43701538  1.99888821  2.09582570
  H  0.08338173  0.95249446 -0.01656544
  H  1.39030454  0.86349458  1.16127180
  H  1.60065553 -1.36387432  0.66892216
  H  0.07665260 -1.58273201  1.51380570
