30
opt_min/./Reactant_3772_1_opt.xyz
  C  1.92511800 -2.71275700  0.73354600
  C  0.93696928 -1.69055130  0.29116026
  N  1.05333698 -0.38929726  0.44359022
  C  2.29115707  0.14248808  0.98413027
  C  0.05336775  0.46843687  0.10340583
  C  0.12477061  1.88881013 -0.02301578
  O -0.84233667  2.58988367 -0.27060943
  O  1.37559262  2.45365929  0.13927227
  C  1.45173570  3.85821395 -0.01154617
  C -1.29616548 -0.09391226 -0.15328460
  C -1.95277786 -0.83076923  0.83119311
  C -3.23059345 -1.31026475  0.61775404
  C -3.87643236 -1.05953101 -0.58215191
  C -3.23651741 -0.32253445 -1.56330291
  C -1.95576760  0.15638770 -1.35236162
  H  2.23879402 -2.57624238  1.76922367
  H  1.46781818 -3.69587298  0.65302858
  H  2.82000247 -2.71498715  0.10384040
  H  0.03998803 -2.04240496 -0.19022907
  H  2.07555142  0.78579444  1.83634052
  H  2.94996010 -0.66344102  1.28909465
  H  2.79401708  0.74786763  0.23227497
  H  2.11325981  4.23793981  0.76664967
  H  0.45447313  4.29395435  0.08568003
  H  1.85538679  4.10058040 -0.99777293
  H -1.45954034 -1.01825331  1.77515800
  H -3.72897848 -1.87285909  1.39443215
  H -4.87688883 -1.43212246 -0.74778366
  H -3.73607308 -0.11800857 -2.49906220
  H -1.46186765  0.73851717 -2.11461063
