26
opt_min/./Reactant_5235_1_opt.xyz
  C  1.04515300 -0.77544700  0.95507900
  O -0.09898659 -0.34632819  0.53383877
  N -1.21745961 -0.96334763  0.94061366
  C -2.36998788 -0.42995787  0.44387327
  C -3.55484639 -1.06392025  0.84538040
  C -4.77418089 -0.60451610  0.39844361
  C -4.84610358  0.48916061 -0.45198704
  C -3.68029077  1.12386440 -0.85480044
  C -2.45333379  0.67659027 -0.41633500
  C  2.25277820 -0.14915097  0.53474376
  C  3.48324738 -0.62562563  1.01498573
  C  4.66317262 -0.03262287  0.62032651
  C  4.64858208  1.04272230 -0.25672981
  C  3.43973948  1.52343012 -0.73989359
  C  2.25366156  0.93968780 -0.35358922
  H  1.07214020 -1.62147649  1.63333258
  H -3.48569664 -1.91368270  1.50568104
  H -5.68096843 -1.10019962  0.71425384
  H -5.80566364  0.84400741 -0.79706292
  H -3.73216715  1.97595792 -1.51742507
  H -1.54933763  1.17682729 -0.73194802
  H  3.49420602 -1.46179525  1.69756431
  H  5.60439530 -0.40624317  0.99522079
  H  5.57689779  1.50182463 -0.56098998
  H  3.43077405  2.36008544 -1.42299008
  H  1.31346930  1.31174661 -0.73011207
