19
opt_min/./Reactant_219_1_opt.xyz
  N  2.90603600  4.55082800 -1.51345600
  C  2.48995031  3.48062459 -1.44368580
  C  1.98206655  2.18911582 -1.35388982
  O  2.35140938  1.17981626 -2.13634941
  C  1.62487726  0.04050189 -1.74729065
  O  1.75525621 -1.02421759 -2.28430168
  C  0.80485300  0.52071872 -0.65802528
  C -0.15062205 -0.18461927  0.14553116
  C -0.84931769  0.47388926  1.16539774
  C -1.76500801 -0.21865511  1.92939508
  C -1.99709640 -1.56592300  1.69171514
  C -1.30750549 -2.22188073  0.68291917
  C -0.38753015 -1.54470072 -0.09150274
  O  1.07244767  1.81612263 -0.47892239
  H -0.66499611  1.52192691  1.34608048
  H -2.30243498  0.29101696  2.71502251
  H -2.71531164 -2.10159737  2.29371891
  H -1.48975629 -3.27010568  0.49986102
  H  0.15333173 -2.04550157 -0.87768849
