28
opt_min/./Reactant_1680_1_opt.xyz
  C -2.23193732  1.28923222  1.25676841
  O -2.45693855  0.60202098  0.05312965
  C -1.30690084  0.20420954 -0.65844613
  O -1.70945594 -0.14092833 -1.95571505
  C -2.75945732 -1.08077535 -2.05325375
  C -0.25974256  1.21242259 -0.78932576
  C  0.88338992  1.56565966 -0.67177242
  C  2.32017666  1.57956654 -0.58546635
  F  2.92337982  2.26361066 -1.62212449
  C  2.68002412  0.08791775 -0.68435981
  C  2.07223526 -0.83516776  0.39448911
  C  0.63898430 -0.69949013  0.95320696
  C -0.56781817 -1.00007354  0.04260816
  H -3.21100242  1.62091354  1.59773174
  H -1.58387813  2.15953885  1.10509601
  H -1.78499739  0.64044130  2.01803931
  H -2.45600862 -2.06825158 -1.68911221
  H -3.64152475 -0.74778813 -1.50360062
  H -2.98910961 -1.14148993 -3.11501013
  H  2.68315548  2.04305465  0.34158132
  H  2.38343421 -0.25138651 -1.67740809
  H  3.76524281 -0.00980991 -0.60020310
  H  2.71483707 -0.76182777  1.27764186
  H  2.17531294 -1.85460234  0.01343166
  H  0.52299834  0.27190439  1.43492086
  H  0.60394757 -1.44900502  1.75169549
  H -1.32982233 -1.50273997  0.64621861
  H -0.26052522 -1.68453281 -0.74951521
