30
opt_min/./Reactant_2211_0_opt.xyz
  C -0.40964725 -0.66055093  3.69476999
  N -0.40039947 -0.56324748  2.25392787
  C -0.32332455  0.64075267  1.62422844
  O -0.24291260  1.68197468  2.23517504
  C -0.46069784  0.58669093  0.13938393
  C -0.70809293  1.86690731 -0.53553179
  O -0.87257072  2.93285233 -0.00870129
  O -0.61831724  1.71086956 -1.88836769
  C -0.72007789  2.88462310 -2.68155256
  N -0.47429385 -0.56661057 -0.55286943
  C -1.55348182 -0.82770534 -1.49483316
  C  0.41916112 -1.55753912 -0.38876775
  C  0.11204515 -2.81260703 -0.94853140
  N -0.13782849 -3.83532588 -1.40837398
  C  1.78253090 -1.47241794  0.17863137
  C  2.34920937 -0.12177317  0.51780719
  O  2.44589492 -2.48621127  0.25980811
  H -1.36482899 -1.04961245  4.05154099
  H  0.39559890 -1.31541368  4.03109301
  H -0.25883424  0.34188195  4.09273364
  H -0.52754944 -1.42668235  1.75205570
  H -0.99025772  3.73456036 -2.05172152
  H -1.48382568  2.71244390 -3.43924364
  H  0.24322269  3.07134266 -3.15798304
  H -2.14765765 -1.66626724 -1.12422838
  H -1.16352364 -1.09506764 -2.47713991
  H -2.19249879  0.04519833 -1.58425391
  H  2.05980632  0.17911667  1.52213211
  H  2.00787639  0.64452610 -0.17516256
  H  3.43369951 -0.20064775  0.48714697
