36
opt_min/./Reactant_2162_0_opt.xyz
 Br  1.38137000  2.76307800  0.40920900
  C  0.87048414  0.94549076  0.04449306
  C -0.42643635  0.60395455  0.00929702
  C -0.83584288 -0.81211486 -0.11969601
  C -0.27684715 -1.79975371  0.68591470
  C -0.69426975 -3.11265902  0.56506160
  C -1.67029261 -3.45058310 -0.35718499
  C -2.23935956 -2.46828197 -1.14877357
  C -1.83303543 -1.15173333 -1.02759894
  C -1.54570093  1.55692666  0.11392071
  C -1.64043790  2.66165566 -0.72844652
  C -2.71044490  3.52951319 -0.62333306
  C -3.69685089  3.30914274  0.32293219
  C -3.61674969  2.20450567  1.15709342
  C -2.55393720  1.32865265  1.04724994
  C  1.99971918  0.03712099 -0.17782171
  C  3.09615110  0.03995739  0.67937166
  C  4.14447438 -0.83656521  0.46770956
  C  4.11618198 -1.70972588 -0.60468303
  C  3.03853877 -1.70074731 -1.47473340
  C  1.98365966 -0.83188430 -1.26737606
  H  0.47425122 -1.52863150  1.41284417
  H -0.25695390 -3.87256803  1.19569907
  H -1.99394912 -4.47694528 -0.45485706
  H -3.00808609 -2.73033377 -1.86123351
  H -2.28236427 -0.38539573 -1.64404227
  H -0.88359541  2.82978900 -1.48091966
  H -2.77612227  4.38215122 -1.28375509
  H -4.52964803  3.98945119  0.41090556
  H -4.38507465  2.02464628  1.89347622
  H -2.48639402  0.46433351  1.69382612
  H  3.12406454  0.72390847  1.51522923
  H  4.98705115 -0.83438782  1.14254181
  H  4.93851972 -2.39220570 -0.76530087
  H  3.01704144 -2.37007524 -2.32278774
  H  1.14689869 -0.81669341 -1.94832249
