22
opt_min/./Reactant_4250_1_opt.xyz
  C -1.34608200  0.82423200  1.35371300
  C -1.70282284  0.22323061  0.00242994
  O -2.83911842  0.38632344 -0.44681965
  C -0.76897828 -0.64396286 -0.63306857
  C -1.29927495 -1.66721994 -1.60027263
  N  0.53877756 -0.80774619 -0.30163282
  C  1.47348495  0.05930436  0.05243568
  C  2.80904801 -0.48788900  0.43977984
  C  1.25996795  1.52432457 -0.04707712
  H -2.21392810  0.69881549  1.99838784
  H -0.48587523  0.34052551  1.80841926
  H -1.16180453  1.89294383  1.26591474
  H -0.71745897 -1.68729311 -2.52221026
  H -2.32573492 -1.40202012 -1.83762399
  H -1.29747888 -2.67080079 -1.16570205
  H  0.88444397 -1.75635182 -0.45904240
  H  2.76642270 -0.98417006  1.41207159
  H  3.54219799  0.30991189  0.50554412
  H  3.15989259 -1.22361019 -0.28783767
  H  0.39744160  1.72180300 -0.68269228
  H  2.14528168  1.98900960 -0.48258194
  H  1.08902302  1.99672920  0.92093539
