37
opt_min/./Reactant_3018_0_opt.xyz
  C -3.56682195 -0.17356534  3.01866640
  O -2.84325205  0.08868037  1.82125775
  C -1.87786435 -0.76762892  1.48838336
  O -1.57773720 -1.74440149  2.11665296
  C -1.21378467 -0.33117285  0.18333098
  C -2.18450771 -0.72898642 -0.96239993
  C -2.50260935 -2.19327387 -1.00541355
  O -2.62743363  0.08078156 -1.72565927
  C  0.03215357 -1.07617512 -0.05681700
  C  1.20730017 -0.92758732 -0.33615260
  C  2.56483300 -0.42068492 -0.61245646
  C  3.39541071 -0.53766737  0.68295480
  F  2.87431615  0.21902578  1.65749909
  F  4.65643560 -0.12126440  0.52039582
  F  3.45548879 -1.78232400  1.15514169
  C  3.20075203 -1.30658355 -1.70166354
  F  3.30277264 -2.58534695 -1.34132477
  F  4.42476147 -0.89827594 -2.05670991
  F  2.45617839 -1.28181108 -2.81647647
  C  2.66164045  1.08800972 -1.15612347
  C  1.72511848  2.21321070 -0.58793681
  C  0.48050717  1.38044580 -0.30486638
  C -0.95811369  1.27011429  0.17064427
  H -3.76753809  0.78734317  3.48794922
  H -2.97954228 -0.81220730  3.68064682
  H -4.50607520 -0.67060058  2.77084139
  H -3.43636621 -2.35086362 -0.46401337
  H -1.72709111 -2.79183296 -0.53683669
  H -2.66121061 -2.50728943 -2.03467395
  H  3.70619793  1.38422373 -1.04001010
  H  2.45453176  1.01605966 -2.22505107
  H  2.14305901  2.66072884  0.31261223
  H  1.61556367  2.98307470 -1.35029074
  H  0.93003607  0.79650815  0.49227887
  H  0.40094812  0.83870568 -1.24977892
  H -1.68865215  1.68712569 -0.52057580
  H -1.11996203  1.66402897  1.17023899
