19
opt_min/./Reactant_1689_0_opt.xyz
  C -2.69092400 -0.43306100  0.96148000
  N -2.56097273 -0.23702844 -0.48994951
  N -3.67742163 -0.18763973 -1.07817865
  N -1.44287580 -0.22373708 -1.08219184
  C -0.22527062 -0.15254937 -0.43834785
  C  0.73132015 -1.12950009 -0.72554974
  C  1.99801701 -1.04776853 -0.18488768
  C  2.34543234  0.01147790  0.63779237
  C  1.41202122  1.00030848  0.90326242
  C  0.13855695  0.92420846  0.37573531
  H -3.73560587 -0.27878816  1.21294553
  H -2.04584768  0.24552562  1.50947974
  H -2.40544395 -1.46103380  1.18966995
  H -3.54764054 -0.08526460 -2.08584804
  H  0.44952685 -1.94763309 -1.37083563
  H  2.72229397 -1.81748327 -0.41107833
  H  3.33776258  0.07182662  1.05775516
  H  1.68028203  1.84101768  1.52719044
  H -0.56568996  1.72554418  0.56000673
