23
opt_min/./Reactant_1309_0_opt.xyz
  C  0.19058770 -2.11724582 -1.06816774
  C -0.34208344 -0.79379750 -0.61025789
  N -1.47471148 -0.40043241 -1.15734283
  C -2.31965411  0.63380911 -0.86086119
  C -3.42909922  0.81446546 -1.68530783
  N -4.34055903  0.93546596 -2.37973700
  C -2.18884214  1.45808929  0.25290661
  N -2.12881255  2.15479065  1.16875809
  C  0.39444340 -0.00202924  0.36037841
  C  0.95881965 -0.60907399  1.48570662
  C  1.68897012  0.13361709  2.39129095
  C  1.88920561  1.48877522  2.18281004
  C  1.35823734  2.09639833  1.05698731
  C  0.61338251  1.36435861  0.15500267
  H  0.25690592 -2.14845774 -2.15698105
  H  1.18320124 -2.28966590 -0.66451685
  H -0.46095540 -2.93339235 -0.75079279
  H -1.82937063 -0.98804173 -1.91038193
  H  0.79211343 -1.66148672  1.66352935
  H  2.10210184 -0.34655944  3.26585930
  H  2.45902981  2.06799248  2.89299341
  H  1.52010565  3.14883652  0.88191171
  H  0.23059158  1.84532585 -0.73298228
