15
opt_min/./Reactant_3439_1_opt.xyz
  C  2.67708754  0.62834523 -1.93047257
  N  1.69857750  0.59603237 -0.87128066
  C  0.65026376 -0.25385161 -0.90275106
  O  0.39231316 -1.04090590 -1.79518231
  C -0.22874715 -0.21057868  0.21384647
  N -1.16861678 -0.37640808  0.90208478
  C -2.12384568 -0.43371598  1.77502984
  C -3.18473635 -1.34286358  1.62813192
  N -4.06879887 -2.06842669  1.54451947
  C -2.12218587  0.40851728  2.89915841
  N -2.12340046  1.09527822  3.81850451
  H  2.32343702 -0.02484514 -2.72620746
  H  3.64636768  0.27182778 -1.57775140
  H  2.78673348  1.64378853 -2.31227395
  H  1.84746839  1.18418899 -0.06660174
