31
opt_min/./Reactant_5388_1_opt.xyz
  C  0.03920900  3.85584400 -0.54412000
  N  0.29012240  2.46777757 -0.25078719
  C -0.66940594  1.51947149 -0.48785221
  O -1.75284546  1.86693804 -0.96681608
  C -0.28879963  0.15447531 -0.23095011
  N -1.09216044 -0.92665254 -0.47915674
  C -2.37895326 -1.19452047 -0.50964166
  C -2.74239921 -2.61532876 -0.82106681
  C -3.46266067 -0.24200178 -0.17045554
  C  1.10370173 -0.21769889  0.05665770
  C  1.78613565 -1.14055318 -0.74437278
  C  3.08701241 -1.50627843 -0.45884090
  C  3.74169908 -0.96587866  0.63579077
  C  3.07797029 -0.06076994  1.44790249
  C  1.77516779  0.30451148  1.16826047
  H -0.64135453  3.91981083 -1.39380067
  H  0.97494379  4.35712992 -0.78284085
  H -0.43320767  4.36009538  0.30525191
  H  1.21318728  2.19435126  0.03250365
  H -0.51978604 -1.76524469 -0.57748701
  H -2.64884812 -2.81989517 -1.88955332
  H -2.09496769 -3.31651069 -0.29152497
  H -3.77000564 -2.81475210 -0.53398137
  H -4.36670709 -0.48156187 -0.72529480
  H -3.69090278 -0.30574964  0.89543357
  H -3.16006485  0.77963933 -0.39565219
  H  1.30392334 -1.54479276 -1.62526529
  H  3.59762071 -2.21065325 -1.09969204
  H  4.75938093 -1.25110012  0.85626763
  H  3.57578709  0.35287512  2.31283166
  H  1.24980481  0.97513657  1.83336118
