24
opt_min/./Reactant_5073_0_opt.xyz
  C  1.07631013  1.54760847  4.31698482
  O  0.68299970  0.82064167  3.16440820
  C  1.04477153  1.32540912  1.96873838
  O  1.68274338  2.35130374  1.84414910
  C  0.53643701  0.46554414  0.91879088
  N  0.71181810  0.66147697 -0.37272738
  C  1.54273863  1.76983168 -0.80652408
  C  0.16749248 -0.11379124 -1.33517772
  C  0.44287700  0.12844943 -2.68765995
  N  0.69635777  0.28129810 -3.79936449
  C -0.73096511 -1.23987407 -1.07751784
  O -1.08532256 -1.65274751  0.00612868
  O -1.14062476 -1.78397147 -2.23603229
  C -2.01999411 -2.89116136 -2.12446501
  H  1.98527558  2.11696953  4.11362954
  H  0.27777626  2.23483775  4.60561511
  H  1.24489751  0.82111564  5.10852574
  H -0.06615587 -0.36980064  1.23971986
  H  1.68153128  1.74063945 -1.88434053
  H  1.07483303  2.71211908 -0.52030834
  H  2.50880701  1.72497618 -0.30628406
  H -1.51738146 -3.73039309 -1.63896335
  H -2.30026797 -3.15093113 -3.14145568
  H -2.90056958 -2.62110060 -1.53748054
