29
opt_min/./Reactant_2264_1_opt.xyz
  C  2.71155547  1.62821244  1.11205057
  O  2.17267538  0.32898042  1.05835421
  C  1.41909451  0.02975931 -0.10336112
  C  2.27155737  0.02941284 -1.37517215
  C  0.24017217  0.88289211 -0.24006689
  C -0.94463992  1.07372835 -0.27816566
  C -2.36983331  0.81741677 -0.13684987
  C -2.99890493  0.66044163 -1.43630734
  N -3.48039910  0.51101932 -2.46048999
  C -3.03040288  1.88604975  0.59240570
  N -3.51351803  2.73253969  1.18658991
  C -2.41827281 -0.50737262  0.68242866
  C -1.81260795 -1.74967193  0.00066106
  C -0.43398255 -1.72863356 -0.69093521
  C  0.79353904 -1.37261990  0.16794547
  H  1.94619432  2.38181078  0.89294518
  H  3.07028481  1.76455836  2.13035523
  H  3.54987472  1.75367433  0.41814173
  H  1.69935663 -0.38191991 -2.20267074
  H  3.15538127 -0.58276752 -1.21338630
  H  2.58144192  1.03851343 -1.63781515
  H -1.90808088 -0.31263860  1.62833947
  H -3.46455201 -0.74014089  0.89914166
  H -1.78024329 -2.52237068  0.77336697
  H -2.52199609 -2.08887646 -0.76020594
  H -0.47719938 -1.08109680 -1.56724404
  H -0.29814069 -2.74652068 -1.06383387
  H  1.58297578 -2.10649364  0.00180659
  H  0.53960085 -1.39605461  1.22801833
