23
opt_min/./Reactant_4141_1_opt.xyz
  C -4.11207340  1.10686292 -1.20011065
  N -2.85028584  0.52017612 -0.81472550
  C -2.58662089 -0.78517502 -1.09631549
  O -3.37703893 -1.47518703 -1.72074122
  C -1.29954227 -1.33271480 -0.66661104
  N -0.39720218 -0.66778043 -0.00103289
  C  0.80257134 -1.02030566  0.49166509
  C  1.42192534 -2.24398000  0.28782800
  N  1.98167513 -3.24512047  0.17191974
  C  1.44649088  0.09002093  1.20328682
  O  0.85726777  1.17034895  1.26503135
  N  2.65572073 -0.13673718  1.74562734
  C  3.37830997  0.89673552  2.44867372
  H -4.87279106  0.93564864 -0.43393118
  H -3.99089890  2.17468771 -1.36406343
  H -4.44408423  0.62686884 -2.12140823
  H -2.21680662  1.09552585 -0.28542707
  H -1.10907427 -2.36345423 -0.92839793
  H -0.54892040  0.31932513  0.29019704
  H  3.07682691 -1.04643811  1.63747750
  H  2.65920464  1.55734912  2.93191102
  H  3.98209139  1.48858192  1.75559649
  H  4.02369199  0.44142274  3.19583521
