25
opt_min/./Reactant_4380_1_opt.xyz
  C -1.35881131  3.40539823 -0.13360929
  O -0.64839707  2.17612373 -0.21852444
  C -1.28391659  1.10460567  0.26223809
  O -2.38885807  1.13581476  0.75393655
  C -0.50079501 -0.14169909  0.15814892
  O -1.10208229 -1.29808029  0.18785805
  C -2.36469730 -1.62443255  0.00899845
  C -2.66349241 -2.99637047  0.10540851
  N -2.93216330 -4.11039771  0.17297899
  C -3.44396750 -0.80982097 -0.36475802
  N -4.36443111 -0.24226221 -0.75504442
  C  0.95010078 -0.20089798  0.13807868
  C  1.74311220  0.84238339  0.62546886
  C  3.11947854  0.74451647  0.58411957
  C  3.73094002 -0.38869822  0.06785730
  C  2.95311542 -1.43527496 -0.40447403
  C  1.57706658 -1.34676848 -0.37042099
  H -0.83827566  4.10256328 -0.78705273
  H -1.35707804  3.77168639  0.89636562
  H -2.39300333  3.26542613 -0.45528917
  H  1.28185018  1.72019687  1.04955770
  H  3.72481784  1.55381870  0.96438140
  H  4.80714193 -0.45617495  0.03699391
  H  3.42042720 -2.32250838 -0.80579515
  H  0.97406836 -2.15971871 -0.74819148
