11
opt_min/./Reactant_65_1_opt.xyz
  C  3.33629978 -0.53862692  0.56466748
  N  2.25401208 -0.45055010  0.15500989
  N  1.20463543 -0.33347772 -0.45638184
  C  0.00406768  0.00707243  0.10722457
  O -0.24977321  0.01348993  1.28535917
  O -0.86047223  0.28318317 -0.87980120
  C -2.18192338  0.59053023 -0.46036986
  H  4.33703477 -0.59137562  0.85807043
  H -2.64459346 -0.27665253  0.01493858
  H -2.72260914  0.86626276 -1.36277659
  H -2.17530303  1.41869061  0.25207263
