25
opt_min/./Reactant_4877_1_opt.xyz
  C -2.26113487  0.96402414 -0.43372759
  C -1.19942058  1.09547223  0.59700721
  C -1.47665529  1.88337023  1.83346450
  N -0.01611508  0.54189658  0.45615022
  C  0.50027825 -0.28914300 -0.48957320
  C -0.33410741 -0.97628144 -1.37037790
  N -1.01090553 -1.60055176 -2.06783565
  C  1.92451217 -0.55042693 -0.51163904
  C  2.41878986 -1.59544904 -1.30384422
  C  3.76589273 -1.88446815 -1.33914090
  C  4.66411570 -1.14450712 -0.58646080
  C  4.19503516 -0.09694547  0.18759679
  C  2.84771831  0.20552010  0.22137997
  H -2.99321849  1.75882080 -0.31243400
  H -1.82423389  1.01866482 -1.43222209
  H -2.78267383  0.00563895 -0.37047783
  H -1.79759174  2.89665398  1.58287308
  H -2.28601974  1.41995004  2.40245073
  H -0.60007543  1.94553038  2.47786006
  H  0.67006800  0.79109676  1.16832476
  H  1.72241785 -2.18026362 -1.88708667
  H  4.12246421 -2.69631483 -1.95746739
  H  5.71885952 -1.37480458 -0.60882092
  H  4.88751684  0.49855749  0.76671584
  H  2.53192653  1.06001255  0.80764243
