16
opt_min/./Reactant_4081_0_opt.xyz
  C -2.49685154  1.15014436  0.67104776
  O -1.18352173  0.65201279  0.44141253
  C -1.04921198 -0.69190275  0.36406119
  O -1.95130178 -1.48309987  0.49499938
  C  0.33448161 -1.07786536  0.10761460
  C  0.68830045 -2.53015650  0.00860331
  N  1.22118123 -0.17317453 -0.04570472
  C  1.99013613  0.71245135 -0.19851736
  C  2.88857471  1.68928242 -0.33941126
  N  3.66853857  2.53498863 -0.47246518
  H -2.58284676  2.08193659  0.11410618
  H -3.24148864  0.42645219  0.32981202
  H -2.63679023  1.33609222  1.74103240
  H  1.66036368 -2.72469176  0.45635593
  H  0.71336801 -2.85257931 -1.03315232
  H -0.07722844 -3.10408913  0.52327230
