27
opt_min/./Reactant_1803_1_opt.xyz
  C  1.36879732  1.43029424  0.77442057
  O  0.61399398  0.25161999  0.92939666
  C  0.80799053 -0.73618300 -0.06807003
  C  2.25320072 -1.26766067 -0.07314420
  C  0.43745483 -0.16094521 -1.39848023
  C -0.50593842 -0.00234458 -2.15187753
  C -1.71582417 -0.31593334 -2.94794407
  F -1.37023295 -1.22298717 -3.92011629
  F -2.17191470  0.76956204 -3.63982266
  C -2.97385476 -0.88423832 -2.16775101
  C -2.80390462 -2.01200403 -1.08845446
  C -1.40909275 -1.65499212 -0.59499835
  C -0.24611344 -1.88955344  0.35307066
  H  1.19466818  1.87738487 -0.21124878
  H  1.02533908  2.10977828  1.55176113
  H  2.44132541  1.24880187  0.89838027
  H  2.86743128 -0.71980410 -0.78321652
  H  2.27324018 -2.31814437 -0.34781909
  H  2.67552635 -1.16171753  0.92337659
  H -3.41582953 -0.01070457 -1.68382336
  H -3.65162413 -1.20863016 -2.96044748
  H -3.60181636 -1.91642252 -0.35254880
  H -2.85120264 -3.00163803 -1.54040421
  H -1.55200270 -0.58649372 -0.42265593
  H -0.88997506 -1.86841032 -1.52862627
  H  0.21021347 -2.87072458  0.24519431
  H -0.47250325 -1.69344552  1.39914949
