30
opt_min/./Reactant_4500_1_opt.xyz
  C -0.26745000 -1.79267700  0.61149100
  C  0.08165936 -0.51136441 -0.08381817
  C  1.41561769 -0.21974233 -0.50548560
  C  1.65116898  0.67691806 -1.57215103
  C  2.92424343  0.96835088 -2.00695644
  C  4.02726488  0.36965566 -1.41661845
  C  3.82141452 -0.54250341 -0.39313876
  C  2.55063527 -0.83622021  0.05103160
  N -0.92851512  0.38447230 -0.29336546
  C -0.69369684  1.79265022 -0.01061827
  C -2.17212973 -0.00015493 -0.59219128
  C -2.39776113 -1.27343870 -1.33545506
  C -3.34090142  0.89551071 -0.33458591
  H  0.52156472 -2.05766145  1.31190907
  H -0.40087018 -2.64707438 -0.05735588
  H -1.19123259 -1.65681415  1.17403820
  H  0.80946387  1.11684605 -2.08807730
  H  3.05872840  1.65889170 -2.82866646
  H  5.02568669  0.59611404 -1.75904253
  H  4.66692227 -1.03213608  0.07078884
  H  2.43505297 -1.54696197  0.85589475
  H -1.02486903  2.42269823 -0.83592256
  H -1.24633639  2.08267028  0.88567193
  H  0.36600005  1.95005456  0.16869497
  H -3.21345967 -1.13961573 -2.04376199
  H -1.49210307 -1.53711008 -1.88269340
  H -2.65511829 -2.11976997 -0.69397354
  H -3.30801409  1.32896922  0.66538170
  H -4.26326868  0.32903379 -0.42365434
  H -3.38332392  1.72440309 -1.04750092
