18
opt_min/./Reactant_4536_0_opt.xyz
  C  3.13677746  1.09713352  0.69469029
  O -29.49604656  44.03434598  21.89664358
  C  33.70320579 -29.99387653  13.51745805
  O  8.29746688  24.94808092  17.74454133
  C -14.11092184  28.47862693  10.18702492
  N -23.00808773 -10.18622239 -4.65014899
  C -9.73785120  5.02230928  0.51831420
  C  5.91100276  8.13159454 -24.15998973
  N -5.91666113  9.24161146 -4.39438325
  C -4.56824599  22.09046459 -5.77696730
  C  10.47348654  2.77933742  3.76071785
  O  3.11483721 -11.81292293  5.84314918
  H  3.48345617 -15.94069377 -16.82809777
  H  1.26490974 -5.55269034 -17.60456631
  H  22.00123388 -11.12519942 -15.42022598
  H  2.53218757 -5.12789015 -0.97666596
  H  0.60301918 -1.50349876 -1.63413435
  H  2.10448113 -3.41593997 -3.36664271
