10
opt_min/./Reactant_4837_1_opt.xyz
  O  2.88813886 -0.84774212  0.48997444
  C  2.68168452 -0.14624342 -0.38986447
  O  2.49208087  0.54764861 -1.27844381
  C -0.31413682 -0.29709899  0.46454420
  C -0.73310309  0.41968950 -0.39372385
  C -3.79772159  0.43158426  0.24994271
  O -3.66462582 -0.25930732  1.15124544
  O -3.94723492  1.13751277 -0.63824456
  H  0.04780378 -0.92551743  1.22419457
  H -1.09294287  1.05056694 -1.15241433
