20
opt_min/./Reactant_4499_0_opt.xyz
  C  3.34427601  0.18610212  0.87941393
  N  1.92680748  0.18251291  0.68369043
  O  1.63754972 -0.27553078 -0.51991346
  C  0.42621634 -0.43707821 -0.98194567
  C  0.41763880 -0.92857714 -2.30292070
  N  0.39661383 -1.33303458 -3.37808096
  C -0.83646037 -0.18464590 -0.31789904
  C -0.90202347  0.30132839  0.99355792
  C -2.12955808  0.52551946  1.58768261
  C -3.30443862  0.27535512  0.89834665
  C -3.24938431 -0.20556980 -0.40288462
  C -2.03307572 -0.43466064 -1.00846471
  H  3.60886389  1.14061887  1.33208971
  H  3.61106126 -0.61111793  1.57765673
  H  3.89117937  0.04140531 -0.05465814
  H  0.00637064  0.50018561  1.53855327
  H -2.16862399  0.90020445  2.59971715
  H -4.26077036  0.45247117  1.36722201
  H -4.16189082 -0.40198212 -0.94531634
  H -1.99165008 -0.80885669 -2.02054324
