23
opt_min/./Reactant_3441_1_opt.xyz
  C  4.85770937  1.06844166 -0.77100148
  N  3.52491844  0.70416992 -0.36388967
  C  3.30569841 -0.38993629  0.42584745
  O  4.19700115 -1.08008241  0.89717672
  C  1.95191402 -0.66339868  0.69355756
  N  0.85651172 -1.00108865  0.98567469
  C -0.33067739 -1.38494965  1.26661934
  C -1.51132530 -0.72308396  0.78732994
  C -1.44642322  0.37133500 -0.08506337
  C -2.59938119  0.98354113 -0.53063309
  C -3.84098435  0.52366062 -0.12009428
  C -3.91870735 -0.55827195  0.74333115
  C -2.77150376 -1.17672296  1.19435262
  H  5.55335303  0.57193425 -0.09441277
  H  4.98833645  2.14874413 -0.70781620
  H  5.06908987  0.73480281 -1.79201183
  H  2.74666152  1.18998755 -0.77767617
  H -0.42013108 -2.23355554  1.92847763
  H -0.47978460  0.73234038 -0.40679469
  H -2.52880076  1.82563146 -1.20438264
  H -4.74261315  1.00426115 -0.47028343
  H -4.88505866 -0.91794980  1.06609020
  H -2.84092362 -2.01992424  1.86630762
