24
opt_min/./Reactant_5083_0_opt.xyz
  C -2.15214595 -2.95896002 -0.27171832
  N -1.28810446 -1.80640597 -0.22494296
  C -1.75505846 -0.58994774  0.15125798
  O -2.89341765 -0.40059579  0.53639323
  C -0.76805051  0.51486104  0.03049346
  N -1.26920978  1.69176742 -0.04595005
  C -1.81197275  2.73976157 -0.10808721
  C -2.38099765  3.94434571 -0.15560817
  N -2.86192452  4.99743013 -0.20754178
  C  0.68019026  0.35563815 -0.01101585
  C  1.31354203 -0.68134775  0.68005881
  C  2.68872484 -0.80736747  0.64098640
  C  3.45806205  0.09448955 -0.07628133
  C  2.84101353  1.13483198 -0.75087764
  C  1.46674757  1.26879109 -0.72052072
  H -2.50271119 -3.15816081 -1.28960989
  H -1.61984854 -3.83430169  0.10135523
  H -3.01581449 -2.75463694  0.35965380
  H -0.39398061 -1.86939728 -0.68576018
  H  0.73116325 -1.37129648  1.27141648
  H  3.16555084 -1.61152703  1.18320472
  H  4.53274149 -0.00790084 -0.10374816
  H  3.43357360  1.84744224 -1.30740260
  H  0.99073583  2.07797479 -1.25624070
