24
opt_min/./Reactant_234_0_opt.xyz
  C  4.03938200 -0.68305800  0.07092400
  N  2.74463370 -0.37921620 -0.48332278
  C  1.63101991 -0.31189959  0.29552527
  O  1.67142437 -0.58767303  1.51003669
  C  0.37663477  0.04681473 -0.30994291
  C  0.20323553  0.47969886 -1.73167498
  N -0.60127412  0.01354476  0.61887250
  C -1.89808004  0.13137505  0.69096970
  C -2.55057710  0.01453490  2.03078670
  C -2.78856468  0.41585477 -0.48056969
  H  4.56995730  0.22612855  0.37467771
  H  4.64060144 -1.22112043 -0.65994176
  H  3.89426814 -1.30126322  0.95453224
  H  2.68216802 -0.17089502 -1.46325372
  H  1.08083862  1.02815361 -2.06881349
  H -0.64733022  1.14457029 -1.82215040
  H  0.05135754 -0.36232958 -2.41301181
  H -0.09545832 -0.23566381  1.49988504
  H -1.81769115 -0.16323796  2.81308740
  H -3.26553226 -0.81026587  2.03333738
  H -3.10037857  0.92370900  2.27316331
  H -2.87464684  1.49280425 -0.64703897
  H -2.41511479 -0.04628902 -1.38967727
  H -3.78621510  0.03207315 -0.28541733
