12
opt_min/./Reactant_2205_1_opt.xyz
  C -1.75492982 -0.06045027  1.00556509
  C -0.25999959 -0.05146039  0.98020939
  C  0.44992946 -0.33313783  2.15390421
  N  0.98295434 -0.55557430  3.14702015
  N  0.37320549  0.21563429 -0.14456741
  N  1.65960095  0.22997164 -0.28371786
  C  2.22893858  0.52634200 -1.40840358
  N  2.85942541  0.78264922 -2.34018805
  H -2.13470812 -1.05377533  0.75712232
  H -2.15747910  0.65438244  0.28917718
  H -2.11210472  0.19469542  2.00048125
  H -0.23443396  0.43350131 -0.95104049
