30
opt_min/./Reactant_3087_0_opt.xyz
 Cl -3.00473216  2.58114484  1.83236366
  C -2.38090315  1.53761175  0.50627158
 Cl -2.86573374  2.28959526 -1.05302303
  C -0.96593004  1.35593079  0.55257384
  C  0.07654239  0.75959631  0.53244889
  C  1.01185224 -0.33130468  0.41530114
  C  2.30808849 -0.01456363 -0.28261186
  C  3.49844112 -0.58287197  0.14909694
  C  4.68322108 -0.31345275 -0.51286671
  C  4.68968534  0.52984758 -1.61066586
  C  3.50560698  1.10231630 -2.04490610
  C  2.32079766  0.82999720 -1.38536374
  C  0.21879623 -1.40033766 -0.38166590
  C -1.18725953 -1.76764345  0.13044813
  C -2.41128189 -0.93004790 -0.32147146
  C -2.99329660  0.13616959  0.62839682
  H  1.22086610 -0.70747653  1.42442076
  H  3.49925411 -1.24080898  1.00700576
  H  5.60426606 -0.76057752 -0.16871616
  H  5.61481709  0.74303402 -2.12441521
  H  3.50579198  1.76355748 -2.89866735
  H  1.39666428  1.28168866 -1.71714938
  H  0.83144608 -2.30631925 -0.37299005
  H  0.13885366 -1.07018850 -1.41954101
  H -1.36361274 -2.76558601 -0.27883416
  H -1.18519437 -1.86823310  1.21605284
  H -2.22159816 -0.49532962 -1.30222646
  H -3.22420293 -1.64867323 -0.44589248
  H -4.06346270  0.23570530  0.43516947
  H -2.86883682 -0.19214748  1.66252879
