24
opt_min/./Reactant_1251_1_opt.xyz
  N  3.30122884  1.68826291  0.86869778
  C  2.65085773  1.10890656  0.13177864
  C  1.79179740  0.38197218 -0.78953377
  C  2.60384721 -0.19632999 -1.84290415
  N  3.22861946 -0.66209195 -2.67608008
  C  1.01339464 -0.60228894 -0.06223609
  C  0.05438734 -1.13532535  0.41850171
  C -1.28419133 -1.30684856  0.95820507
  C -1.26463720 -1.91271667  2.27613886
  N -1.23962543 -2.37598770  3.31839431
  C -2.07475121 -2.12274299  0.05234796
  N -2.68917656 -2.74308958 -0.68208340
  C -1.85468305  0.14479034  1.01729905
  C -1.64671065  0.95617628 -0.27765686
  C -0.35025159  1.80456154 -0.37441995
  C  0.71274050  1.34275749 -1.39159303
  H -2.92287688  0.07210968  1.23793682
  H -1.37441639  0.65868848  1.85358926
  H -2.48968361  1.64487430 -0.33094655
  H -1.72743885  0.30001164 -1.14517024
  H  0.10046084  1.90985458  0.61314388
  H -0.64290467  2.80716223 -0.68692366
  H  1.23080927  2.21122326 -1.80464493
  H  0.22799204  0.81854415 -2.21847516
