24
opt_min/./Reactant_1361_0_opt.xyz
  C -4.29502918  1.27109391  0.54202216
  N -3.25942695  0.39637850  0.05763370
  C -1.96302285  0.61066943  0.31663996
  O -1.51917455  1.52326317  0.98643820
  C -1.03902931 -0.41635838 -0.29884898
  N  0.21124494 -0.22801623 -0.05956236
  C  1.31649063  0.05441284  0.22039548
  C  2.70336773  0.17333398  0.45688535
  O  3.50110438 -0.62664863  0.01932432
  O  3.00757206  1.24983889  1.19269761
  C  4.39001219  1.43825803  1.45408328
  C -1.45714949 -1.54894419 -1.10918714
  C -0.35585101 -2.43776478 -1.62850978
  O -2.62798639 -1.76915944 -1.38238180
  H -4.73990461  1.83564420 -0.28083472
  H -3.84944443  1.96794975  1.25081696
  H -5.07318595  0.69184092  1.04005770
  H -3.49784771 -0.40325498 -0.52322772
  H  4.83704975  0.51793334  1.83570991
  H  4.44952368  2.23058243  2.19563688
  H  4.91247681  1.73282294  0.54116629
  H  0.46663449 -2.53154900 -0.92509686
  H -0.76465228 -3.41801343 -1.85918353
  H  0.03018350 -2.00900069 -2.55338497
