30
opt_min/./Reactant_5048_1_opt.xyz
  C -2.74500393  3.04552392 -1.38171332
  C -2.36991138  1.59609917 -1.14147330
  O -3.16284727  0.70577552 -1.43619647
  C -1.05119602  1.37767391 -0.60482256
  C -0.22572380  2.48781971 -0.39683411
  N  0.44443851  3.40132205 -0.18368955
  N -0.53089250  0.14981404 -0.24229752
  C -1.47584864 -0.92999006 -0.01918395
  C  0.77686216 -0.08723008 -0.20340932
  C  1.69035740  0.65386499 -1.12804539
  C  1.35568742 -1.05201022  0.71180929
  C  0.71478736 -1.35198123  1.92558545
  C  1.28718192 -2.20043845  2.85186606
  C  2.52035174 -2.78069650  2.60546382
  C  3.18445207 -2.47327108  1.42838579
  C  2.62001852 -1.62053572  0.50221463
  H -2.16149848  3.73615370 -0.78276202
  H -2.59209621  3.27611672 -2.43558192
  H -3.80551887  3.16478610 -1.17161401
  H -2.13458653 -0.97889530 -0.88801341
  H -2.11086910 -0.73025489  0.84509595
  H -0.94802319 -1.87023265  0.10894174
  H  2.31958990 -0.05962147 -1.65710374
  H  2.34051531  1.35409282 -0.60320440
  H  1.12265031  1.21039745 -1.87005436
  H -0.21682767 -0.87659124  2.18916788
  H  0.76657034 -2.40132611  3.77623374
  H  2.96802009 -3.44980020  3.32381473
  H  4.15568517 -2.90137468  1.22932591
  H  3.17053070 -1.41539750 -0.40163332
