34
opt_min/./Reactant_1347_1_opt.xyz
  C -2.00622809  2.71773748 -0.18822141
  O -2.54481958  1.74415901  0.67248539
  C -1.79530140  0.56739958  0.78769793
  O -2.26802288 -0.16215055  1.87479133
  C -2.15886878  0.48264521  3.12975925
  C -0.31550979  0.80756131  0.96754989
  C  0.78032993  0.34646764  0.70694130
  C  1.88347512 -0.42441997  0.07074286
  C  2.24749961  0.31838918 -1.11479689
  N  2.50336160  0.89475174 -2.06922009
  C  3.06796994 -0.59874521  1.05377600
  C  4.42976057 -0.38569552  0.46318326
  O  2.86773436 -0.90691620  2.19516298
  C  1.49809554 -1.91196128 -0.37004900
  C  0.23041126 -2.14614920 -1.25785507
  C -0.68722392 -1.10816577 -0.61812719
  C -2.03955853 -0.42976539 -0.47018372
  H -1.94956936  2.36627603 -1.22338907
  H -1.00240784  3.01558419  0.13793720
  H -2.67866528  3.57076513 -0.13130357
  H -1.11593413  0.74641878  3.33757652
  H -2.77705726  1.38280935  3.16361124
  H -2.51098392 -0.23820828  3.86370885
  H  4.51477713  0.63115301  0.08261352
  H  5.19117945 -0.55918147  1.21962157
  H  4.58220790 -1.06196034 -0.37653812
  H  2.38615589 -2.32914364 -0.85288920
  H  1.34074057 -2.45698842  0.56567460
  H -0.08019260 -3.18413330 -1.14660359
  H  0.43702287 -1.94141408 -2.30818326
  H -0.13246324 -0.23169960 -0.95339831
  H -0.51422776 -1.35046870  0.43392136
  H -2.31953813  0.16191168 -1.34087145
  H -2.86943143 -1.06591473 -0.17340786
