33
opt_min/./Reactant_2734_1_opt.xyz
  C -2.74035297 -2.78813595 -1.25058425
  N -2.00362107 -1.76619800 -0.54515061
  C -1.13977595 -0.95143068 -1.16987903
  O -0.83731517 -1.03993577 -2.33668041
  C -0.48143862  0.08663460 -0.22421302
  C -1.51706929  0.88793385  0.56037936
  O -2.71116639  0.79700492  0.44978095
  O -0.90611553  1.71307434  1.41112194
  C -1.74835180  2.54091019  2.20460920
  C  0.35460267 -0.63358082  0.74964494
  C  1.45795050 -0.82479653  1.23216336
  C  2.90322351 -0.75493954  1.34974524
 Br  3.49787776 -1.23921631  3.18629891
 Br  3.67357780 -2.14006389  0.11228477
  C  3.59797697  0.62118836  1.01348727
  C  3.26923040  1.34991978 -0.33764120
  C  1.78719325  1.00670822 -0.42767566
  C  0.42524749  1.11739692 -1.09624561
  H -2.48831467 -3.77530415 -0.85887613
  H -2.45497164 -2.73606824 -2.29976263
  H -3.81330844 -2.62332505 -1.15315999
  H -2.28130494 -1.57122504  0.40324964
  H -2.45598724  3.07992345  1.57231270
  H -2.30646946  1.93537190  2.92099695
  H -1.08908334  3.23151482  2.72333009
  H  4.67247716  0.43927114  1.08757322
  H  3.31120402  1.29202246  1.82760360
  H  3.85775976  0.94177808 -1.15772612
  H  3.50467027  2.40807042 -0.22146573
  H  1.48857560  1.25337029  0.59404555
  H  1.92399782 -0.06158998 -0.58775042
  H -0.02584594  2.10749286 -1.03595446
  H  0.40763394  0.76618529 -2.12644146
