21
opt_min/./Reactant_3586_1_opt.xyz
  C  3.62326700 -0.19261500 -0.04044700
  C  3.30484565 -1.42308329  0.77354044
  O  4.14944669 -2.22344319  1.12653162
  C  1.90976939 -1.61582218  1.10691367
  O  1.03182768 -0.74413786  0.72174467
  N -0.24188158 -0.91230234  1.03526718
  C -1.10034644  0.02242171  0.52808633
  C -0.71959999  1.10635208 -0.27987126
  C -1.66945951  1.99673815 -0.73262319
  C -3.00452931  1.82351254 -0.39547415
  C -3.38826356  0.75966591  0.40690538
  C -2.44806301 -0.13743895  0.86941745
  H  2.89592739 -0.03884061 -0.83363943
  H  4.61964982 -0.28580025 -0.46549708
  H  3.60396167  0.67866148  0.61659007
  H  1.60483374 -2.48183859  1.68091138
  H  0.31986593  1.24449552 -0.53798874
  H -1.36995004  2.82749818 -1.35393609
  H -3.74561631  2.52015895 -0.76065001
  H -4.42699056  0.62703371  0.67168567
  H -2.72843997 -0.96808576  1.49798436
