10
opt_min/./Reactant_2361_0_opt.xyz
  C -1.37898600  0.07789800 -0.82060200
  O -0.65756640  0.28270879  0.38181845
  C  0.60937004 -0.11185293  0.45291820
 Br  1.12064167 -1.77754221 -0.35729440
  C  1.52363250  0.57998126  1.13940536
 Br  1.04718234  2.24087249  1.90989653
 Br  3.27251933 -0.00940088  1.45102807
  H -2.37677116  0.47059588 -0.63507539
  H -1.44082472 -0.98621622 -1.06397573
  H -0.91495438  0.62305351 -1.64723998
