41
opt_min/./Reactant_5272_1_opt.xyz
  C  1.52196000  0.33737200  3.61275400
  N  1.31488009 -0.33317789  2.35444718
  C  2.14877941 -0.14229680  1.29154682
  O  3.07351290  0.63968818  1.31300130
  C  1.81607988 -0.99729962  0.12089926
  O  0.60514759 -1.23751707 -0.35335954
  C -0.59546898 -0.77868413 -0.12047774
  C -1.63045747 -1.58711835 -0.82880965
  C -2.39371767 -2.53257088 -0.15193187
  C -3.33111271 -3.28774695 -0.83426617
  C -3.50673229 -3.11524063 -2.19695546
  C -2.73715702 -2.18833636 -2.88008687
  C -1.80185749 -1.42881273 -2.20028771
  C -0.98078729  0.39351656  0.63244284
  C -0.14156360  1.51512819  0.71415898
  C -0.54023672  2.64420276  1.39879685
  C -1.78253222  2.69283941  2.01190246
  C -2.64289305  1.61205644  1.89546719
  C -2.25649914  0.48090658  1.20613475
  C  2.90457592 -1.76229601 -0.51191799
  O  4.00420435 -1.88602149 -0.00675655
  N  2.58118384 -2.31317558 -1.71762076
  C  3.49706812 -3.16067210 -2.43482360
  H  2.33500126  1.04587507  3.46617501
  H  1.79709650 -0.36916113  4.39775939
  H  0.61704914  0.87332882  3.90747969
  H  0.65491082 -1.09408161  2.33906386
  H -2.24763300 -2.68692931  0.90746843
  H -3.92177913 -4.01779924 -0.30099515
  H -4.23817363 -3.70799012 -2.72502980
  H -2.86831887 -2.05793099 -3.94379768
  H -1.20326250 -0.70439060 -2.73293793
  H  0.81103309  1.51789025  0.20788997
  H  0.12719777  3.49090942  1.44924141
  H -2.08211141  3.57320504  2.55970651
  H -3.62434637  1.65103615  2.34489919
  H -2.94203822 -0.34739151  1.11477693
  H  1.63998195 -2.22737392 -2.06447457
  H  3.13287098 -4.19012632 -2.47991911
  H  4.44298266 -3.13599846 -1.89612114
  H  3.64773266 -2.79062903 -3.45058802
