21
opt_min/./Reactant_1398_0_opt.xyz
  C  0.38327996  0.89928756  1.84216025
  C  0.92031905  0.67869861  0.45402317
  C  2.06616762  1.37611336  0.12871705
  N  3.01423228  2.00457882 -0.09424097
  N  0.41111382 -0.24029578 -0.41364153
  C  1.32662052 -0.70369993 -1.45015855
  C -0.79766119 -0.78603395 -0.37565512
  C -1.08645597 -2.02699458 -1.16269192
  C -1.96068871 -0.16538668  0.32971215
  H  1.21625091  1.14603205  2.49940128
  H -0.32925576  1.72197348  1.90916473
  H -0.08661152 -0.00937318  2.21209008
  H  2.16244346 -0.01100735 -1.52082194
  H  0.82408578 -0.75638329 -2.41266597
  H  1.71696477 -1.69006982 -1.19576824
  H -2.02353184 -2.45636036 -0.82183350
  H -0.30491957 -2.77668696 -1.03886974
  H -1.18449701 -1.82733176 -2.23386584
  H -2.19811529 -0.67010597  1.26894099
  H -2.83729991 -0.25185740 -0.31207707
  H -1.79580576  0.88664869  0.52656681
