18
opt_min/./Reactant_3580_1_opt.xyz
  N  3.66185852  4.49791762  1.24011851
  C  3.09539070  3.65343338  0.68342381
  C  2.43150393  2.68908738  0.04949639
  N  1.86571912  1.79967990 -0.48869532
  C  1.25348345  0.81106306 -1.03233425
  C  1.53296991  0.51323691 -2.37542448
  N  1.71481245  0.24369532 -3.47642144
  C  0.27832175  0.01123174 -0.29462621
  C -0.12628803 -1.23032113 -0.78596403
  C -1.05245678 -1.97829340 -0.08555483
  C -1.57746109 -1.50218484  1.10438175
  C -1.18000881 -0.27095890  1.59572366
  C -0.25796626  0.49057421  0.90295375
  H  0.29031769 -1.60130084 -1.70994279
  H -1.36840428 -2.93621765 -0.47011533
  H -2.29936794 -2.09170313  1.64885343
  H -1.58857895  0.10008681  2.52392779
  H  0.03600170  1.45489044  1.28772914
