24
opt_min/./Reactant_4659_0_opt.xyz
  C  3.01111301  0.59727200  0.50124389
  O  1.65064867  0.28234255  0.26941784
  C  1.40723987 -0.78052063 -0.57789217
  O  2.30458172 -1.37831894 -1.13352011
  C  0.02402562 -1.13982792 -0.63003002
  C -0.30385382 -2.40877371 -1.11113154
  N -0.62313005 -3.43642556 -1.52204192
  N -1.01630893 -0.41025243 -0.05712651
  C -1.98674552 -1.19189015  0.69997506
  C -1.19132048  0.87571242 -0.23491341
  C -0.32780785  1.61864119 -1.17989190
  C -2.25574563  1.63367473  0.47928142
  H  3.21399384  0.49921818  1.56902043
  H  3.20133143  1.62462001  0.18273576
  H  3.64660361 -0.08954329 -0.06292261
  H -2.93490068 -1.25320116  0.16223944
  H -1.60254540 -2.20068764  0.83721595
  H -2.15099912 -0.75164897  1.68211256
  H  0.57512267  1.97301077 -0.68105728
  H -0.00846761  0.95222543 -1.98567109
  H -0.84877806  2.47909177 -1.59506146
  H -1.83745732  2.10129720  1.37390511
  H -3.09961345  1.01717277  0.77400326
  H -2.63056721  2.43214905 -0.15818599
