28
opt_min/./Reactant_5481_1_opt.xyz
  C  4.68162800  0.50567500 -1.08455500
  O  3.29011886  0.44430181 -0.80547485
  C  2.96633044  0.03494614  0.43640526
  O  3.80015591 -0.23862367  1.26996826
  C  1.53518014 -0.05230843  0.73132287
  N  0.51718180  0.34346517  0.00833357
  C  0.71256955  1.07068208 -1.22860328
  C -0.75640395 -0.07441051  0.34313426
  C -0.86129764 -1.46363581  0.75350024
  C -2.23207504 -2.07709713  0.87767323
  O  0.13667783 -2.15050490  0.92634900
  C -1.82531995  0.88967582  0.17072928
  O -1.63318875  2.06813189 -0.07332883
  O -3.07201005  0.40625761  0.36720709
  C -4.11652394  1.36352187  0.29456744
  H  5.19820472  1.06603964 -0.30305450
  H  4.77776599  1.00419049 -2.04550701
  H  5.10147752 -0.50087736 -1.13126857
  H  1.34316355 -0.46873076  1.70761229
  H  1.24959974  1.99847184 -1.03796595
  H  1.30131243  0.46454188 -1.91616434
  H -0.24744358  1.30538100 -1.67523998
  H -2.79783797 -1.95085542 -0.04054256
  H -2.11210041 -3.13512503  1.09585720
  H -2.78194768 -1.59497146  1.68062523
  H -5.04377807  0.79729984  0.25909266
  H -4.10067097  2.01071058  1.17445730
  H -4.00619703  1.98367114 -0.59739350
