26
opt_min/./Reactant_1026_1_opt.xyz
  C  0.76407909 -1.17774005  3.31628098
  N  0.51770408 -0.72851706  1.96559724
  C -0.70837328 -0.30686291  1.58443704
  O -1.66053538 -0.32175531  2.35220800
  C -0.81454998  0.15133411  0.18687993
  N  0.21686573  0.14255600 -0.56928581
  C  1.13681931  0.15646651 -1.30591344
  C  2.21672054  0.19740674 -2.21232023
  O  2.11566992  0.47491070 -3.37964445
  O  3.36815695 -0.14213272 -1.58897984
  C  4.52195059 -0.13302444 -2.41831771
  C -2.08828367  0.64910868 -0.43759383
  O -2.11199440  1.04778627 -1.58490097
  N -3.15530234  0.61137903  0.37193861
  C -4.44151389  1.06525301 -0.10417818
  H -0.10375641 -1.73744404  3.66498487
  H  1.64624330 -1.81227517  3.33273148
  H  0.91530708 -0.32912296  3.98889805
  H  1.29520674 -0.68283666  1.32875840
  H  4.80466499  0.89402877 -2.65910692
  H  4.32493583 -0.67319210 -3.34680584
  H  5.30719047 -0.62153505 -1.84743845
  H -3.06539773  0.26675079  1.32234603
  H -4.78771871  0.43536350 -0.92719502
  H -5.15745573  1.02811421  0.71171462
  H -4.36313751  2.08743910 -0.48035540
