44
opt_min/./Reactant_3042_0_opt.xyz
  C -3.98883076 -2.79276260  0.83686004
  N -3.00541807 -1.75855287  0.59835994
  C -3.09446423 -0.92689134 -0.47350340
  O -4.03468716 -0.92069729 -1.23388104
  C -1.90833929  0.03092467 -0.59422949
  C -2.21825899  1.38330534  0.08898963
  O -1.79802126  2.43280846 -0.33871360
  N -2.92451506  1.27212541  1.23098121
  C -3.31313580  2.42435503  2.00949660
  C -0.67635983 -0.46859437 -0.02138916
  C  0.47035323 -0.83056187 -0.00785975
  C  1.84555662 -0.88291181 -0.43542475
 Cl  2.29027794 -2.61002207 -0.75992545
  C  2.83020078 -0.25494410  0.51951252
  C  4.17440247 -0.60168460  0.51188018
  C  5.06509637  0.02504003  1.36429179
  C  4.62555284  1.01293168  2.22947332
  C  3.28859577  1.37318068  2.23286003
  C  2.39724964  0.74570020  1.38203013
  C  1.80511785 -0.09924330 -1.76763804
  C  0.85731236 -0.63901520 -2.85511208
  C -0.67010016 -0.84949858 -2.69153304
  C -1.54848556  0.25911330 -2.08869181
  H -4.61894143 -2.53442565  1.69084679
  H -4.61664194 -2.87392841 -0.04952471
  H -3.50009109 -3.74616019  1.02835017
  H -2.10480385 -1.84893921  1.04742280
  H -3.30261184  0.37759638  1.50109311
  H -2.95770771  2.32535762  3.03606178
  H -4.39798453  2.54214431  2.01216344
  H -2.85602454  3.29910647  1.55112844
  H  4.52595619 -1.37076825 -0.15913938
  H  6.10675621 -0.25872232  1.35019856
  H  5.32084671  1.50079051  2.89544506
  H  2.93737797  2.14718416  2.89885434
  H  1.35509165  1.03364971  1.38162326
  H  2.80715601 -0.09700973 -2.20658276
  H  1.54716676  0.93706226 -1.53364002
  H  0.99201259  0.02847352 -3.71385170
  H  1.23766244 -1.62120909 -3.14955030
  H -1.03662652 -1.02506825 -3.70692060
  H -0.85123619 -1.78364860 -2.15423282
  H -2.49938362  0.28566480 -2.62800179
  H -1.07735339  1.23795746 -2.18515271
