19
opt_min/./Reactant_522_0_opt.xyz
  C -2.10389800 -0.83573700 -1.21906500
  C -1.41668191 -0.16352891 -0.06468710
  O -2.26920100  0.24902756  0.81420098
  N -1.97166737  0.87876941  1.95242068
  C  0.01705026 -0.02599342 -0.01568922
  C  0.81027530 -0.51492018 -1.06841742
  C  2.18224854 -0.38635169 -1.03591260
  C  2.80673006  0.22903729  0.03930318
  C  2.03918828  0.71528688  1.08450754
  C  0.66384720  0.59287556  1.06575132
  H -1.90522631 -0.30967252 -2.15155016
  H -1.76505595 -1.86504973 -1.32456403
  H -3.17630791 -0.83675521 -1.04067650
  H -2.87714000  1.05623957  2.39423701
  H  0.34972791 -0.99650398 -1.91599614
  H  2.77393447 -0.76863661 -1.85543278
  H  3.88204273  0.32650855  0.05878330
  H  2.51666572  1.19565056  1.92593966
  H  0.07131818  0.97269009  1.88186878
