32
opt_min/./Reactant_2805_0_opt.xyz
  C -1.61376997  4.50508904 -0.82188181
  N -1.13608864  3.19063515 -0.46233859
  C -1.47913761  2.08482192 -1.17562075
  O -2.22262446  2.12032795 -2.13502052
  C -0.86035035  0.81480095 -0.69337133
  N  0.32362285  0.87861748 -0.12765092
  C  1.09825120 -0.02938553  0.52004232
  C  0.71736748 -1.32379423  0.86093690
  N  0.45194986 -2.40215772  1.16418532
  C  2.35516952  0.54399849  0.96537228
  O  2.62383077  1.71507744  0.73367041
  O  3.14555239 -0.31184362  1.61710067
  C  4.38442214  0.18984464  2.09635609
  C -1.56699228 -0.43265026 -0.94682658
  C -0.90155912 -1.54258573 -1.47259492
  C -1.59805261 -2.70217425 -1.74876478
  C -2.95910749 -2.77508698 -1.50197811
  C -3.63016862 -1.67222949 -0.99869953
  C -2.94408872 -0.50468593 -0.72999427
  H -0.79378784  5.12713763 -1.18895787
  H -2.34785951  4.38310988 -1.61803615
  H -2.07804736  4.98947216  0.03721612
  H -0.61441041  3.11177988  0.39614777
  H  0.83947463  1.77292504 -0.14617771
  H  5.10368461 -0.62462379  2.02470768
  H  4.70492503  1.04214856  1.49367690
  H  4.27553727  0.50127263  3.13779203
  H  0.15203622 -1.48684246 -1.70174511
  H -1.07433855 -3.55169768 -2.15918063
  H -3.49738997 -3.68759627 -1.70895606
  H -4.69338658 -1.72419968 -0.81777798
  H -3.46699634  0.35476958 -0.33847576
