33
opt_min/./Reactant_5713_0_opt.xyz
  C  1.99325000  3.02730300 -1.28268400
  N  1.38599779  1.71942743 -1.30238737
  C  1.70039857  0.77607815 -0.38607606
  O  2.50831383  0.90564442  0.49703945
  C  1.01548536 -0.55001272 -0.65638626
  O -0.22827992 -0.83724795 -0.64624615
  C -1.37130328 -0.22415155 -0.38396257
  C -2.48218088 -1.17617561 -0.56661902
  O -2.27959357 -2.31574968 -0.93017730
  O -3.68392249 -0.65761781 -0.32110241
  C -4.80929164 -1.51416399 -0.47718608
  C -1.44955125  1.10049375  0.22998112
  O -0.48980201  1.66918451  0.70478594
  O -2.68528389  1.61239656  0.21908254
  C -2.84573694  2.86075411  0.87914256
  C  1.91176330 -1.68182290 -1.09038733
  O  3.05877500 -1.48943071 -1.43536828
  N  1.31542383 -2.89159211 -1.07406629
  C  2.01204818 -4.06965798 -1.52949852
  H  1.23403732  3.79983830 -1.15308641
  H  2.54465683  3.20935450 -2.20694630
  H  2.67835816  3.04952379 -0.43807511
  H  0.72042678  1.52396317 -2.03388190
  H -5.51632896 -1.01772063 -1.14106244
  H -5.26589136 -1.66911294  0.50110136
  H -4.49639992 -2.47077254 -0.89962104
  H -2.88994099  2.71005488  1.95994706
  H -3.78254212  3.27699306  0.51772938
  H -2.00864988  3.52375305  0.65043825
  H  0.32746569 -2.96346397 -0.87705361
  H  2.00942828 -4.13354265 -2.62119153
  H  1.53676070 -4.95466536 -1.11484208
  H  3.04767104 -4.01022052 -1.19503354
