28
opt_min/./Reactant_602_0_opt.xyz
  C -1.98098600  1.68031200  0.30871700
  C -2.55229141  0.28674713  0.11257133
  O -3.76687363  0.13238777 -0.00303537
  C -1.68042921 -0.84049960  0.27623833
  C -2.29024610 -2.12646127  0.76568107
  O -0.35387003 -0.85362914  0.30206874
  C  0.51215566 -0.15908147 -0.39365014
  C  0.10430289  0.66089419 -1.57076580
  C  1.89371915 -0.34100480 -0.03324810
  C  2.24927020 -1.21634007  1.00813269
  C  3.56733467 -1.39643722  1.36410531
  C  4.57235634 -0.70235635  0.70679076
  C  4.23881499  0.17721579 -0.31142486
  C  2.92215200  0.36203892 -0.67935058
  H -1.92035711  2.22467055 -0.63162207
  H -2.67093518  2.22098132  0.95356213
  H -0.99662574  1.65083148  0.77225004
  H -2.32470723 -2.16049643  1.85623957
  H -3.31044475 -2.18062053  0.39459452
  H -1.71849255 -2.97995483  0.40802113
  H -0.90356672  0.37614436 -1.87426352
  H  0.12473188  1.73320973 -1.37846823
  H  0.78746432  0.45658315 -2.39586963
  H  1.47346811 -1.75685554  1.52785448
  H  3.81713879 -2.07964725  2.16275953
  H  5.60606564 -0.83808131  0.98638719
  H  5.01562658  0.72772083 -0.82156242
  H  2.69159737  1.06129942 -1.46731982
