11
opt_min/./Reactant_3228_1_opt.xyz
  C -1.62677104 -0.00719513  0.72619968
  C -1.52315884  0.31449958 -0.74968571
  O -2.45814070  0.55339831 -1.46310047
  N -0.24265341  0.32855783 -1.25576494
  N  0.80947035  0.11014510 -0.70396782
  C  1.91608007 -0.07369341 -0.35298781
  C  3.18690550 -0.28435435  0.01461738
  N  4.27571283 -0.47226006  0.34915217
  H -1.19311070  0.80966402  1.30275106
  H -2.67313045 -0.11701950  0.99580031
  H -1.08676786 -0.92371656  0.95718135
