56
opt_min/./Reactant_3134_0_opt.xyz
  C -4.13064548  1.77855276  2.87479253
  O -3.52501542  1.33248532  1.67101276
  C -2.46106583  0.53016739  1.80878977
  O -2.01923635  0.20340043  2.87769107
  C -1.89822499  0.07999778  0.46359687
  C -2.79325527 -1.03297608 -0.05789134
  C -2.30241356 -2.31985492 -0.23636983
  C -3.12326549 -3.32465868 -0.71640101
  C -4.44699490 -3.05824955 -1.02084525
  C -4.94519793 -1.78077708 -0.83752568
  C -4.12542496 -0.77493120 -0.35764772
  C -0.52806140 -0.34937588  0.62627368
  C  0.64561623 -0.39885301  0.39569574
  C  1.92987152 -0.22756321 -0.24851663
  C  2.83716025 -1.44010582 -0.13692353
  C  4.07571099 -1.45076335 -0.76731877
  C  4.91290864 -2.54510170 -0.65241848
  C  4.52817944 -3.64089955  0.10081152
  C  3.30234423 -3.63238680  0.74200212
  C  2.46307134 -2.53848052  0.62475550
  C  2.64941659  0.94262454  0.40602289
  C  2.55255934  1.09712562  1.78481852
  C  3.22532650  2.11612796  2.43123712
  C  4.00931703  2.99969729  1.70885190
  C  4.11536274  2.85220026  0.33832955
  C  3.44296611  1.82909669 -0.30946419
  C  1.50121674  0.00858787 -1.71622306
  C  0.50504269  1.15152944 -1.99500835
  C -1.02927099  1.00315298 -1.84458371
  C -1.78585433  1.26359244 -0.52654351
  H -4.40862324  0.92573566  3.49785673
  H -3.43723026  2.41133132  3.43346355
  H -5.01208238  2.34420848  2.58166713
  H -1.27039590 -2.53157983  0.00043558
  H -2.72583239 -4.32011060 -0.85123372
  H -5.08885222 -3.84257411 -1.39590597
  H -5.97935962 -1.56502195 -1.06701939
  H -4.52946960  0.21551878 -0.20705725
  H  4.39565745 -0.59644048 -1.34428007
  H  5.87230233 -2.54133217 -1.15054371
  H  5.18329395 -4.49482801  0.19099471
  H  2.99707068 -4.47945760  1.33890052
  H  1.50789783 -2.53269974  1.12972054
  H  1.93695955  0.41380285  2.35108616
  H  3.13663609  2.22100436  3.50269898
  H  4.53409265  3.79921969  2.21191700
  H  4.72467487  3.53714965 -0.23425510
  H  3.54163860  1.74090339 -1.38092327
  H  1.09014670 -0.92520159 -2.11024880
  H  2.39467666  0.23342503 -2.30348059
  H  0.62146029  1.31926040 -3.07303450
  H  0.83094129  2.06178096 -1.48619677
  H -1.35135351  0.05313644 -2.27757463
  H -1.40684475  1.80061022 -2.49687674
  H -2.80109600  1.55426430 -0.80734419
  H -1.33192533  2.11785882 -0.01892379
