24
opt_min/./Reactant_4314_0_opt.xyz
  C -3.15210400  1.18562600 -0.24504200
  C -2.45425137 -0.09269800 -0.56188903
  C -3.27794225 -1.23984495 -1.05114722
  N -1.14812516 -0.24839295 -0.46144371
  C -0.16227975  0.56218509 -0.05611350
  C  1.20290829  0.18014946 -0.05905344
  C  2.16606223  1.10568380  0.38879873
  C  3.50561632  0.79406555  0.41502562
  C  3.94714574 -0.45342936 -0.00233575
  C  3.01951882 -1.38019892 -0.45186450
  C  1.67620128 -1.07715452 -0.48302203
  H -2.44917551  1.99597146 -0.07929875
  H -3.77152065  1.07866724  0.64861433
  H -3.81300877  1.46611379 -1.06747738
  H -4.19185669 -1.33097366 -0.46345496
  H -3.57745856 -1.09722456 -2.09393744
  H -2.73188944 -2.18023955 -0.98381519
  H -0.81199289 -1.17006132 -0.73243643
  H -0.42806618  1.54444131  0.29326366
  H  1.83221637  2.08076764  0.71641214
  H  4.22008488  1.52781406  0.76286941
  H  4.99813788 -0.69927751  0.02167304
  H  3.35226629 -2.35537216 -0.78175351
  H  0.98863282 -1.83034842 -0.84973220
