30
opt_min/./Reactant_3144_0_opt.xyz
  C -3.06048700 -2.16589800  0.79706300
  O -2.40991592 -0.93532556  0.53240425
  C -1.06524038 -0.99046398  0.47183957
  O -0.44686136 -2.02806148  0.64425886
  C -0.45006779  0.29078541  0.21576830
  N  0.90271405  0.43043815  0.16574367
  C  1.87910397 -0.42690219  0.25869188
  C  3.26592971 -0.06621550  0.14182477
  C  4.23033873 -1.07062203  0.30584204
  C  5.57564882 -0.78248970  0.20749471
  C  5.99311893  0.51219378 -0.06008828
  C  5.05229930  1.51590437 -0.23057982
  C  3.70442997  1.23659704 -0.13342127
  C -1.10389011  1.57101236  0.02233090
  O -0.43934840  2.58905726 -0.14205289
  O -2.43824389  1.55368652  0.04830022
  C -3.09869884  2.79647846 -0.13404095
  H -4.12350285 -1.97979697  0.66526238
  H -2.85504158 -2.49418587  1.81937717
  H -2.71378003 -2.93856712  0.10669271
  H  1.12905264  1.42636634  0.01281138
  H  1.61897668 -1.46091659  0.43375306
  H  3.90338971 -2.07793062  0.51539073
  H  6.30569522 -1.56751563  0.33831305
  H  7.04556636  0.73906737 -0.13718098
  H  5.37370042  2.52507876 -0.44215093
  H  2.99157231  2.03668403 -0.27641672
  H -4.02658401  2.74695241  0.43255461
  H -2.47024033  3.61548606  0.22184087
  H -3.31684825  2.94586380 -1.19422616
