30
opt_min/./Reactant_3152_0_opt.xyz
  C -0.32582100  3.93911800  0.27100700
  N -0.16159446  2.52328598  0.48524693
  C -1.16217426  1.66109438  0.27739621
  O -2.27150419  2.03172655 -0.09807298
  C -0.87995056  0.21187658  0.56582696
  C -2.07698916 -0.65726763  0.85582647
  O -2.07925424 -1.51205241  1.72963771
  N -3.13554862 -0.41602980  0.06835622
  C -4.39868886 -1.07820393  0.29332595
  N  0.34178582 -0.28197224  0.64139228
  C  0.54987088 -1.71245723  0.83526608
  N  1.39082174  0.49146343  0.55563793
  C  2.60931604  0.05321362  0.13918597
  O  2.86948853 -0.96071340 -0.46770488
  O  3.51326159  1.00962058  0.43382702
  C  4.83576963  0.76282037 -0.01436702
  H -1.38820168  4.17695650  0.30555971
  H  0.06909479  4.23579802 -0.70386336
  H  0.20239626  4.48699015  1.04947101
  H  0.76879916  2.14905907  0.65988687
  H -3.16796269  0.47272197 -0.42525608
  H -5.08141485 -0.43568990  0.85327042
  H -4.84982944 -1.32972081 -0.66555688
  H -4.21555307 -1.98605080  0.86567503
  H -0.23902680 -2.12355252  1.45953450
  H  0.56304720 -2.20962654 -0.13456722
  H  1.51615466 -1.86889120  1.30867509
  H  4.82541732  0.34465602 -1.02287128
  H  5.34541758  1.72292989  0.00084242
  H  5.33696126  0.05862780  0.65418197
