35
opt_min/./Reactant_3022_1_opt.xyz
  C -2.82076700  3.12918600 -0.81978600
  N -2.25933657  1.80620710 -0.67856617
  C -1.02953875  1.64614454 -0.14689220
  O -0.38018400  2.57922144  0.28504874
  C -0.58732728  0.23246540  0.05274812
  N  0.62251801  0.01844452  0.54391009
  C  1.73501816  0.74518303  0.23232118
  C  1.72838770  1.32668089 -1.10531381
  C  2.98965201  1.98288563 -1.57728961
  O  0.75746833  1.20018559 -1.84147117
  C  2.89736895  0.62668598  1.07940075
  C  2.62925707  0.03501120  2.45918203
  O  4.02573229  0.97423162  0.77153965
  C -1.50844288 -0.90775071  0.00212291
  C -2.17664418 -1.20335418 -1.18952663
  C -3.00907895 -2.30429778 -1.27238696
  C -3.19502354 -3.12447068 -0.17158216
  C -2.52823490 -2.84799700  1.01066148
  C -1.68597476 -1.75536428  1.09602666
  H -3.71790756  3.08063720 -1.42978517
  H -3.06600127  3.54813880  0.15935442
  H -2.08608624  3.78419841 -1.29006740
  H -2.79190626  1.01285089 -0.98905526
  H  0.75523279 -0.79883065  1.13808187
  H  3.23354577  2.80839083 -0.91394394
  H  3.82208020  1.28479230 -1.54128520
  H  2.84081258  2.34429682 -2.59175711
  H  1.77630123  0.51317020  2.93399191
  H  3.51348238  0.18642595  3.07277515
  H  2.45227911 -1.03918208  2.38334246
  H -1.98623937 -0.60129108 -2.06571722
  H -3.50768977 -2.52694455 -2.20381050
  H -3.84966128 -3.98019652 -0.23674353
  H -2.66752025 -3.48522252  1.87103990
  H -1.19129404 -1.53881667  2.03327822
