25
opt_min/./Reactant_1473_0_opt.xyz
  C  3.86176400  0.38171100  0.17983300
  C  2.46619432  0.59655247  0.62722683
  O  2.17176393  1.42276331  1.61616818
  C  0.76158619  1.38003697  1.83362593
  O  0.25541450  2.04816618  2.70382021
  C  0.26991083  0.47701464  0.85841936
  C -1.11311723  0.11785362  0.64936919
  C -1.64201463 -0.22034967 -0.60007522
  C -2.97791446 -0.55123976 -0.73130974
  C -3.81690906 -0.53785881  0.36973127
  C -3.31145279 -0.16795762  1.60612957
  C -1.97855576  0.15641614  1.74987390
  N  1.36880493  0.02062646  0.15694621
  C  1.37793639 -1.00344223 -0.85483088
  H  3.96035401  0.55818778 -0.89133035
  H  4.19501196 -0.63550481  0.39583851
  H  4.50282759  1.07518977  0.71800281
  H -1.02623548 -0.18554991 -1.48559207
  H -3.36801927 -0.81064902 -1.70547928
  H -4.85930041 -0.79870193  0.26141562
  H -3.96502876 -0.13529353  2.46566908
  H -1.58674928  0.45355204  2.70830498
  H  1.28709377 -0.56513589 -1.85139064
  H  2.31112992 -1.56198615 -0.80108720
  H  0.53904514 -1.67727132 -0.68333780
