12
opt_min/./Reactant_4624_1_opt.xyz
  C -2.34309358  0.18141453 -0.04557104
  N -0.97223050 -0.20732012 -0.25016758
  C  0.04208604  0.32951183  0.47304679
  O -0.09558679  1.14300599  1.36898450
  C  1.33341891 -0.17029694  0.12728211
  N  2.49678093 -0.09012024 -0.02585221
  N  3.62650896 -0.29659525 -0.41618538
  H -2.96364891 -0.68104000  0.20169353
  H -2.75068438  0.66767060 -0.93564602
  H -2.35192569  0.88934455  0.78186478
  H -0.75864516 -0.85923865 -0.98784941
  H  4.35795170  0.15324994  0.11830321
