35
opt_min/./Reactant_5704_0_opt.xyz
  C  4.51027700 -0.83770000 -0.39628900
  C  3.54431608  0.30234993 -0.14066971
  O  3.88117129  1.34391710  0.40543183
  N  2.29480651 -0.03904729 -0.50982631
  N  1.30124200  0.82640052 -0.48040927
  C  1.57309909  2.21281952 -0.83893514
  C  0.07036696  0.42405064 -0.25445425
  C -0.24666146 -0.99278059 -0.02551927
  C -1.23772179 -1.31700247  0.90421630
  C -1.58024054 -2.63681328  1.12848507
  C -0.95559880 -3.64970280  0.42086303
  C  0.01675553 -3.33573878 -0.51532813
  C  0.37635621 -2.01980972 -0.73566742
  C -1.06901722  1.34700053 -0.19807754
  C -2.22145835  1.04374381 -0.92652313
  C -3.32857631  1.86855791 -0.86466254
  C -3.31204981  2.99874038 -0.06309434
  C -2.18273426  3.29809282  0.68169850
  C -1.06845575  2.48281858  0.61453768
  H  4.49966774 -1.50118831  0.46561272
  H  5.51485888 -0.44300559 -0.51689563
  H  4.20614937 -1.40109418 -1.27203283
  H  2.01632406  2.72760635  0.01347641
  H  2.31265422  2.21502856 -1.63898141
  H  0.66475276  2.70928612 -1.16827356
  H -1.72529411 -0.52945840  1.45980159
  H -2.33906430 -2.87440530  1.85977922
  H -1.22472595 -4.68034436  0.59886687
  H  0.49916209 -4.12296600 -1.07561434
  H  1.13404050 -1.77828026 -1.46175688
  H -2.23441421  0.16142646 -1.54917532
  H -4.20903589  1.62696371 -1.44138392
  H -4.17941715  3.63957423 -0.01417750
  H -2.17187748  4.16888368  1.32001242
  H -0.20301865  2.70573957  1.22006214
