41
opt_min/./Reactant_2414_0_opt.xyz
  C -2.57523148  3.44765260 -0.02831945
  N -2.06353404  2.14682084  0.32364533
  C -1.55663753  1.29902071 -0.59111865
  O -1.53181308  1.54522455 -1.78167699
  C -1.08634301 -0.04129764 -0.02919278
  C -2.29644039 -1.00362195 -0.05028281
  O -2.63267283 -1.65960384  0.91082230
  N -2.90961046 -1.02328470 -1.24422027
  C -3.99258899 -1.93040913 -1.53870511
  C -0.01059425 -0.61849044 -0.82567450
  C  1.12091592 -1.01501246 -0.91870864
  C  2.53350718 -1.10942176 -0.59485851
  C  2.68513829 -2.22879701  0.44661009
  O  3.29500839 -1.35131162 -1.77030968
  C  4.67257871 -1.56526821 -1.61099707
  C  2.87506888  0.28373926  0.03141699
  C  1.72877642  1.24441449  0.40874490
  C  0.75669356  0.94186022  1.56675398
  C -0.44095221 -0.01426988  1.37777145
  H -2.49156916  3.55004740 -1.10916103
  H -1.99472947  4.23594645  0.45534676
  H -3.62202254  3.54266619  0.26525891
  H -2.09251338  1.87473230  1.29181153
  H -2.51055332 -0.48971669 -2.00382720
  H -4.95460247 -1.41332304 -1.49372869
  H -3.98724407 -2.72234998 -0.79041831
  H -3.86420025 -2.35883900 -2.53108945
  H  2.04246348 -2.02175936  1.29743705
  H  2.40011249 -3.18377399  0.01183644
  H  3.71352162 -2.28677789  0.79789788
  H  4.89114420 -2.55441737 -1.19261114
  H  5.14487176 -0.79902475 -0.98685115
  H  5.09497875 -1.51052481 -2.61382536
  H  3.52182074  0.13943552  0.89913358
  H  3.44885954  0.81823987 -0.73086330
  H  2.23798325  2.17084979  0.69799183
  H  1.15978037  1.49073727 -0.48739501
  H  0.34700707  1.91843308  1.84413656
  H  1.32679195  0.58427187  2.42661163
  H -1.19563751  0.21407244  2.13637719
  H -0.13303062 -1.04273115  1.57240865
