29
opt_min/./Reactant_3137_1_opt.xyz
  C  1.95764319  2.26243267  2.61021849
  O  1.20716602  1.24245816  1.96167026
  C  0.02844275  1.59870805  1.42718141
  O -0.44007016  2.70772921  1.46283559
  C -0.61658487  0.44229725  0.76483930
  O -1.83638747  0.65691857  0.39869390
  C -2.65278736 -0.10746636 -0.29772612
  C -2.23498585 -1.21706248 -1.03470846
  N -1.91442135 -2.09391435 -1.70865293
  C -4.07121742  0.31200260 -0.28389977
  C -4.97869812 -0.52786638 -1.14542756
  O -4.44880667  1.22385346  0.41305041
  C  0.09995503 -0.82084220  0.56176927
  C -0.46420456 -2.00960575  1.02743925
  C  0.21351664 -3.20314660  0.87669881
  C  1.44851699 -3.22773602  0.25004330
  C  2.01450856 -2.05061367 -0.21293394
  C  1.35076530 -0.84965303 -0.05233707
  H  2.95442666  2.27547125  2.17095439
  H  2.02434699  2.02254870  3.67196915
  H  1.46832912  3.22887884  2.47701351
  H -4.54306121 -0.68955726 -2.12702526
  H -5.11640204 -1.49905790 -0.67149367
  H -5.94719207 -0.04507874 -1.23454897
  H -1.42401948 -1.99210936  1.52645471
  H -0.22582942 -4.11699528  1.24574616
  H  1.96898899 -4.16469027  0.12216159
  H  2.97603991 -2.06916725 -0.70239858
  H  1.78494140  0.06823799 -0.41721223
