23
opt_min/./Reactant_2989_1_opt.xyz
  F -1.31734885  2.36058837  1.97982541
  C -1.61935159  1.10361083  1.63623099
  F -2.90904328  0.91895968  1.92163905
  F -0.93006214  0.30878558  2.46743659
  C -1.29746608  0.81426334  0.16179357
 Cl -2.52261753  1.71059489 -0.80405205
  C -1.32158035 -0.59951984 -0.13655839
  C -0.73486458 -1.57425863 -0.52964030
  C  0.22061161 -2.45775802 -1.11985506
 Cl  0.96493406 -3.51032922  0.12275556
 Cl -0.50981772 -3.48970248 -2.39362096
  C  1.25724032 -1.50901793 -1.74269275
  C  1.98838519 -0.56903001 -0.76724249
  C  1.25788862  0.34054047  0.24522163
  C  0.12853986  1.27342540 -0.24100251
  H  2.01727332 -2.12488061 -2.23016313
  H  0.74583908 -0.93165278 -2.51504602
  H  2.62481686  0.05920521 -1.39372177
  H  2.64621273 -1.18833491 -0.15474618
  H  2.04278505  0.97847644  0.65637632
  H  0.89985077 -0.27167060  1.07007701
  H  0.27584410  2.27513810  0.16744869
  H  0.14712903  1.35528078 -1.32767354
