39
opt_min/./Reactant_2918_0_opt.xyz
  C -3.18807928  3.31960411 -1.90234145
  N -2.23234938  2.40161212 -1.32779359
  C -2.32927021  1.05058044 -1.53229105
  O -3.13782662  0.56172649 -2.29603895
  C -1.34469540  0.25168996 -0.76370711
  C -1.86182592 -0.92318827 -0.07482722
  C -1.12547551 -2.11073206  0.00042514
  C -1.66867121 -3.23269102  0.58738508
  C -2.94851795 -3.19581345  1.12030072
  C -3.68882694 -2.02927145  1.04517455
  C -3.15556718 -0.90224466  0.44977305
  N -0.05168426  0.59559832 -0.72268403
  C  0.49773696  1.47638382 -1.74444536
  C  0.77127991  0.22656552  0.29817182
  C  0.21063592 -0.04780662  1.54211314
  N -0.17347587 -0.20056499  2.61937025
  C  2.20791161  0.03145078  0.15375606
  C  3.06882098  0.39806925  1.19201999
  C  4.42737928  0.17637326  1.08687696
  C  4.95544663 -0.41948287 -0.04734153
  C  4.10837840 -0.81668337 -1.06990837
  C  2.74801253 -0.60176975 -0.96992694
  H -3.87912953  3.70242891 -1.14803802
  H -2.66486625  4.15666893 -2.36620345
  H -3.74908823  2.77239734 -2.65718646
  H -1.72660206  2.72536850 -0.51797676
  H -0.13052704 -2.15890677 -0.42079843
  H -1.09134975 -4.14363630  0.62999636
  H -3.36475897 -4.07350448  1.58975673
  H -4.68758148 -1.99486684  1.45524553
  H -3.73768060  0.00516689  0.39485443
  H -0.14514961  1.47338819 -2.62197433
  H  1.49247396  1.14154919 -2.02411567
  H  0.58364165  2.49559097 -1.36371540
  H  2.65753895  0.85808958  2.07951852
  H  5.07859348  0.47412737  1.89450070
  H  6.01790020 -0.59006070 -0.12931926
  H  4.50778748 -1.30952214 -1.94446539
  H  2.09710135 -0.96148801 -1.75635657
