29
opt_min/./Reactant_1932_0_opt.xyz
  C -1.79059100  2.63874600 -0.74817700
  C -0.35241160  2.29155118 -0.45263751
  O  0.54167263  3.15078808 -0.52978689
  C -0.00598375  0.94905909 -0.11264512
  N  1.34297458  0.83512927  0.02162478
  C  2.19697085 -0.06441329  0.41253417
  C  1.83588251 -1.40882959  0.93887567
  C  3.64621887  0.30824507  0.40216444
  C -0.93531735 -0.17891456 -0.10571475
  C -0.74265751 -1.25624836 -0.97403967
  C -1.63798950 -2.30767120 -1.00269713
  C -2.74517774 -2.30306967 -0.17001264
  C -2.94824581 -1.24124499  0.69488719
  C -2.05233440 -0.18859350  0.72982983
  H -1.81377635  3.49210708 -1.42306272
  H -2.29110730  2.92867366  0.17492383
  H -2.32085848  1.79812719 -1.18797620
  H  1.72489020  1.77718783 -0.20197780
  H  2.28253618 -2.19771082  0.33123007
  H  0.76199399 -1.55865741  0.97327139
  H  2.23486999 -1.51255514  1.95122774
  H  4.26586380 -0.58210900  0.31221627
  H  3.87492205  0.97978334 -0.42496757
  H  3.92602487  0.81513003  1.32838379
  H  0.11344031 -1.25735486 -1.63506829
  H -1.47679370 -3.13155480 -1.68348578
  H -3.44701207 -3.12359694 -0.19504535
  H -3.80857100 -1.23508307  1.34878881
  H -2.20489855  0.62987986  1.41645734
