27
opt_min/./Reactant_4668_0_opt.xyz
  C -2.95712000  1.89555200 -0.48048400
  N -2.53799668  0.53137636 -0.25651883
  C -1.45852283  0.04188869 -0.92130590
  O -0.96276971  0.57583717 -1.89333662
  C -1.06316766 -1.33865017 -0.51995987
  C -2.10504815 -2.40008193 -0.37890301
  N  0.20932259 -1.68836258 -0.50634535
  C  1.31099919 -0.91820377 -0.38023287
  C  2.62405161 -1.57540856 -0.67678147
  C  1.20884804  0.36564080  0.23012258
  O  0.18208119  0.84394194  0.69752623
  O  2.41414020  0.99116285  0.33342202
  C  2.41600146  2.25876184  0.96123870
  H -2.35096293  2.60021348  0.09447002
  H -2.82966990  2.11505272 -1.53905989
  H -4.00496751  2.00135403 -0.20374505
  H -2.69930909  0.17088171  0.67093183
  H -2.47484527 -2.45514085  0.64799392
  H -1.69748682 -3.37812285 -0.63711865
  H -2.95502101 -2.19008335 -1.02459381
  H  0.40227482 -2.69080410 -0.56285334
  H  2.82600861 -2.39536065  0.01846017
  H  2.63403804 -1.97618663 -1.69029459
  H  3.42056963 -0.84583178 -0.58733907
  H  2.83598375  2.16692279  1.96577370
  H  3.03486076  2.92528903  0.36106052
  H  1.39549714  2.64171431  1.02512246
