21
opt_min/./Reactant_1391_0_opt.xyz
  C  3.40321402  0.98210205 -2.32179394
  C  3.27893480 -0.53282173 -2.22438554
  O  4.10230419 -1.31866754 -2.67384860
  C  2.14298531 -0.92731699 -1.53753447
  N  1.18308727 -1.28915080 -0.94152396
  C  0.13496622 -1.64329130 -0.30602832
  C -0.83992768 -0.70506526  0.19153532
  C -0.62782569  0.67698286  0.13180381
  C -1.58036474  1.55134158  0.61202422
  C -2.75940016  1.06927408  1.16156049
  C -2.97606865 -0.29759856  1.22856327
  C -2.02932201 -1.18158785  0.75205980
  H  3.87140626  1.36161457 -1.41531345
  H  4.04730530  1.22044041 -3.16434231
  H  2.43289954  1.45466193 -2.44174122
  H -0.01778005 -2.70271850 -0.16090236
  H  0.29200379  1.05607667 -0.29146783
  H -1.40336609  2.61606608  0.56164538
  H -3.50345387  1.75527537  1.53710961
  H -3.89405901 -0.67524264  1.65739057
  H -2.20092876 -2.24599043  0.80549453
