11
opt_min/./Reactant_1168_0_opt.xyz
  C -1.91646154 -0.29741637  0.03951518
  N -0.53434694  0.00310957  0.33006859
  C  0.41700683 -0.02098800 -0.62970341
  O  0.23186309 -0.29437052 -1.79388930
  C  1.73336083  0.32482708 -0.13685699
  N  2.87778820  0.52400783 -0.13712245
  O  4.02246727  0.75784856  0.01738858
  H -2.29701560 -1.04070348  0.73672876
  H -2.53230873  0.60157484  0.09912394
  H -1.95952157 -0.69063070 -0.97468937
  H -0.28521649  0.24216541  1.27675869
