10
opt_min/./Reactant_3366_1_opt.xyz
  C  2.66358868 -0.44524298  1.56695527
  N  6.63232781  21.02989915 -0.58907337
  N -2.21386670 -14.68366664  5.45694989
  C  11.30244312 -12.43601391  7.60593452
  C  0.09348193 -0.22161811 -1.37270118
  O -5.88359288  14.95379107 -17.09755991
  H  2.61031913 -4.66348649  8.55356400
  H -0.28355106  3.33461952 -0.84213405
  H -14.52559117  3.34306269 -12.29233413
  H -0.99485139  4.72654973 -0.43656235
