43
opt_min/./Reactant_5888_1_opt.xyz
  C  4.06709534 -0.14311406  3.23872649
  O  3.14259322  0.03331045  2.17807850
  C  1.86838113 -0.38787463  2.40176809
  O  1.50325052 -0.91377881  3.43387844
  C  1.02030484 -0.10040457  1.26804861
  O -0.23963934 -0.45010588  1.44306171
  C -1.29253856 -0.25343062  0.71394909
  C -1.25973957  0.36906538 -0.62477861
  C -1.98072408  1.53674876 -0.86367267
  C -1.94904197  2.12978268 -2.11217368
  C -1.20931204  1.56024044 -3.13446041
  C -0.52214648  0.37837623 -2.91404955
  C -0.55329404 -0.22102693 -1.66957338
  C -2.54240737 -0.72488012  1.27450599
  C -2.62973751 -1.04467179  2.63607113
  C -3.81807779 -1.49600715  3.17175964
  C -4.94057131 -1.63530970  2.36941516
  C -4.86476883 -1.32290828  1.02094304
  C -3.68039235 -0.87430045  0.47165607
  C  1.54596775  0.63589824  0.09987935
  C  2.40740802 -0.00168475 -0.78912277
  C  2.94200977  0.68977085 -1.85980113
  C  2.63319053  2.02649361 -2.04810927
  C  1.79934972  2.67349794 -1.15287037
  C  1.26708540  1.98712976 -0.07770986
  H  4.46171660  0.83444329  3.51888666
  H  3.56567762 -0.60546331  4.09208676
  H  4.87852804 -0.78350103  2.89011164
  H -2.55167976  1.98211139 -0.06229092
  H -2.50349422  3.03989912 -2.28743175
  H -1.17420495  2.02671596 -4.10759002
  H  0.03912092 -0.07922747 -3.71487882
  H -0.04651743 -1.16002144 -1.50499411
  H -1.75714569 -0.93254911  3.26161970
  H -3.87088517 -1.73689557  4.22314171
  H -5.86986053 -1.98590270  2.79296258
  H -5.73463234 -1.43598870  0.39042618
  H -3.62875093 -0.64047744 -0.58082209
  H  2.64890088 -1.04362314 -0.63926067
  H  3.60387865  0.18497763 -2.54845184
  H  3.05133266  2.56488771 -2.88578878
  H  1.56894729  3.72021777 -1.28637920
  H  0.62291415  2.49694103  0.62469730
