10
opt_min/./Reactant_4493_1_opt.xyz
  O  2.88813891 -0.84774205  0.48997419
  C  2.68168170 -0.14622978 -0.38985314
  O  2.49209066  0.54765433 -1.27844141
  C -0.31411739 -0.29709606  0.46454039
  C -0.73308956  0.41968372 -0.39373250
  C -3.79768520  0.43156081  0.24993641
  O -3.66460466 -0.25929827  1.15126750
  O -3.94721713  1.13751093 -0.63823125
  H  0.04781320 -0.92552644  1.22418631
  H -1.09292247  1.05055914 -1.15242867
