43
opt_min/./Reactant_2932_0_opt.xyz
  C -3.44599639  2.16234994  2.00610473
  N -2.68185653  1.66078408  0.88691126
  C -2.68408042  0.35006396  0.57060995
  O -3.39236912 -0.45044383  1.14420847
  C -1.70850107 -0.10737227 -0.53716551
  O -2.14497027 -1.27918985 -1.19752314
  C -3.48257501 -1.30857719 -1.63275736
  C -0.44473778 -0.39924649  0.11105646
  C  0.71094040 -0.41907643  0.43465527
  C  2.12118855 -0.32428383  0.12660392
  C  2.81054287  0.71899641  1.00348249
  O  2.24799308  1.59156966  1.60488533
  O  4.13286427  0.55236411  0.98085974
  C  4.89711362  1.49135152  1.72766886
  C  2.83527722 -1.66615651  0.31290660
  O  3.60890423 -2.14426747 -0.47119375
  O  2.50031553 -2.21717138  1.47508160
  C  3.10364511 -3.46925214  1.77578945
  C  2.19557324  0.13561058 -1.36048644
  C  1.04730342 -0.35490165 -2.26452526
  C -0.15121618  0.57184407 -2.56085976
  C -1.26998429  0.97930463 -1.55656456
  H -4.26324698  1.46757069  2.19253500
  H -3.84434573  3.14695184  1.76748528
  H -2.82775024  2.22656113  2.90463263
  H -2.02946623  2.29604394  0.46079782
  H -3.57030533 -2.21363366 -2.23183541
  H -4.18487547 -1.36629165 -0.79731601
  H -3.73592626 -0.44032470 -2.25347420
  H  4.78670148  2.49057916  1.30206218
  H  4.56492443  1.50925519  2.76686672
  H  5.93055329  1.16195451  1.65958355
  H  2.73510008 -4.23512625  1.09135055
  H  4.18859484 -3.39937621  1.67578844
  H  2.82108521 -3.70201763  2.79866972
  H  3.13336744 -0.26994559 -1.74830545
  H  2.25926817  1.22451749 -1.40434659
  H  1.50582305 -0.51554700 -3.24586207
  H  0.69438129 -1.33167224 -1.93478388
  H -0.65400507  0.08689072 -3.40145651
  H  0.26162124  1.51458424 -2.93095436
  H -0.92825480  1.86340538 -1.02118460
  H -2.12550525  1.25148121 -2.17885282
