22
opt_min/./Reactant_663_0_opt.xyz
  C  3.93331757  1.41890138 -1.59636606
  O  2.55858115  1.06632840 -1.62286894
  C  2.08879182  0.48528267 -0.52595156
  O  2.73877633  0.26454728  0.46873867
  C  0.65040211  0.12535087 -0.64365578
  N  0.07496174 -0.20833261  0.45683213
  C -0.46439729 -0.47483786  1.46589503
  C -1.17331304 -0.73337670  2.65949494
  C -2.63285173 -1.03856653  2.39547809
  O -0.66176449 -0.70515189  3.75552265
  C -0.10256003  0.15412199 -1.90624774
  C -1.52626912 -0.35335970 -1.81910297
  O  0.38292671  0.52295708 -2.94835501
  H  4.12856693  2.12979944 -0.79015474
  H  4.55068231  0.53224357 -1.43665790
  H  4.14380796  1.86676346 -2.56398176
  H -2.72760855 -1.90569067  1.74556503
  H -3.11616404 -0.18973599  1.91503485
  H -3.11775783 -1.23840181  3.34811139
  H -1.51429663 -1.44122345 -1.86851287
  H -2.01595021 -0.05156993 -0.89749928
  H -2.08358079  0.02207092 -2.67366264
