16
opt_min/./Reactant_1702_1_opt.xyz
  C  2.65482200  0.97746400 -0.24942600
  C  1.86952786 -0.27734675 -0.51759362
  O  2.35830334 -1.33309799 -0.82584206
  C  0.39867140 -0.13702055 -0.27286052
  F  0.00779568  1.08114850  0.14361730
  C -0.52908985 -1.10200233 -0.42806602
  F -0.13392233 -2.30360321 -0.83880422
  C -2.01909174 -1.04436666 -0.20538753
  C -2.58791338  0.26589822  0.25942776
  O -2.68465347 -2.02742069 -0.40347769
  H  3.63754041  0.88375067 -0.69970019
  H  2.77343018  1.08393706  0.82771124
  H  2.14622523  1.86171526 -0.61895632
  H -2.37737638  1.04780862 -0.46527193
  H -3.66027000  0.15848682  0.38307196
  H -2.13662478  0.56495813  1.20291119
