11
opt_min/./Reactant_480_0_opt.xyz
  C  1.95972802 -0.09075395  0.27311519
  O  0.59373283  0.29495608  0.21372548
  C -0.29056574 -0.62045924  0.66100053
  O  0.00563404 -1.70533578  1.09382101
  C -1.66122092 -0.12730430  0.56384019
  N -1.92677729  1.03077760  0.13421661
  N -2.13302293  2.07299093 -0.23071027
  H  2.14963268 -0.91949787 -0.41191993
  H  2.53454949  0.78382734 -0.02112003
  H  2.22490610 -0.40148152  1.28529549
  H -2.46286927 -0.77961484  0.86099692
