20
opt_min/./Reactant_1756_1_opt.xyz
  N  5.19070200 -1.89590800 -0.02818900
  C  4.04311751 -1.82107805 -0.08888972
  C  2.66244467 -1.70733108 -0.15945462
  N  1.95429505 -0.57967312  0.01690594
  C  0.63037834 -0.81747325 -0.12010842
  C -0.41152870  0.16313868  0.00427795
  C -1.74541188 -0.22993987 -0.16442449
  C -2.76235122  0.69557817 -0.04928044
  C -2.47892273  2.02309300  0.23407173
  C -1.16143756  2.42100368  0.40262003
  C -0.13430057  1.50607318  0.29027068
  C  0.50848002 -2.22944979 -0.40911996
  O -0.43004375 -2.95074685 -0.61613568
  O  1.82498675 -2.71734421 -0.41688324
  H  2.34741769  0.32755233  0.22396480
  H -1.96742174 -1.26156971 -0.38473502
  H -3.78694725  0.38169848 -0.18124493
  H -3.27654283  2.74383956  0.32336373
  H -0.93469901  3.45339305  0.62340906
  H  0.88252443  1.84807736  0.42730234
