23
opt_min/./Reactant_3746_1_opt.xyz
  C -2.95168500  1.42630900  0.32723400
  C -1.60752294  0.88844667  0.67147679
  N -1.14070068 -0.24931546  0.21083865
  C -2.05403795 -1.09811622 -0.53777415
  C  0.16359996 -0.64198700  0.32796415
  C  0.54521585 -2.08243866  0.15241593
  C  1.18358993  0.33055625  0.52073325
  O  1.03944070  1.53689333  0.67624359
  O  2.43941077 -0.23029135  0.44523411
  C  3.53179916  0.65236562  0.60208953
  H -3.16105587  1.34165835 -0.73970838
  H -3.74874482  0.90739183  0.86927591
  H -2.99571225  2.47603548  0.60483776
  H -0.94740094  1.48639798  1.27107290
  H -1.73696628 -2.13562144 -0.49723405
  H -2.07085059 -0.78337901 -1.58369965
  H -3.05915612 -1.01969142 -0.12923518
  H  0.66961312 -2.36127336 -0.89746039
  H -0.18486313 -2.75005285  0.61198806
  H  1.49858825 -2.24709246  0.64794412
  H  3.94411263  0.54994168  1.60916923
  H  4.28564992  0.37962436 -0.13741132
  H  3.20131027  1.68296183  0.44799241
