24
opt_min/./Reactant_5080_0_opt.xyz
  C -2.15214595 -2.95896002 -0.27171832
  N -1.28810446 -1.80640595 -0.22494294
  C -1.75505847 -0.58994774  0.15125797
  O -2.89341767 -0.40059578  0.53639317
  C -0.76805053  0.51486104  0.03049346
  N -1.26920978  1.69176742 -0.04595003
  C -1.81197273  2.73976159 -0.10808718
  C -2.38099763  3.94434574 -0.15560813
  N -2.86192449  4.99743019 -0.20754172
  C  0.68019024  0.35563816 -0.01101585
  C  1.31354202 -0.68134772  0.68005886
  C  2.68872483 -0.80736743  0.64098644
  C  3.45806203  0.09448954 -0.07628134
  C  2.84101351  1.13483194 -0.75087769
  C  1.46674754  1.26879105 -0.72052076
  H -2.50271123 -3.15816079 -1.28960990
  H -1.61984852 -3.83430171  0.10135519
  H -3.01581448 -2.75463697  0.35965383
  H -0.39398061 -1.86939726 -0.68576013
  H  0.73116324 -1.37129642  1.27141656
  H  3.16555083 -1.61152696  1.18320480
  H  4.53274147 -0.00790085 -0.10374816
  H  3.43357358  1.84744217 -1.30740268
  H  0.99073581  2.07797473 -1.25624077
