34
opt_min/./Reactant_5858_1_opt.xyz
  C  4.95576101  0.11467302  0.39787488
  O  3.53665542  0.12185488  0.39500294
  C  2.92917480 -0.98981328 -0.10154281
  O  3.55730591 -1.93060911 -0.53347250
  C  1.47741759 -0.94509082 -0.13940530
  C  0.93397553 -2.08271890 -0.76467459
  N  0.54463581 -3.04940278 -1.24994279
  N  0.63771239 -0.01922530  0.38869850
  C  1.18049054  0.99069410  1.27552620
  C -0.66327849  0.01222683  0.10872187
  C -1.21266174 -0.58109205 -1.13993758
  O -2.28334955 -1.12367199 -1.21695038
  O -0.41329445 -0.32128990 -2.19091145
  C -0.80436777 -0.86283228 -3.44692608
  C -1.65193499  0.60700480  0.99706172
  C -1.57523222  0.41156072  2.38423763
  C -2.54901731  0.92278324  3.21708895
  C -3.61693288  1.63617844  2.69439153
  C -3.70702872  1.82786334  1.32575228
  C -2.73749711  1.31859333  0.48402501
  H  5.28192415  1.12583256  0.16308138
  H  5.32624101 -0.59939852 -0.33828859
  H  5.31572444 -0.16736465  1.39000399
  H  0.38084288  1.62893507  1.64145936
  H  1.69872488  0.53414706  2.11827721
  H  1.90194697  1.59038844  0.72394035
  H -1.88478110 -1.01041244 -3.46781030
  H -0.49276440 -0.15307537 -4.20966567
  H -0.30021086 -1.81905684 -3.58790746
  H -0.76994989 -0.17304867  2.80301758
  H -2.47884755  0.75557145  4.28201951
  H -4.37739778  2.03183469  3.34945385
  H -4.53908636  2.37389949  0.90839456
  H -2.81043122  1.47602777 -0.58101278
