19
opt_min/./Reactant_1977_1_opt.xyz
  C  2.23865516  1.64037059  0.64841018
  C  2.66612351  0.19723817  0.55716659
  O  3.78411884 -0.19041262  0.79142674
  C  1.58873591 -0.74102337  0.15310842
  C  1.88213615 -2.11454104  0.08029143
  N  2.20346624 -3.21673796  0.04945480
  O  0.42014067 -0.21674844 -0.11589618
  C -0.68322432 -0.81011349 -0.48794891
  C -0.82732172 -2.20040711 -0.64948462
  N -1.04047182 -3.32055555 -0.78579648
  C -1.85789532  0.06287868 -0.74378210
  C -1.61094104  1.53083019 -0.50784090
  O -2.91251040 -0.39248758 -1.11151774
  H  1.90743008  1.99674043 -0.32473251
  H  3.08374346  2.23731285  0.97960319
  H  1.41970718  1.74994114  1.35552678
  H -2.53697283  2.07484151 -0.66885870
  H -0.85507952  1.89612573 -1.20044629
  H -1.26176850  1.70136398  0.50782023
