48
opt_min/./Reactant_2913_0_opt.xyz
  C  3.34307703 -1.38269648  2.28793335
  O  3.32346668 -1.33419723  0.87751059
  C  2.67712213 -0.19268762  0.34709558
  O  3.29573174  0.99581023  0.75456836
  C  4.63955116  1.16600311  0.35912073
  C  1.25593528 -0.15305958  0.80523925
  C  0.07970856 -0.30439356  0.53800203
  C -1.14319840 -0.54198937 -0.28210130
  C -1.56268019  0.78400316 -0.90638273
  C -2.51650701  0.82107084 -1.92107128
  C -2.89450051  2.01799837 -2.50147738
  C -2.33120459  3.20889197 -2.07761578
  C -1.39584059  3.18774749 -1.05915046
  C -1.01914319  1.98957302 -0.47863492
  C -2.22399248 -1.13106093  0.61963268
  C -3.51302433 -0.62507501  0.70002856
  C -4.44561299 -1.20606025  1.54332348
  C -4.10321601 -2.29535512  2.32318006
  C -2.81311979 -2.79509729  2.26500947
  C -1.88316824 -2.21435991  1.42429251
  C -0.90022859 -1.61898548 -1.43404774
  C  0.23596782 -1.39198103 -2.49124452
  C  1.32184100 -0.91383739 -1.53953318
  C  2.73242112 -0.42887046 -1.25683388
  H  3.88757971 -2.28685827  2.55261280
  H  3.84399531 -0.50786962  2.71295722
  H  2.32181877 -1.43043770  2.68445011
  H  4.72820050  1.35205412 -0.71485006
  H  4.99729987  2.03681793  0.90603185
  H  5.24265046  0.29089762  0.61987971
  H -2.98146409 -0.08999188 -2.26680537
  H -3.63489828  2.01784799 -3.28844444
  H -2.62297981  4.14303943 -2.53442165
  H -0.95345553  4.10917595 -0.70968071
  H -0.29182244  1.99411721  0.31978716
  H -3.79941991  0.23304717  0.11100493
  H -5.44531351 -0.79897853  1.59153234
  H -4.83239644 -2.74701361  2.97952180
  H -2.52939341 -3.63693677  2.88000372
  H -0.87232180 -2.59730227  1.40049209
  H -1.85719401 -1.75703412 -1.93694183
  H -0.67369140 -2.56239029 -0.93334634
  H -0.03764548 -0.62857210 -3.22036001
  H  0.42302792 -2.33438405 -3.00736044
  H  0.81186860  0.00300069 -1.26215395
  H  1.24603593 -1.68699149 -0.77158661
  H  3.53827666 -1.13631793 -1.43446863
  H  2.93874984  0.52431609 -1.74292086
