23
opt_min/./Reactant_756_0_opt.xyz
  C  3.42488500 -1.10727100 -0.09542000
  N  2.84980837  0.19673317  0.12289556
  C  1.77196773  0.60481164 -0.58337356
  O  1.36828173  0.09026360 -1.60696869
  N  1.30879183  1.85571063 -0.16067413
  N  0.06595060  2.14134346 -0.24705491
  C -0.21041447  3.56454181 -0.37690406
  C -0.96746399  1.32028448 -0.22056684
  C -0.90673519 -0.07724596  0.14771883
  O -0.00210811 -0.63766823  0.72740012
  O -2.07352491 -0.68796765 -0.15433774
  C -2.14142596 -2.06367585  0.18015754
  H  4.51304901 -1.04307793 -0.05517668
  H  3.11559735 -1.44074013 -1.08425204
  H  3.07224924 -1.82693752  0.64738435
  H  2.98077788  0.61303529  1.03131237
  H -0.88266072  3.90103180  0.41081619
  H  0.73694796  4.09513964 -0.31174868
  H -0.66831447  3.76035454 -1.34612340
  H -1.94026381  1.73195878 -0.42995974
  H -1.32959181 -2.61069687 -0.30412976
  H -3.10719411 -2.41302681 -0.17526221
  H -2.05601354 -2.19943246  1.26112532
