18
opt_min/./Reactant_2651_0_opt.xyz
  C -2.97399234  1.11121471  1.56047348
  N -1.62810743  0.60882931  1.43067899
  C -1.04846250  0.41417001  0.23785833
  O -1.55964720  0.65992383 -0.84697866
  C  0.33388099 -0.12964590  0.25448954
  C  0.99032468 -0.45567155  1.43799936
  N  1.44019275 -0.70083302  2.46868060
  N  0.83332448 -0.26804463 -0.97020194
  C  2.01199254 -0.70380464 -1.40787945
  C  3.03957665 -1.13429894 -0.55245242
  N  3.90086225 -1.49230731  0.11661548
  C  2.26311174 -0.73968748 -2.78941618
  N  2.47894137 -0.75485066 -3.91682895
  H -3.66244717  0.31323252  1.84709081
  H -3.00713230  1.89535968  2.31495064
  H -3.27549663  1.51103918  0.59447553
  H -1.12513157  0.35611373  2.26793028
  H  0.12407420  0.02453464 -1.66697847
