30
opt_min/./Reactant_3142_1_opt.xyz
  N  3.15057229  0.46848367 -2.73696623
  C  2.59990060  0.44330473 -1.73870812
  C  1.92246066  0.33950357 -0.45575853
  C  2.69582624  1.22230946  0.55376985
  F  2.02140078  1.38266068  1.69871553
  F  3.87773318  0.68403106  0.87531690
  F  2.93600310  2.44215227  0.06952133
  C  0.54073661  0.77684997 -0.51914765
  C -0.63806016  0.74466199 -0.30402457
  C -1.97754560  0.31882781  0.06079062
  C -2.63486221  1.43526601  0.90374872
  F -2.54860446  2.62235084  0.30373691
  F -3.92209099  1.21484236  1.17268730
  F -2.01955372  1.54787139  2.08866551
  C -2.79734946  0.09547802 -1.23424718
  F -4.11364149  0.05881600 -1.03308755
  F -2.56164795  1.04610695 -2.14022853
  F -2.47555337 -1.07214029 -1.80798188
  C -1.79392588 -0.98711106  0.87472594
  C -0.59994058 -1.83931403  0.38997320
  C  0.75648706 -1.45963259  1.02103870
  C  1.87079734 -1.15163718 -0.00083262
  H -2.71015756 -1.57924921  0.83841228
  H -1.62247939 -0.71953617  1.91860615
  H -0.52852106 -1.75636018 -0.69371884
  H -0.82250812 -2.88308380  0.60502587
  H  1.09975878 -2.27839865  1.65230627
  H  0.62945629 -0.59552666  1.67325856
  H  2.84201688 -1.42835036  0.41288516
  H  1.71350283 -1.76697056 -0.88943797
