23
opt_min/./Reactant_2255_0_opt.xyz
  C -2.78930300 -3.34102500  0.37560500
  O -1.98850649 -2.19315619  0.12955271
  C -2.32244118 -1.08890740  0.80994012
  O -3.24800306 -1.01271401  1.57020168
  C -1.35942189  0.01478981  0.49900272
  O -0.18533146 -0.42093707  0.14863462
  C  0.87491458  0.14217280 -0.31058234
  C  2.02751521 -0.72318127 -0.59139471
  C  3.20961154  0.01116043 -1.17687821
  O  2.02755961 -1.91208894 -0.35680952
  C -1.82290092  1.40128032  0.68561546
  C -0.77478843  2.47505752  0.90506107
  O -3.00339328  1.66289497  0.69697060
  H -2.31232226 -4.15745839 -0.16034850
  H -3.80548685 -3.17788564  0.00941595
  H -2.83378084 -3.55079852  1.44589694
  H  0.95264813  1.20495039 -0.50687854
  H  3.97595320 -0.69997776 -1.47390298
  H  2.90484020  0.60349806 -2.03816905
  H  3.61853235  0.68338410 -0.42091563
  H -0.35840984  2.79598161 -0.04746597
  H  0.02003760  2.11637554  1.55616465
  H -1.26101746  3.33155541  1.36555381
