19
opt_min/./Reactant_2004_0_opt.xyz
  C  4.40189100 -0.07724700 -0.40154600
  N  2.96657341 -0.20856695 -0.32862377
  C  2.22064089  0.56357411  0.46924111
  O  2.62301979  1.43768171  1.21432298
  N  0.84437280  0.27812280  0.31332274
  N  0.13143160  1.05004228  1.01154716
  N -1.11545845  1.08664155  1.16402297
  C -1.94946971  0.38279584  0.29657033
  O -1.74268111  0.18030582 -0.87021615
  O -3.06525577  0.06376158  0.95561022
  C -4.10445167 -0.55710620  0.21335855
  H  4.78256871 -0.70408687 -1.20226755
  H  4.85624566 -0.37895711  0.54506139
  H  4.67360644  0.96360180 -0.58829111
  H  2.48126344 -0.85353562 -0.93083362
  H  0.66006998  1.74427344  1.60074382
  H -5.01925351  0.01184918  0.37803359
  H -4.23200046 -1.57679022  0.58009367
  H -3.85185006 -0.57129283 -0.84864076
