45
opt_min/./Reactant_5818_0_opt.xyz
  C  5.02620900  0.10514600  2.40695600
  N  3.96713853 -0.12442804  1.45856409
  C  2.77907754 -0.61446212  1.85553619
  O  2.55791576 -0.86108744  3.04511593
  C  1.77466664 -0.79910463  0.79185038
  C  2.09276658 -0.51052911 -0.59767821
  O  3.10022262  0.09541274 -0.97316466
  N  1.24852889 -1.01727513 -1.54607020
  C  1.56201703 -0.90219932 -2.94837543
  N  0.50095375 -1.17827395  1.13414793
  C  0.34560349 -2.15345742  2.19249116
  C -0.57457741 -0.63746749  0.56553908
  C -1.86314165 -1.32209527  0.54033341
  C -1.94616286 -2.68778100  0.23272187
  C -3.17098408 -3.31761310  0.15299800
  C -4.33957455 -2.60456915  0.37426236
  C -4.27070875 -1.25371609  0.67471785
  C -3.04813309 -0.61567014  0.75326484
  C -0.50289679  0.66153912 -0.10569188
  C  0.23357652  1.71926425  0.43608205
  C  0.22440789  2.95986366 -0.16453658
  C -0.50115206  3.17196554 -1.32832415
  C -1.23238218  2.13302150 -1.87775358
  C -1.23876708  0.89174237 -1.27086409
  H  5.13137093 -0.76475120  3.05758637
  H  4.81046738  0.97131754  3.04102187
  H  5.95352446  0.28358494  1.86916395
  H  4.06691276  0.14332601  0.48058716
  H  0.51277577 -1.65392048 -1.29077982
  H  2.26834996 -1.67399624 -3.27107888
  H  2.02221457  0.07067073 -3.11483285
  H  0.64557644 -0.97877927 -3.52913941
  H -0.70330207 -2.34759893  2.39027593
  H  0.84455805 -1.75580280  3.08424306
  H  0.87113391 -3.07471911  1.93697927
  H -1.04134809 -3.24849393  0.04120614
  H -3.21584229 -4.36918008 -0.08910936
  H -5.29570017 -3.10078914  0.30826852
  H -5.17725201 -0.69369595  0.84679038
  H -2.99947423  0.43544220  0.99752871
  H  0.79845822  1.57077761  1.34419515
  H  0.79289435  3.76593657  0.27475496
  H -0.49388951  4.14175260 -1.80172808
  H -1.80059960  2.28695506 -2.78349821
  H -1.80247590  0.08177236 -1.71106595
