31
opt_min/./Reactant_2993_1_opt.xyz
  C  3.72026196  1.65632911 -1.20834099
  O  2.55415929  0.86259957 -1.08351497
  C  1.98580468  0.82096772  0.14983250
  O  2.46660297  1.43623561  1.08802000
  C  0.77455573  0.02696738  0.15394300
  C  0.30255393 -0.51071663 -1.16595949
  N  0.13885456 -0.28573200  1.29906323
  C  0.87290759 -0.34090717  2.55927155
  C -1.14585336 -0.67419240  1.39838055
  C -1.58003881 -1.28728254  2.57689748
  N -1.98110653 -1.76761199  3.54507894
  C -2.22660685 -0.34900985  0.46833078
  C -3.29067280 -1.23607478  0.29514762
  C -4.36237243 -0.89047272 -0.50599557
  C -4.39599573  0.34384312 -1.13320959
  C -3.35247195  1.23876001 -0.95321015
  C -2.27395235  0.89970878 -0.16118799
  H  4.31395545  1.60770244 -0.29276663
  H  3.44754528  2.69799304 -1.39683426
  H  4.27802669  1.25693225 -2.05260518
  H  0.74018073 -1.50149952 -1.31568794
  H -0.77482268 -0.61024273 -1.23792726
  H  0.64799257  0.12756782 -1.97294929
  H  1.88489429  0.02631463  2.43356305
  H  0.89751746 -1.37393568  2.91134213
  H  0.37041036  0.26789059  3.31118784
  H -3.26729320 -2.19573513  0.79030589
  H -5.17627105 -1.58717483 -0.64025630
  H -5.23513492  0.61175024 -1.75786500
  H -3.38160625  2.20731119 -1.42974851
  H -1.46623893  1.60215987 -0.01465242
