30
opt_min/./Reactant_2796_1_opt.xyz
 Cl -3.00473216  2.58114484  1.83236366
  C -2.38090316  1.53761174  0.50627158
 Cl -2.86573375  2.28959526 -1.05302303
  C -0.96593006  1.35593078  0.55257385
  C  0.07654238  0.75959629  0.53244890
  C  1.01185223 -0.33130471  0.41530117
  C  2.30808847 -0.01456363 -0.28261184
  C  3.49844111 -0.58287197  0.14909694
  C  4.68322107 -0.31345272 -0.51286673
  C  4.68968528  0.52984762 -1.61066586
  C  3.50560692  1.10231632 -2.04490607
  C  2.32079762  0.82999721 -1.38536370
  C  0.21879622 -1.40033769 -0.38166587
  C -1.18725953 -1.76764347  0.13044818
  C -2.41128190 -0.93004791 -0.32147143
  C -2.99329662  0.13616958  0.62839685
  H  1.22086609 -0.70747655  1.42442080
  H  3.49925411 -1.24080897  1.00700576
  H  5.60426606 -0.76057747 -0.16871620
  H  5.61481704  0.74303407 -2.12441522
  H  3.50579190  1.76355750 -2.89866732
  H  1.39666423  1.28168865 -1.71714934
  H  0.83144606 -2.30631929 -0.37299002
  H  0.13885365 -1.07018854 -1.41954098
  H -1.36361275 -2.76558602 -0.27883408
  H -1.18519436 -1.86823309  1.21605288
  H -2.22159816 -0.49532963 -1.30222643
  H -3.22420294 -1.64867326 -0.44589244
  H -4.06346272  0.23570527  0.43516949
  H -2.86883684 -0.19214747  1.66252881
