20
opt_min/./Reactant_3281_1_opt.xyz
  C  3.53010200  0.94639700  0.52495800
  C  2.59556717 -0.19341003  0.34588786
  N  1.31301859  0.00077613  0.20084099
  N  0.42311566 -0.92523685  0.04263525
  C -0.89788720 -0.56681661 -0.04399195
  C -1.44051284  0.70222697  0.21193379
  C -2.79720129  0.92033042  0.09122897
  C -3.65154531 -0.10421375 -0.27561647
  C -3.13054078 -1.36713035 -0.51659166
  C -1.77825716 -1.59713823 -0.40200881
  H  4.47828115  0.73007305  0.03502471
  H  3.74039835  1.12633510  1.58323428
  H  3.11639231  1.86184238  0.09954051
  H  2.94124658 -1.21305225  0.35952764
  H  1.02311236  0.99512969  0.20068108
  H -0.80375807  1.52196061  0.52197438
  H -3.19920292  1.90597535  0.29192586
  H -4.71333159  0.07020778 -0.36798807
  H -3.78679616 -2.18049707 -0.79803998
  H -1.34719207 -2.56996283 -0.58450691
