30
opt_min/./Reactant_2515_1_opt.xyz
  C -2.82639961 -0.93701252  1.86256837
  C -1.33592618 -1.03930135  1.98908917
  O -0.78031622 -1.70160506  2.82261750
  C -0.53353781 -0.13710057  1.03141413
  C -0.46384859  1.20662227  1.78800153
  C  0.55034512  1.25694563  2.88779158
  O -1.22723161  2.09862888  1.53115774
  C  0.77956721 -0.65429281  0.74061135
  C  1.76715474 -1.03892567  0.17540850
  C  2.67192500 -1.23849081 -0.91425239
 Cl  4.36968522 -0.84322075 -0.49814680
 Br  2.60158228 -3.14841470 -1.49395301
  C  2.16034382 -0.34906375 -2.06006733
  C  0.62799074 -0.40968753 -2.23104073
  C -0.18633186  0.62667341 -1.41681288
  C -1.16817208  0.05129030 -0.37421013
  H -3.29654615 -1.57254374  2.60863083
  H -3.16354928 -1.22883400  0.87196348
  H -3.12169273  0.09966244  2.02325970
  H  0.11655626  0.77496512  3.76493728
  H  0.77761587  2.28967195  3.14031962
  H  1.45444807  0.71544548  2.62376993
  H  2.64977599 -0.65345490 -2.98644772
  H  2.46604942  0.67757077 -1.84584495
  H  0.29385964 -1.41931270 -1.98723610
  H  0.41440887 -0.25571663 -3.28927771
  H  0.48874052  1.32106178 -0.91462300
  H -0.77322894  1.21848729 -2.12057643
  H -2.00941308  0.73770556 -0.26789420
  H -1.54067857 -0.91032939 -0.72990846
