25
opt_min/./Reactant_5489_1_opt.xyz
  C -2.55602792  2.55494745  1.39160783
  N -3.97484810 -8.19471517  3.41128596
  C  12.19525564 -12.98387615 -20.86040269
  O  0.73875749  60.96021833 -33.58937255
  C -39.46105861 -1.81360442 -34.49522485
  O  6.77847458 -8.58339143 -11.15856533
  N  19.51255280 -6.39116385 -15.21165205
  C  1.06312439 -26.11397191 -12.53538916
  O  40.37250387 -53.19019860 -22.95649443
  O -3.09733210  15.02034900  7.04125581
  C  7.30119475  33.02705885  15.81658247
  C  0.60771935 -30.52950654 -36.88017122
  O -25.58450340 -17.41516360 -16.81758339
  O -4.70504880 -0.56964224  14.56565921
  C -9.02600259  9.67256147 -2.87844344
  H -3.32131366 -2.16360053 -21.00802553
  H -14.30030955  24.79997575  13.76767381
  H  32.28850059  10.20663567 -16.05855972
  H -46.45298591  103.13700208 -2.11585058
  H -5.94651470 -30.02064191  0.23874698
  H -27.02361787 -17.10508281 -41.53086214
  H -6.23777152 -15.73756240  22.89326376
  H  14.51288517 -32.70774561  21.14514362
  H  14.60780885 -16.24353079 -12.67832582
  H  2.55571633 -3.71227979  0.90748131
