18
opt_min/./Reactant_2773_1_opt.xyz
  C  4.09918765  1.07922331 -0.63538094
  N  2.84672930  0.41061734 -0.38936957
  C  1.66156062  1.07967925 -0.44636538
  O  1.54818547  2.26038917 -0.70590567
  C  0.53076054  0.25905722 -0.18238396
  N -0.44883309 -0.36750979 -0.01104288
  C -1.55521352 -1.00238671  0.12862470
  C -2.83507648 -0.33165829  0.04333602
  C -4.01380279 -1.26993745  0.20666326
  O -2.96421357  0.86045472 -0.14835497
  H  4.74046893  1.03959881  0.24729402
  H  3.87142150  2.11826820 -0.86952214
  H  4.62162639  0.62595645 -1.48075274
  H  2.86380107 -0.57019437 -0.16280278
  H -1.49785262 -2.05794068  0.33605472
  H -3.87274539 -1.92858171  1.05984533
  H -4.92205115 -0.68746625  0.33463407
  H -4.10959705 -1.87955916 -0.69098175
