32
opt_min/./Reactant_2927_0_opt.xyz
  C  4.60374898 -0.53224633  0.74531865
  O  3.49236328 -0.91382679 -0.05716871
  C  2.37145924 -0.20948882  0.11377320
  O  2.25626571  0.70459845  0.88241410
  C  1.26103904 -0.77970717 -0.75893698
  C  0.26136768  0.20787115 -1.06301701
  C -0.76994310  0.80933697 -0.97209364
  C -2.07432129  1.24282520 -0.53087493
  C -3.13780213  0.76231950 -1.53990803
  F -4.38674299  0.91597250 -1.08792466
  F -3.06026259  1.40959031 -2.70560121
  F -3.00030399 -0.53959882 -1.82002440
  C -2.15785531  2.77642542 -0.41879180
  F -1.49167672  3.23417640  0.64592107
  F -3.41677060  3.21392291 -0.29254601
  F -1.63801951  3.38900310 -1.48520575
  C -2.27137677  0.56692127  0.85538081
  C -1.84846450 -0.90961888  1.00220990
  C -0.35902544 -1.26379997  1.23976003
  C  0.47119175 -1.83246009  0.07044721
  H  4.41650616 -0.78138407  1.79150082
  H  4.77761729  0.54179812  0.66359543
  H  5.45697730 -1.09034877  0.36924216
  H  1.70518449 -1.23884513 -1.64379330
  H -3.33508827  0.64191629  1.09911778
  H -1.71324184  1.14899875  1.59022669
  H -2.25410452 -1.52302879  0.19960159
  H -2.36459196 -1.21260618  1.91732009
  H  0.15884357 -0.42261943  1.69945258
  H -0.37617850 -2.06907400  1.97883435
  H  1.20751734 -2.53064558  0.47695726
  H -0.18197554 -2.38875522 -0.60300883
