37
opt_min/./Reactant_1779_1_opt.xyz
  C  3.83380500  1.52842900  3.47802800
  N  3.21563263  1.34836438  2.19049155
  C  2.04423908  0.72268718  2.03070505
  O  1.38842717  0.22916767  2.95549875
  C  1.50475739  0.60211869  0.66106401
  N  0.31959833 -0.03919644  0.69332976
  C -0.64393609 -0.29221762 -0.15996222
  C -0.65093060  0.31704580 -1.51920148
  O -0.89239145 -0.23866008 -2.55913098
  O -0.46726379  1.64276663 -1.40970751
  C -0.51957200  2.38812870 -2.61464621
  C -1.78688554 -1.09611560  0.26289346
  C -2.56312881 -1.78483807 -0.67238171
  C -3.63764692 -2.55096741 -0.26133947
  C -3.96646637 -2.63378604  1.08111462
  C -3.21432566 -1.94161512  2.01649189
  C -2.13448000 -1.17803767  1.61866597
  C  2.28819289  0.89386256 -0.50699951
  O  3.29114370  1.59073716 -0.52289430
  O  1.84644432  0.24089686 -1.60796658
  C  2.61697108  0.37744091 -2.78837087
  H  4.89221807  1.27501021  3.41806765
  H  3.73469247  2.56301247  3.81797987
  H  3.33490736  0.87182664  4.18929983
  H  3.65748212  1.70552017  1.35063317
  H  0.20258982 -0.33871260  1.69047364
  H -1.46408960  2.20391397 -3.13265457
  H -0.43399858  3.43427573 -2.33184817
  H  0.30197685  2.10810641 -3.27699520
  H -2.30672413 -1.72823573 -1.71792046
  H -4.22080307 -3.08738793 -0.99472918
  H -4.80975593 -3.22990362  1.39651112
  H -3.47437354 -1.99164074  3.06333531
  H -1.57938077 -0.62583623  2.36251061
  H  1.95638158  0.15600370 -3.62535351
  H  3.02413348  1.38879850 -2.86273247
  H  3.44322764 -0.33876994 -2.77753651
