25
opt_min/./Reactant_892_0_opt.xyz
  C  4.48659986 -2.84613023  0.58980059
  N  3.55730239 -1.74555249  0.56876732
  C  3.86046348 -0.54790578  1.12796274
  O  4.88679498 -0.25772192  1.69843462
  C  2.72429912  0.30940443  0.91713295
  N  1.73307876  0.89724150  0.72075482
  C  0.51749663  1.09392660  0.27783186
  C -0.02985651  2.42108330  0.50187606
  C -1.40362418  2.77017994 -0.03820227
  O  0.61814637  3.25341188  1.11087977
  C  0.02912421 -0.15163927 -0.37203487
  O  0.77492272 -1.12346276 -0.46652133
  N -1.23273448 -0.16751151 -0.84261793
  C -1.80668230 -1.34372558 -1.45072589
  H  5.38312436 -2.51532407  1.11236772
  H  4.74821779 -3.14684555 -0.42606872
  H  4.05649644 -3.70110119  1.11470644
  H  2.66144159 -1.85865409  0.10645003
  H -1.46144953  2.59084079 -1.10968173
  H -1.57109223  3.82868926  0.14805914
  H -2.17774071  2.21083781  0.48620616
  H -1.84392087  0.61171184 -0.67708300
  H -2.59640389 -1.76305079 -0.82329799
  H -1.01258551 -2.07850046 -1.56712426
  H -2.22056560 -1.09636559 -2.42894791
