28
opt_min/./Reactant_538_1_opt.xyz
  C -2.81590900  1.46591400  1.03579200
  N -1.86477363  0.47633105  0.59438924
  C -1.70285502  0.17645494 -0.71310557
  O -2.34712522  0.70430870 -1.60120572
  C -0.78951934 -0.96660319 -1.01536308
  C -1.05371587 -1.69481944 -2.29010250
  O  0.12907758 -1.47469762 -0.26921517
  C  0.75506247 -0.96735534  0.80871158
  C  1.37896042 -1.95761476  1.68490937
  C  1.14151698 -3.40044110  1.28317743
  O  1.98820175 -1.66283052  2.68899708
  C  1.03233099  0.45718698  0.95751187
  O  1.56567306  0.97860237  1.90265407
  O  0.68363730  1.14627504 -0.16663942
  C  1.04689583  2.51663028 -0.19295254
  H -2.34102798  2.14508226  1.74330524
  H -3.15109848  2.01627565  0.15872840
  H -3.67676811  0.99328295  1.51326252
  H -1.36918248 -0.03386739  1.31012216
  H -1.81404221 -1.15871503 -2.85012036
  H -0.14191007 -1.75838281 -2.88194164
  H -1.39121105 -2.71375764 -2.09815427
  H  1.24204078 -3.53556484  0.21065744
  H  1.85207840 -4.02968657  1.80995955
  H  0.13541132 -3.69405054  1.57918716
  H  0.42488086  2.98009790 -0.95404120
  H  0.87224947  2.96759109  0.78564695
  H  2.10390760  2.62264892 -0.44600397
