31
opt_min/./Reactant_1534_1_opt.xyz
  C -3.01207669  1.77565131 -1.46936380
  C -3.03285629  0.34471516 -1.01543444
  O -3.83507409 -0.46917075 -1.38801173
  C -1.93353028 -0.01002422 -0.01281979
 Cl -2.66171621  0.48028812  1.57494443
  C -0.66916410  0.63580452 -0.21212127
  C  0.50082395  0.85008728 -0.38518779
  C  1.90390639  0.51005087 -0.22176630
  C  2.57881409  1.46063582  0.78678495
  C  2.62996277  0.54840194 -1.56859334
  C  1.83543922 -0.94814760  0.32384313
  C  0.74485525 -1.20585418  1.38663584
  C -0.51534187 -2.00057462  0.97825510
  C -1.58468090 -1.50214105 -0.02374628
  H -2.26772560  1.86560802 -2.26034411
  H -2.72400640  2.43786639 -0.65728146
  H -3.98335961  2.05655541 -1.86786984
  H  2.78767938  0.94594742  1.72065525
  H  3.51567322  1.84198029  0.38952905
  H  1.93580195  2.30836518  1.01091635
  H  2.52180842  1.53062707 -2.02350640
  H  2.21704261 -0.19297074 -2.24941174
  H  3.68950505  0.34115454 -1.43391735
  H  1.69615335 -1.63400898 -0.51256429
  H  2.80897729 -1.17405219  0.76529450
  H  1.20301262 -1.81944393  2.16820035
  H  0.45531748 -0.26899016  1.86164767
  H -1.03162831 -2.21202795  1.91906326
  H -0.17049614 -2.95831984  0.58072022
  H -2.49136016 -2.07738750  0.17459830
  H -1.26465939 -1.73228093 -1.04345623
