18
opt_min/./Reactant_3585_1_opt.xyz
  C  3.16793526  1.10979468  0.70248959
  O  0.79233512  6.21746817  1.12043883
  C  18.46222228 -5.59293456  6.69845274
  O  16.07994560 -4.06698520 -35.40674825
  C  32.91306526  44.84866094 -8.66114054
  N  33.53286202  5.84693740 -7.73020602
  C  16.71997053  0.24007345 -28.26971456
  C  45.08527839  58.83069798 -32.67138245
  N  3.87002397  16.67079538  8.38219919
  C  27.97221673  2.80253079 -35.48535031
  C  32.91131512 -33.04380439 -0.28268016
  O -2.16828403  11.71756890 -9.42318259
  H  21.53732114  7.00937705  3.85758545
  H  11.31559439  5.67426468 -11.59286667
  H  70.07303448  45.74065258 -63.38448107
  H -5.60972774  4.38823076  14.27427703
  H -2.51073377 -6.05547634  16.10846865
  H -29.94849064 -24.69269802 -4.53049334
