22
opt_min/./Reactant_3037_0_opt.xyz
  C -4.35588100  0.38953300  0.45527100
  N -3.18791136  0.23252282 -0.37754010
  C -3.14728069 -0.72330663 -1.33638842
  O -4.01725259 -1.54362074 -1.50906558
  N -2.05059129 -0.69071376 -2.21324283
  O -0.85947096 -0.36902015 -1.88350634
  N -0.51965333  0.03348028 -0.67301931
  C  0.81851572  0.26002604 -0.49060684
  C  1.79171998  0.16244113 -1.49472796
  C  3.11057333  0.42850949 -1.19499561
  C  3.47967115  0.79212720  0.09237377
  C  2.51982980  0.89053484  1.08993650
  C  1.19663143  0.62958371  0.80765119
  H -4.69199556 -0.59386910  0.78449329
  H -5.17223564  0.85714608 -0.10159009
  H -4.10656236  1.00271780  1.31684068
  H -2.42253033  0.87620103 -0.26262713
  H  1.49993260 -0.11911207 -2.49525621
  H  3.85884377  0.35338308 -1.96952827
  H  4.51421609  0.99859703  0.32106796
  H  2.81157476  1.17238177  2.09039892
  H  0.43328467  0.69355849  1.56636837
