24
opt_min/./Reactant_4533_1_opt.xyz
  C -1.66950976 -0.03220431  4.08066230
  O -0.53738870  0.40265622  3.33974625
  C -0.75783385  0.70892618  2.07142502
  O -1.83160629  0.77150584  1.52867825
  C  0.49762516  1.19547416  1.41426440
  C  1.29200411  2.04722586  2.18613432
  N  1.92411975  2.74021785  2.85140233
  N  0.71709270  1.07020792  0.10906533
  C  1.67412065  1.98119743 -0.50085066
  C  0.12367222  0.12630592 -0.65742283
  C  0.15546355  0.26111692 -2.04862345
  N  0.18353861  0.33983262 -3.19689824
  C -0.33865758 -1.12780906 -0.07755806
  C -0.84448174 -2.15014915 -1.05716356
  O -0.25830096 -1.35422897  1.11824632
  H -2.46579182  0.71305990  4.02854175
  H -2.03691474 -0.97536257  3.67212703
  H -1.32517544 -0.16317788  5.10284312
  H  1.81915523  1.72121579 -1.54741685
  H  1.31078078  3.00613469 -0.42020917
  H  2.62983115  1.91839961  0.02296859
  H -0.91928307 -3.11647815 -0.56419076
  H -1.83534852 -1.85053950 -1.39510543
  H -0.19912008 -2.22812579 -1.92926201
