19
opt_min/./Reactant_1043_1_opt.xyz
  C  3.59277500 -0.03976600 -0.43781500
  O  2.20970312 -0.36692338 -0.48169656
  C  1.42983479  0.18035379  0.46252690
  O  1.82421939  0.92335556  1.32802951
  C  0.03167368 -0.22180685  0.30568935
  C -0.61478573 -0.94900874 -0.61914093
 Cl -0.05637499 -1.68545103 -2.01664068
  C -2.09009757 -0.93032626 -0.18626878
  C -2.54086991  0.51379643 -0.44287147
  C -1.91511169  1.22761811  0.47867609
  C -1.08834416  0.20872461  1.26953967
  O -1.93840124 -0.92570884  1.21808403
  H  3.72939709  0.96904447 -0.04345343
  H  3.96126863 -0.10864659 -1.45971182
  H  4.12188660 -0.74967625  0.20052595
  H -2.72118975 -1.73776630 -0.54020157
  H -3.20371266  0.81537513 -1.22708090
  H -1.92100919  2.28147681  0.66375982
  H -0.78542077  0.46431135  2.27768124
