27
opt_min/./Reactant_1523_0_opt.xyz
  C -1.65711000  1.73971000  0.14243000
  C -2.12793789  0.42863908  0.63368876
  N -1.58865449 -0.73264868  0.25940866
  C -2.36721512 -1.92927090  0.54273646
  C -0.43993292 -0.86162763 -0.44400219
  C -0.30199305 -2.06487724 -1.33709584
  C  0.68168182  0.00962959 -0.22815980
  C  0.89323984  0.62105447  1.02323511
  C  2.00834990  1.39494471  1.26904977
  C  2.94909910  1.61311248  0.27716417
  C  2.76399774  1.02035373 -0.96377204
  C  1.66263770  0.23287236 -1.21226938
  H -1.30789106  1.64085870 -0.88634962
  H -0.81197365  2.13652909  0.72022342
  H -2.46803840  2.46355725  0.18796233
  H -2.93890207  0.39098667  1.34038629
  H -2.96307321 -1.76731761  1.43961966
  H -1.70844273 -2.77726597  0.70870534
  H -3.04742568 -2.15728348 -0.28053357
  H -1.25605266 -2.34588847 -1.77959885
  H  0.38876490 -1.86008784 -2.14735905
  H  0.09135129 -2.93116638 -0.79465862
  H  0.20186767  0.42219706  1.83064413
  H  2.14541464  1.83228005  2.24867239
  H  3.81548880  2.22863246  0.46727242
  H  3.48961844  1.18186905 -1.74909441
  H  1.54756065 -0.19591767 -2.19654855
