21
opt_min/./Reactant_1107_0_opt.xyz
  C  3.88441700  0.63384600 -0.26024000
  C  3.74262321 -0.82682875 -0.68039605
  O  4.69029759 -1.56792664 -0.76649788
  N  2.49169005 -1.22009192 -1.07642015
  N  1.41341415 -0.78012518 -0.57804863
  N  0.28218459 -0.96844948 -1.09448949
  C -0.84445067 -0.47972459 -0.48208662
  C -0.86365080  0.64481259  0.35472576
  C -2.05455124  1.07258112  0.90735342
  C -3.23613130  0.40040968  0.64294825
  C -3.22676858 -0.70083131 -0.20174033
  C -2.04739116 -1.13598866 -0.76622038
  H  4.89368667  0.79113926  0.11042566
  H  3.72385005  1.26359547 -1.13469569
  H  3.16578635  0.91396609  0.50836278
  H  1.45900254 -0.28520963  0.35978286
  H  0.03677858  1.21738126  0.53466147
  H -2.06353600  1.94362569  1.54661808
  H -4.16112621  0.74102864  1.08092388
  H -4.14906647 -1.21708691 -0.42199409
  H -2.02070666 -1.99320906 -1.41914624
