30
opt_min/./Reactant_1815_1_opt.xyz
  N  1.08810299  3.37358900  1.11306600
  C  0.10151714  2.91566435  0.73382598
  C -1.12652148  2.42904653  0.29056273
  C -2.15197991  3.36072307  0.12526426
  N -3.00961342  4.11738185 -0.01034022
  N -1.41383215  1.11528381  0.06843097
  C -0.65413131  0.03366461  0.12403842
  C -1.29143102 -1.26697411  0.03964172
  C -0.56734252 -2.37247163 -0.42250009
  C -1.16166766 -3.61419908 -0.51694661
  C -2.48822538 -3.78603765 -0.15318970
  C -3.21662222 -2.70348697  0.31393200
  C -2.62958527 -1.45827459  0.41235308
  C  0.80269051  0.12797843  0.23382047
  C  1.48174015 -0.59591579  1.21357106
  C  2.85835279 -0.52698812  1.30293679
  C  3.57792264  0.24851160  0.40822842
  C  2.91319413  0.95378436 -0.58035266
  C  1.53545489  0.90026997 -0.66794904
  H -2.39579882  0.94996366 -0.14519364
  H  0.46158389 -2.24378412 -0.72261628
  H -0.58975411 -4.45481859 -0.87993154
  H -2.95022780 -4.75837958 -0.22723065
  H -4.24658482 -2.83298535  0.61117728
  H -3.20746603 -0.64022685  0.82081800
  H  0.92167601 -1.19610902  1.91591189
  H  3.36858871 -1.08160349  2.07614347
  H  4.65339635  0.30068433  0.48187357
  H  3.46496112  1.55448837 -1.28698117
  H  1.03061785  1.44195994 -1.45497921
