26
opt_min/./Reactant_4942_0_opt.xyz
  C -3.76343775  2.81455349  0.50220658
  N -3.33619343  1.44048173  0.45334131
  C -2.01260426  1.10972081  0.56984179
  O -1.18124056  1.92156791  0.96142634
  C -1.64901390 -0.23531689  0.16206133
  C -2.56109715 -1.34942143 -0.27207575
  N -0.38391716 -0.50907836  0.21171802
  C  0.78733441 -0.61427969  0.22765068
  C  2.16954378 -0.73142046  0.16372634
  C  2.79293377 -1.06466367 -1.05156370
  C  4.16700713 -1.15370426 -1.11747861
  C  4.93796902 -0.91992859  0.01259213
  C  4.32976369 -0.59469446  1.21789669
  C  2.95662294 -0.49950574  1.30289766
  H -4.15623574  3.14602742 -0.46234854
  H -2.89048433  3.41123036  0.76059181
  H -4.53203580  2.95574440  1.26580455
  H -3.98939897  0.77014851  0.08826152
  H -2.77882676 -2.02560731  0.55775042
  H -3.50476121 -0.96909683 -0.65280548
  H -2.09255704 -1.93260586 -1.06388434
  H  2.18655091 -1.23362561 -1.92907971
  H  4.64284916 -1.38657403 -2.05793100
  H  6.01377052 -0.98867414 -0.04828696
  H  4.93317801 -0.42833790  2.09729160
  H  2.47517175 -0.24306763  2.23535309
