26
opt_min/./Reactant_1699_0_opt.xyz
  C  3.95451600 -1.49249900 -0.38296600
  O  2.57293949 -1.15151559 -0.39030650
  C  2.23515962  0.04250098  0.13349737
  O  3.03054013  0.80119965  0.63012141
  C  0.80358535  0.36531990  0.04679661
  C  0.51882971  1.85156036  0.12364940
  C -0.36523089  2.26971364  1.26654149
  O  1.00518942  2.61688939 -0.66095652
  N -0.20546465 -0.47173680 -0.10084373
  C  0.01003000 -1.91363113 -0.10790255
  N -1.37981883  0.02046465 -0.33913041
  C -2.56584687 -0.59785570 -0.08705850
  C -3.69843851  0.12364688 -0.77183458
  O -2.72575317 -1.52067949  0.69170778
  H  4.02937344 -2.53798499 -0.08795865
  H  4.49259770 -0.85338492  0.31860669
  H  4.35909571 -1.35762663 -1.38690425
  H -0.26307457  1.60058863  2.11567119
  H -0.11794211  3.28861744  1.55211173
  H -1.39791528  2.24607898  0.92520435
  H -0.94877932 -2.41179644  0.01913832
  H  0.46953796 -2.21290657 -1.04817004
  H  0.66857934 -2.19247351  0.71128744
  H -3.37847693  0.49270778 -1.74125343
  H -3.99171467  0.97440671 -0.15910171
  H -4.55040380 -0.54255163 -0.86998242
