21
opt_min/./Reactant_961_1_opt.xyz
  C  3.02980500 -0.40816400  0.30400500
  O  1.93015513  0.06884094  1.05196735
  C  0.76617323  0.19211245  0.38176433
  C  0.38460422 -0.00036057 -0.88063548
  F  1.10299500 -0.45703067 -1.93645192
  C -1.10036788  0.24122779 -0.97936953
  C -1.77974187 -0.93052198 -0.23114595
  C -1.35497050 -0.69055013  1.23015230
  C -0.49033450  0.59000082  1.13496529
  C -1.24391964  1.36672426  0.05090971
  H  3.87512336 -0.43388694  0.98786068
  H  3.25538349  0.25685259 -0.53423292
  H  2.83534623 -1.41240409 -0.08325540
  H -1.46837818  0.41287091 -1.98735710
  H -1.44418521 -1.89294230 -0.61454910
  H -2.86172505 -0.87958952 -0.34651595
  H -2.21731953 -0.50684583  1.86984565
  H -0.78915119 -1.52128532  1.64732855
  H -0.30220480  1.07867211  2.08624773
  H -2.27719155  1.58455673  0.31576772
  H -0.74292119  2.28644261 -0.24591664
