29
opt_min/./Reactant_4664_1_opt.xyz
  C -2.78166402 -2.66656170 -1.83528121
  N -2.06222716 -1.61524097 -1.15123685
  C -0.74105338 -1.40580402 -1.40112214
  O -0.13874422 -1.92072317 -2.31896855
  C -0.09425466 -0.45032950 -0.44682070
  C  0.75978533 -1.15785788  0.56055271
  O  0.26485159 -1.96905343  1.31859541
  N  2.07704951 -0.89286245  0.48525499
  C  3.02757565 -1.45628328  1.41135812
  N -0.38234139  0.84508968 -0.41881857
  C -1.25299372  1.35885996 -1.46278116
  C  0.04861344  1.72538511  0.50664399
  C -0.27535429  3.18996958  0.42296947
  C  0.76510188  1.34027380  1.62945598
  N  1.37498176  1.17249981  2.59609448
  H -2.72226192 -3.61280839 -1.29287294
  H -2.32651046 -2.79665461 -2.81526288
  H -3.82608022 -2.37755256 -1.94738869
  H -2.38910821 -1.38380055 -0.22439518
  H  2.41534821 -0.22401538 -0.18747867
  H  2.50463380 -2.21289564  1.99256966
  H  3.40227319 -0.68453158  2.08653715
  H  3.85777247 -1.91207007  0.87175105
  H -2.25769024  1.51615705 -1.06777660
  H -1.29997805  0.65203340 -2.28768040
  H -0.87343357  2.30686991 -1.83852929
  H  0.05817205  3.63456363 -0.51682524
  H  0.23890082  3.70377399  1.23209137
  H -1.34534262  3.37887815  0.53370641
