30
opt_min/./Reactant_688_1_opt.xyz
  C  2.55433600 -2.70929800  0.83689200
  N  1.77339211 -1.50533823  0.71855523
  C  2.24738398 -0.39263257  0.10558169
  O  3.34668347 -0.33944677 -0.41346485
  C  1.32484194  0.75166714  0.10232740
  C -0.00408116  0.89383939  0.20494758
  C -1.09964422 -0.05697741  0.27239586
  C -1.09638788 -1.19439132 -0.53792368
  C -2.14850325 -2.08865363 -0.49042892
  C -3.21396286 -1.86762400  0.36799219
  C -3.22630289 -0.74183535  1.17450475
  C -2.18207036  0.16263646  1.12426313
  C -0.22153002  2.42126090  0.11109328
  C  0.08122162  2.75606682 -1.35000808
  C  1.39126932  2.61038192 -1.46248327
  C  1.85474933  2.18778197 -0.06862143
  O  0.94487098  2.90148026  0.75497078
  H  1.99371284 -3.56482426  0.45645477
  H  3.45851853 -2.57125133  0.24631881
  H  2.83174881 -2.89893948  1.87680325
  H  0.87174796 -1.47746309  1.16600150
  H -0.27128316 -1.35475772 -1.21625613
  H -2.14034231 -2.96103952 -1.12713352
  H -4.03454623 -2.56862398  0.40570997
  H -4.05477091 -0.56568429  1.84509280
  H -2.18756814  1.03373879  1.76236891
  H -1.13075403  2.82528823  0.54038867
  H -0.66533206  3.01162831 -2.07405198
  H  2.04472765  2.71610500 -2.30300987
  H  2.89180901  2.35163020  0.19529939
