9
opt_min/./Reactant_3221_1_opt.xyz
  C -1.29531030 -0.18491972  0.13792655
  C  0.11825412 -0.23280009  0.62820843
  O  0.47886384 -0.51805978  1.74025694
  N  1.00736508  0.10275330 -0.37979871
  N  2.20135091  0.07980478 -0.39824747
  N  3.29924557  0.10249938 -0.60380990
  H -1.45522454  0.71765542 -0.44641333
  H -1.98054931 -0.22206054  0.97915277
  H -1.47629305 -1.04445347 -0.50586182
