39
opt_min/./Reactant_5964_1_opt.xyz
  C -3.18807928  3.31960411 -1.90234145
  N -2.23234946  2.40161207 -1.32779354
  C -2.32927040  1.05058038 -1.53229091
  O -3.13782679  0.56172648 -2.29603884
  C -1.34469555  0.25168989 -0.76370703
  C -1.86182601 -0.92318837 -0.07482714
  C -1.12547551 -2.11073210  0.00042526
  C -1.66867116 -3.23269109  0.58738520
  C -2.94851792 -3.19581361  1.12030078
  C -3.68882701 -2.02927167  1.04517456
  C -3.15556730 -0.90224485  0.44977307
  N -0.05168443  0.59559832 -0.72268394
  C  0.49773671  1.47638392 -1.74444522
  C  0.77127979  0.22656549  0.29817188
  C  0.21063586 -0.04780672  1.54211320
  N -0.17347591 -0.20056517  2.61937030
  C  2.20791151  0.03145083  0.15375605
  C  3.06882090  0.39806930  1.19201994
  C  4.42737921  0.17637337  1.08687684
  C  4.95544653 -0.41948272 -0.04734169
  C  4.10837827 -0.81668325 -1.06990849
  C  2.74801238 -0.60176967 -0.96992699
  H -3.87912949  3.70242902 -1.14803805
  H -2.66486618  4.15666885 -2.36620350
  H -3.74908828  2.77239734 -2.65718641
  H -1.72660207  2.72536846 -0.51797675
  H -0.13052700 -2.15890674 -0.42079824
  H -1.09134963 -4.14363633  0.62999653
  H -3.36475889 -4.07350467  1.58975677
  H -4.68758157 -1.99486713  1.45524549
  H -3.73768079  0.00516666  0.39485440
  H -0.14514985  1.47338828 -2.62197420
  H  1.49247374  1.14154938 -2.02411556
  H  0.58364131  2.49559105 -1.36371521
  H  2.65753889  0.85808960  2.07951850
  H  5.07859343  0.47412749  1.89450054
  H  6.01790009 -0.59006051 -0.12931946
  H  4.50778733 -1.30952200 -1.94446552
  H  2.09710119 -0.96148796 -1.75635658
