29
opt_min/./Reactant_3145_1_opt.xyz
  F  2.28535282  2.10146996 -0.17460182
  C  2.59931074  1.49077317  0.97452715
  F  2.65935220  2.41921628  1.92324450
  F  3.83428851  0.99501846  0.81905121
  C  1.57828217  0.38084272  1.30524178
  F  1.77096173  0.02723243  2.62309571
  C  0.22348887  0.80165379  1.06337048
  C -0.87196436  0.70775296  0.59320805
  C -2.05065607  0.26005428 -0.09768854
  C -3.30961535  0.79282264  0.62547596
  F -3.19552608  2.08614453  0.92918231
  F -4.42768041  0.65459474 -0.09226076
  F -3.51046241  0.14002406  1.77667995
  C -2.01283339  0.82003992 -1.53192396
  F -3.03714542  0.37885329 -2.26989226
  F -0.89870124  0.43871131 -2.17023128
  F -2.04044646  2.15030441 -1.56233268
  C -1.94508019 -1.28093191 -0.04734696
  C -0.61451081 -1.97642541 -0.41568220
  C  0.69879692 -1.95481862  0.41104626
  C  1.76608708 -0.83774618  0.37666991
  H -2.69871877 -1.68698407 -0.72940265
  H -2.21379836 -1.59043450  0.96539354
  H -0.36576162 -1.78582220 -1.46285619
  H -0.90668580 -3.03148890 -0.34337793
  H  1.24255867 -2.79240591 -0.04329276
  H  0.49056650 -2.22821194  1.44882218
  H  1.89186734 -0.47607361 -0.64487589
  H  2.70238316 -1.31143867  0.68798021
