24
opt_min/./Reactant_490_1_opt.xyz
  C  3.21291323  0.57912207 -0.21017616
  O  2.75574645 -0.75313848 -0.22064052
  C  1.37025025 -0.92160050 -0.19853996
 Cl  1.09277640 -2.49973671 -1.02928603
  C  0.54877844  0.09129324 -0.81665959
  C -0.29956245  0.94087134 -0.88231605
  C -1.56470960  1.58661395 -0.66742218
  C -2.35861634  0.57657515  0.19388966
  C -1.63769893  0.04483935  1.44843756
  C -0.73018061 -1.20831086  1.32969777
  C  0.79312171 -1.00643565  1.23551290
  H  2.82231534  1.14082878 -1.06555484
  H  4.29727732  0.51783222 -0.27318433
  H  2.92946515  1.09715187  0.71257953
  H -2.09490496  1.79381785 -1.59814086
  H -1.42759493  2.52385150 -0.12281409
  H -2.64217818 -0.27123293 -0.43240879
  H -3.27256854  1.08187643  0.51797800
  H -1.08577634  0.85227982  1.93463747
  H -2.44053093 -0.24447718  2.13102317
  H -1.07008802 -1.83463282  0.50956484
  H -0.88405845 -1.77077037  2.25424079
  H  1.31231802 -1.81754225  1.74952059
  H  1.06684624 -0.06864210  1.72991871
