24
opt_min/./Reactant_1968_0_opt.xyz
  C  4.95857212  0.20452507 -0.45660925
  O  3.94944801 -0.03348213  0.51420939
  C  2.67427478  0.08444621  0.08173410
  O  2.36346027  0.38409305 -1.05415217
  C  1.74857503 -0.10174929  1.16742042
  O  0.44378873 -0.04456876  1.06166833
  C -0.32084897 -0.25708772  0.02137749
  C  0.12232284 -0.75717890 -1.21778024
  N  0.37780454 -1.27936134 -2.21032331
  C -1.74526405 -0.02188867  0.20281887
  C -2.64726752 -0.30617243 -0.82844711
  C -3.99853077 -0.08570578 -0.64897105
  C -4.47235807  0.41783492  0.55238259
  C -3.58557745  0.70430381  1.57903654
  C -2.23319137  0.49052448  1.41061932
  H  4.60731047 -0.09509074 -1.44591318
  H  5.82494723 -0.38036919 -0.15728804
  H  5.21159632  1.26755734 -0.47618054
  H  2.09666825 -0.08782766  2.18801118
  H -2.27895469 -0.69840807 -1.76388937
  H -4.68587874 -0.30786960 -1.45098971
  H -5.52991513  0.58904586  0.68680658
  H -3.95146381  1.09969868  2.51491333
  H -1.54280138  0.71954637  2.20815717
