25
opt_min/./Reactant_2430_0_opt.xyz
  C -1.35881131  3.40539823 -0.13360929
  O -0.64839707  2.17612373 -0.21852443
  C -1.28391659  1.10460566  0.26223810
  O -2.38885806  1.13581475  0.75393656
  C -0.50079501 -0.14169909  0.15814893
  O -1.10208229 -1.29808028  0.18785806
  C -2.36469729 -1.62443254  0.00899845
  C -2.66349241 -2.99637047  0.10540851
  N -2.93216330 -4.11039770  0.17297899
  C -3.44396749 -0.80982096 -0.36475803
  N -4.36443110 -0.24226220 -0.75504443
  C  0.95010078 -0.20089798  0.13807868
  C  1.74311220  0.84238339  0.62546886
  C  3.11947855  0.74451647  0.58411957
  C  3.73094002 -0.38869823  0.06785730
  C  2.95311542 -1.43527496 -0.40447402
  C  1.57706658 -1.34676848 -0.37042098
  H -0.83827565  4.10256328 -0.78705272
  H -1.35707804  3.77168639  0.89636561
  H -2.39300333  3.26542613 -0.45528917
  H  1.28185018  1.72019687  1.04955770
  H  3.72481785  1.55381870  0.96438140
  H  4.80714193 -0.45617495  0.03699389
  H  3.42042720 -2.32250839 -0.80579515
  H  0.97406836 -2.15971870 -0.74819148
