39
opt_min/./Reactant_4651_1_opt.xyz
  C  0.89522600  3.23519500 -0.68696800
  C  1.83206369  2.03540975 -0.53846690
  O  3.04322027  2.22075024 -0.61989539
  C  1.24307720  0.77181639 -0.21642123
  C  2.06599577 -0.34687296  0.23049749
  C  1.69848082 -1.66449142 -0.07007189
  C  2.49714215 -2.72802866  0.29792754
  C  3.68346946 -2.50954451  0.97832707
  C  4.06205842 -1.21159301  1.28179349
  C  3.26448786 -0.14417484  0.92078587
  N -0.11309545  0.55652287 -0.38527180
  C -0.72126183  0.92842011 -1.65493278
  C -0.84492649 -0.08740488  0.50372151
  C -0.31884859 -0.39847280  1.85878266
  C -2.20714405 -0.55802534  0.18857283
  C -2.45452848 -1.92184740  0.05887066
  C -3.73361088 -2.37854071 -0.20305791
  C -4.78212038 -1.48229728 -0.32456437
  C -4.54801631 -0.12485711 -0.18075918
  C -3.26941726  0.33606393  0.07273548
  H  1.44716406  4.12181847 -0.38454861
  H  0.60576684  3.37122624 -1.72707035
  H  0.00399221  3.14098402 -0.07123432
  H  0.78736722 -1.85743085 -0.62224780
  H  2.19793633 -3.73672191  0.04762188
  H  4.30881666 -3.34169005  1.26637495
  H  4.98546429 -1.03057818  1.81252516
  H  3.57188633  0.86048214  1.15945267
  H  0.06577586  1.18612157 -2.35816622
  H -1.28674139  0.08203629 -2.04655698
  H -1.40293298  1.77165638 -1.54842088
  H  0.46065057  0.31115217  2.12925779
  H  0.11325964 -1.40131355  1.89950130
  H -1.13153588 -0.35474518  2.58347949
  H -1.63996677 -2.62475993  0.15420253
  H -3.91294969 -3.43783632 -0.31056255
  H -5.78000525 -1.84150982 -0.52548313
  H -5.36430531  0.57720843 -0.26371014
  H -3.09079560  1.39376656  0.20042203
