34
opt_min/./Reactant_5960_1_opt.xyz
  C  0.54997088  3.72472961  1.89996378
  O  0.74127449  2.68089308  0.96011665
  C -0.25075253  1.77692671  0.88911056
  O -1.27417712  1.87435154  1.54012569
  C  0.02508783  0.68929107 -0.03759210
  C  1.38412260  0.38883556 -0.51630667
  O  1.61430374 -0.17929039 -1.56438425
  O  2.33087195  0.82625879  0.31487875
  C  3.67689238  0.61769541 -0.08342526
  N -0.99768113 -0.03847847 -0.55869165
  C -2.34184222  0.50375491 -0.61912800
  C -0.79674747 -1.30486392 -0.93851405
  C  0.19418936 -2.05645222 -0.28868229
  N  0.86560844 -2.75301513  0.33305370
  C -1.59253326 -2.01502216 -1.93566409
  C -1.92139330 -3.35806063 -1.74563857
  C -2.61503153 -4.05102021 -2.71905999
  C -2.97488991 -3.42560134 -3.90147588
  C -2.62581474 -2.10041091 -4.11159400
  C -1.93912358 -1.39784284 -3.14128478
  H -0.39930757  4.23477598  1.71815894
  H  0.54175001  3.32498685  2.91602021
  H  1.38511184  4.40719979  1.76536764
  H  4.25255842  0.46086867  0.82620601
  H  4.04354481  1.50012999 -0.61223025
  H  3.74419449 -0.25265491 -0.73928673
  H -2.92504404  0.10121284  0.21112425
  H -2.32119726  1.58412193 -0.52262216
  H -2.82194611  0.22378829 -1.55251907
  H -1.64110259 -3.84711707 -0.82446446
  H -2.87178347 -5.08659525 -2.55499949
  H -3.51211139 -3.97038159 -4.66264985
  H -2.87959418 -1.61503006 -5.04227984
  H -1.62954669 -0.38125549 -3.33615720
