16
opt_min/./Reactant_2424_1_opt.xyz
  C  3.81406624  2.38238200  0.20987124
  N  26.36366982 -79.20272506 -15.27505220
  C  38.88827010  4.13496646  81.88002319
  C -63.13135553  20.10873701 -9.22075502
  C -51.75842116  31.92999688  25.19552817
  C -34.70376004  5.46994795 -88.94799683
  C  0.79333231 -44.19673439  54.97898777
  C  55.61690144  2.13476767 -54.54004123
  C  29.48929582  4.12769251  72.95846273
  H -50.46830545  7.30043724 -82.02441836
  H -42.24472393 -27.93550214  39.14834006
  H  59.70798114  33.59289783 -33.57451106
  H  27.46425295 -6.02299260  41.33148360
  H -11.31863170  36.60054803 -83.31199283
  H -53.69527148 -25.02028148  61.03553864
  H -3.12039256  7.09031397 -38.58775843
