27
opt_min/./Reactant_4395_1_opt.xyz
  C  2.80058626 -1.94578100 -1.36704171
  N  1.75930323 -1.51202832 -0.46955345
  C  0.92110279 -0.52070945 -0.81460746
  O  0.99413623  0.08346707 -1.87471184
  C -0.16567314 -0.20802487  0.14902764
  N -0.87421945  0.90834289 -0.00713066
  C -0.65977974  2.03531015 -0.67965969
  C  0.56037309  2.40772512 -1.26349505
  N  1.54382659  2.88600503 -1.61913598
  C -1.79539274  2.97051331 -0.64229774
  C -1.66212130  4.23889430 -1.42431250
  O -2.78884248  2.66052507 -0.00433745
  C -0.63536120 -1.15923862  1.14667708
  O -0.10055923 -2.21584383  1.42084021
  O -1.73945845 -0.72129964  1.78961083
  C -2.28172534 -1.57535377  2.78358791
  H  2.40595863 -2.61171341 -2.14019724
  H  3.22590349 -1.06927112 -1.85738626
  H  3.56873287 -2.46682430 -0.80098068
  H  1.57441449 -2.04623301  0.36879575
  H -1.78721605  0.94041702  0.48354133
  H -1.75995451  4.00488485 -2.48490305
  H -0.68578092  4.68859207 -1.26946517
  H -2.45261641  4.93156584 -1.14412298
  H -2.30787690 -2.60657514  2.42450939
  H -1.66813886 -1.52688029  3.68687730
  H -3.28487915 -1.20959662  2.98612072
