30
opt_min/./Reactant_2439_0_opt.xyz
  C  2.91694271 -2.44058966 -0.36011294
  O  2.25900055 -1.35857673  0.27798553
  C  1.77614479 -0.36144565 -0.53413772
  F  2.83459840  0.21535570 -1.23192330
  C  1.06488635  0.61501563  0.26877610
  C  0.03381581  1.15824174  0.54440970
  C -1.31000489  1.53945501  0.89274220
  C -1.35753758  1.98712797  2.37345730
  F -0.29692354  2.72640466  2.69905367
  F -2.44079226  2.71208514  2.66886006
  F -1.36620871  0.93763985  3.20186543
  C -1.76161218  2.70601123 -0.00677368
  F -3.03355206  3.05512278  0.20954040
  F -1.68036179  2.37923433 -1.30170853
  F -1.01533289  3.79651285  0.16383390
  C -2.12964494  0.25261361  0.63319302
  C -1.90020316 -0.54480562 -0.67535365
  C -0.63115819 -1.33579623 -1.12104197
  C  0.72150351 -0.76507570 -1.59294934
  H  2.21366548 -3.08021194 -0.90100507
  H  3.69325843 -2.08414242 -1.04117922
  H  3.37447577 -3.00903835  0.44573142
  H -3.18985059  0.52751292  0.62788681
  H -1.97084033 -0.41567103  1.48186049
  H -2.28399415  0.02063642 -1.52447735
  H -2.58873176 -1.38446109 -0.51620078
  H -0.44791214 -2.13574508 -0.40207317
  H -1.00217418 -1.80527046 -2.03834336
  H  0.56772516  0.10158006 -2.24103744
  H  1.18811885 -1.53881631 -2.21040287
