17
opt_min/./Reactant_4447_0_opt.xyz
  C  3.93896168  0.13719405  0.39770757
  O  2.52476918  0.02454186  0.29478924
  C  1.99395978 -1.17917649  0.52875786
  O  2.59632264 -2.18008489  0.81824382
  C  0.57027509 -1.13569453  0.38992143
  N -0.58987087 -1.22304897  0.28405018
  N -1.76862116 -1.47943257  0.13093229
  C -2.75705577 -0.54257433 -0.07576473
  O -3.85885419 -0.82993898 -0.44161731
  O -2.31756997  0.70208617  0.20752446
  C -3.24540374  1.76785481  0.06107714
  H  4.39449477 -0.85379151  0.43758924
  H  4.18305348  0.69287660  1.30410297
  H  4.28817544  0.68235211 -0.47772571
  H -4.22980440  1.37288405 -0.19502695
  H -2.89080189  2.43014629 -0.72935437
  H -3.28916863  2.30719633  1.00690267
