33
opt_min/./Reactant_5320_1_opt.xyz
  C -1.33615200 -3.69696500  0.44575300
  O -0.79356052 -2.39879796  0.27977831
  C -1.68429054 -1.41327421  0.07950170
  O -2.88066199 -1.61055667  0.04757664
  C -1.04799602 -0.10608392 -0.08741393
  N  0.27479333  0.03853294 -0.08181956
  N  1.18153295 -0.86379848 -0.01808770
  C  2.48799435 -0.47125107  0.10427335
  C  3.46453933 -1.39670875 -0.28342927
  C  4.80222691 -1.08653132 -0.16891540
  C  5.19796657  0.13947631  0.34537960
  C  4.24173182  1.05354725  0.75679826
  C  2.89782530  0.76012453  0.64151473
  C -1.85279868  1.09675440 -0.28815505
  C -3.09832502  1.23901771  0.32856969
  C -3.83971800  2.39155793  0.15308198
  C -3.36005197  3.42698125 -0.63165470
  C -2.13102772  3.29459143 -1.25632548
  C -1.38580131  2.14308295 -1.09102043
  H -1.74392998 -4.05983339 -0.50105785
  H -2.13767144 -3.68318591  1.18781475
  H -0.51166291 -4.32546648  0.77139374
  H  0.57057611  1.03005035 -0.15178953
  H  3.13798392 -2.34301161 -0.68423748
  H  5.54639236 -1.80478038 -0.48045354
  H  6.24661142  0.37814437  0.44021146
  H  4.54347729  2.00096635  1.18050505
  H  2.16348427  1.46483021  1.01181593
  H -3.47756749  0.43978514  0.94198737
  H -4.80020319  2.48226682  0.63891852
  H -3.94222961  4.32655502 -0.76284953
  H -1.75252601  4.08793957 -1.88429424
  H -0.45071089  2.04776878 -1.62759575
