14
opt_min/./Reactant_391_1_opt.xyz
  N  2.36995800  2.67056700  0.64188400
  C  1.55041748  1.86818973  0.57859022
  C  0.55906544  0.89665702  0.49932657
  C  0.33123991 -0.18932943  1.25876168
 Br  1.26194870 -0.83758747  2.72289053
  C -0.87653677 -0.88851605  0.61390620
  C -0.31779661 -1.45355347 -0.69936335
  C -0.10142419 -0.38751033 -1.45405009
  C -0.53636941  0.80215592 -0.59114890
  O -1.59701504  0.23445835  0.15229427
  H -1.47326443 -1.54092379  1.24471144
  H -0.13477721 -2.48701770 -0.90037235
  H  0.30978124 -0.30615098 -2.43787835
  H -0.82262575  1.72719262 -1.08218648
