22
opt_min/./Reactant_1849_0_opt.xyz
  C  4.27317197 -0.03793641 -1.13336308
  N  3.17726809  0.58321720 -0.43099901
  C  1.95491015 -0.00470682 -0.35605166
  O  1.70300451 -1.09796656 -0.83586331
  C  0.98532042  0.72682816  0.45368564
  O -0.26063204  0.37757281  0.61110917
  C -1.04166448 -0.33109207 -0.16660231
  C -0.73214454 -0.79575761 -1.45436163
  N -0.57632435 -1.09217732 -2.55422755
  C -2.42331490 -0.59152914  0.33788316
  O -3.27381079 -1.13419826 -0.33504769
  N -2.64218278 -0.15878030  1.60408018
  C -3.93033665 -0.34078977  2.23054407
  H  4.41796630  0.41745137 -2.11627691
  H  5.19172273  0.05340758 -0.55499887
  H  4.02181771 -1.08878370 -1.26909170
  H  3.32794718  1.48828534 -0.01866309
  H  1.29983333  1.46912509  1.17447270
  H -1.90397150  0.27961248  2.12757619
  H -4.71287992 -0.08264560  1.51593669
  H -4.07687269 -1.38230161  2.52674044
  H -4.00264208  0.29921789  3.10588809
