21
opt_min/./Reactant_328_1_opt.xyz
  C  3.88441700  0.63384600 -0.26024000
  C  3.74262320 -0.82682875 -0.68039607
  O  4.69029758 -1.56792664 -0.76649791
  N  2.49169004 -1.22009191 -1.07642018
  N  1.41341415 -0.78012516 -0.57804865
  N  0.28218459 -0.96844947 -1.09448952
  C -0.84445068 -0.47972459 -0.48208663
  C -0.86365081  0.64481260  0.35472573
  C -2.05455125  1.07258112  0.90735341
  C -3.23613130  0.40040968  0.64294825
  C -3.22676858 -0.70083133 -0.20174031
  C -2.04739116 -1.13598867 -0.76622037
  H  4.89368666  0.79113925  0.11042567
  H  3.72385006  1.26359549 -1.13469568
  H  3.16578634  0.91396609  0.50836278
  H  1.45900254 -0.28520963  0.35978284
  H  0.03677857  1.21738128  0.53466143
  H -2.06353601  1.94362571  1.54661805
  H -4.16112621  0.74102864  1.08092389
  H -4.14906647 -1.21708693 -0.42199405
  H -2.02070667 -1.99320908 -1.41914622
