16
opt_min/./Reactant_815_0_opt.xyz
  C  3.48252095  0.49093246  2.00183916
  O  2.58809711 -0.36992042  1.30915441
  C  1.76032810  0.19846776  0.43420099
  O  1.64943330  1.37750714  0.22054338
  N  1.09413066 -0.78891886 -0.26363222
  N -0.07830999 -0.78295753 -0.57265866
  C -1.19379751 -0.90817541 -0.90261389
  C -2.54247790 -1.17921913 -1.26215290
  C -3.53624714 -0.28146639 -0.56711611
  O -2.83137940 -2.04117895 -2.05850637
  H  4.45307324  0.48318300  1.50374388
  H  3.58163087  0.10031756  3.01200738
  H  3.08973822  1.50906960  2.01992301
  H -3.54740456 -0.50845617  0.49734700
  H -4.52583904 -0.45081587 -0.98025675
  H -3.25439343  0.76232531 -0.68888223
