22
opt_min/./Reactant_1121_1_opt.xyz
  C  2.90399900  0.25928800  0.16451400
  C  1.99063341 -0.85011355 -0.31024153
  O  2.42227190 -1.83650745 -0.87112985
  C  0.55785913 -0.69062785 -0.04562581
  C -0.41806063 -1.38104428 -0.65918462
  C -1.73172841 -0.83663549 -0.19720621
  C -1.83616755  0.56329612 -0.85755187
  C -0.73612964  1.36460163 -0.13526926
  C -0.13326303  0.32825040  0.83964611
  C -1.38521891 -0.45370108  1.24207469
  H  3.47936388 -0.10681713  1.01260860
  H  2.36993086  1.15700007  0.44860511
  H  3.61009687  0.48692248 -0.63059428
  H -0.27875937 -2.11799511 -1.42813382
  H -2.60256594 -1.47282947 -0.35699354
  H -1.67932362  0.51442585 -1.93162236
  H -2.82230911  0.98731494 -0.67523806
  H -1.15968246  2.19672103  0.42607341
  H  0.00854476  1.76406056 -0.81941941
  H  0.45513428  0.75422272  1.65091594
  H -1.16261260 -1.31671586  1.86633194
  H -2.14536978  0.15932708  1.72227563
