32
opt_min/./Reactant_1962_1_opt.xyz
  C -3.51752700  2.50783900  1.20016300
  N -2.74841059  1.51806067  0.49315924
  C -1.49667922  1.19588158  0.84907829
  O -0.86091861  1.78800212  1.72053162
  C -0.89379589  0.05437678  0.13623348
  O  0.34657095 -0.30494284  0.35394804
  C  1.31762822  0.20761243  1.03726861
  C  1.38207991  1.52838425  1.77911310
  C  1.49272273  2.70879893  0.83546796
  O  1.59415167  1.57499921  2.95919756
  C  2.55981042 -0.58873524  0.99884604
  O  3.62511504 -0.22288171  1.42300747
  O  2.34887751 -1.77891704  0.39085023
  C  3.46476396 -2.65402561  0.28206331
  C -1.66121215 -0.88004114 -0.71016623
  O -2.83551567 -0.68612740 -1.01274941
  N -0.97090426 -1.95690952 -1.13954633
  C -1.57292587 -2.98438412 -1.95054384
  H -4.28359623  2.03458283  1.81872720
  H -2.84141797  3.07239036  1.84063131
  H -3.99838719  3.17811733  0.48766182
  H -3.20081538  0.90612915 -0.18604460
  H  0.99244764  3.56361456  1.28382946
  H  2.55267558  2.93909659  0.73110332
  H  1.06463200  2.50096627 -0.14113376
  H  3.31822086 -3.49869186  0.95702907
  H  4.37940870 -2.12213537  0.54806597
  H  3.51298474 -3.00665118 -0.74785187
  H -0.02373959 -2.09894340 -0.82134941
  H -1.51903176 -3.95171162 -1.44828719
  H -2.61578001 -2.71509545 -2.10807810
  H -1.06683174 -3.05506674 -2.91535586
