27
opt_min/./Reactant_2083_0_opt.xyz
  C  4.89521600  0.61154200  0.68628900
  N  3.52102987  1.02554811  0.54175734
  C  2.50996479  0.13193307  0.46171643
  O  2.66150565 -1.07688054  0.54918730
  C  1.17015502  0.71461908  0.29588292
  N  0.18859245 -0.13794480  0.23181971
  C -1.14107692 -0.00941599  0.08921021
  C -1.82473354 -1.30096326  0.08056839
  O -1.19544539 -2.33745621  0.20050390
  O -3.14643408 -1.24545204 -0.08050008
  C -3.84434348 -2.48247529 -0.09231334
  C -1.74341940  1.30625810 -0.03539900
  O -1.10558926  2.34357460 -0.02584047
  O -3.07728801  1.27731599 -0.17036911
  C -3.71946353  2.53471560 -0.30076079
  H  5.43854994  1.33405606  1.29192492
  H  4.90447339 -0.36287413  1.17301327
  H  5.38363898  0.51610519 -0.28751698
  H  3.32257532  2.00800467  0.44819265
  H  0.97895831  1.77228548  0.22733979
  H  0.48214034 -1.13644414  0.30821666
  H -4.66606793 -2.37722719 -0.79790338
  H -4.23509899 -2.68936830  0.90617553
  H -3.17442735 -3.29027851 -0.39388495
  H -3.62831778  2.89769236 -1.32761589
  H -4.76522031  2.37241644 -0.05203666
  H -3.26818453  3.26542372  0.37391172
