35
opt_min/./Reactant_5240_1_opt.xyz
  C  4.93822500  0.83182600  0.39985200
  N  3.55983098  0.51524177  0.69422459
  C  2.55804431  1.38266305  0.41266160
  O  2.75591525  2.49274916 -0.04904580
  C  1.21800235  0.82545249  0.74412348
  C  1.08874268  0.04142958  2.00734069
  N  0.15498456  1.10979007  0.01397173
  C  0.18867744  2.16604187 -0.98452402
  C -0.89653592  0.21606639  0.01448539
  C -2.26865054  0.65468824 -0.02563753
  O -3.22689763 -0.05507923 -0.34064756
  N -2.47743116  1.95975231  0.36036709
  C -3.81159690  2.48446229  0.52000909
  C -0.49677225 -1.18379622 -0.15592357
  O  0.69541278 -1.50832297 -0.17002203
  N -1.50288321 -2.05866214 -0.33069239
  C -1.27682223 -3.45148205 -0.61365627
  H  5.44620277 -0.03906205 -0.00788519
  H  4.96297524  1.64707037 -0.32346444
  H  5.45688735  1.16067011  1.30415055
  H  3.31638598 -0.44497811  0.87597890
  H  0.05696554  0.09471923  2.35505615
  H  1.76244914  0.44931909  2.75834228
  H  1.31940942 -1.01581053  1.86938063
  H -0.77877467  2.21857972 -1.47706858
  H  0.95473746  1.95210675 -1.72999250
  H  0.43891947  3.11941090 -0.52043584
  H -1.74044782  2.44768249  0.84442600
  H -4.18029368  2.36896204  1.54459761
  H -4.46831782  1.92540631 -0.14451635
  H -3.82534026  3.53992303  0.25101352
  H -2.43474841 -1.65885689 -0.40011152
  H -1.80160959 -3.74695049 -1.52363899
  H -0.20637026 -3.60127535 -0.74572967
  H -1.62783686 -4.07485421  0.21325711
