20
opt_min/./Reactant_597_0_opt.xyz
  C  1.90339180 -1.10964637  2.10931150
  N  0.71100512 -1.05593445  1.29698314
  C -0.26337403 -0.14873690  1.52174356
  O -0.30691294  0.58432552  2.48303098
  C -1.35680509 -0.15946186  0.49302102
  C -2.66796184 -0.36945692  0.91540928
  N -3.75886228 -0.59305568  1.20996554
  N -1.17217192  0.13187547 -0.80373775
  C -0.08594450  0.43074254 -1.51263011
  C -0.25164032  0.70810321 -2.97826377
  C  1.18849178  0.55459400 -0.97154257
  N  2.28074843  0.68664199 -0.62453392
  H  2.74383029 -0.65799932  1.57709254
  H  1.70710800 -0.54433735  3.01791645
  H  2.13880879 -2.14349563  2.35961321
  H  0.70840034 -1.60716079  0.45433102
  H -2.03513562  0.13815483 -1.34866077
  H -0.83624148 -0.07740086 -3.45913416
  H  0.72150183  0.76163629 -3.45825166
  H -0.76130657  1.66047091 -3.14050939
