24
opt_min/./Reactant_5456_1_opt.xyz
  C  4.96510800 -0.62959900 -0.90335400
  O  3.63351162 -0.26154014 -0.54842219
  C  3.47885116  0.90087736  0.10901258
  O  4.36561484  1.63929209  0.45044903
  C  2.06533885  1.09006003  0.43339782
  O  1.58922196  2.11945201  1.11583779
  C  0.19809161  1.96433160  1.23067247
  O -0.50153854  2.75340354  1.80244939
  C -0.05510476  0.72465844  0.53270029
  C -1.29507254  0.03623734  0.30796857
  C -2.48866967  0.57608782  0.80513477
  C -3.67969882 -0.08632931  0.58879981
  C -3.70561267 -1.28005173 -0.11549166
  C -2.52587941 -1.81721677 -0.60904911
  C -1.32598750 -1.16908707 -0.40245400
  O  1.11281319  0.26233457  0.08589208
  H  5.05549882 -0.59547247 -1.98972078
  H  5.13305601 -1.64479983 -0.54509728
  H  5.67214055  0.06529549 -0.44708210
  H -2.45618281  1.50395770  1.35074187
  H -4.59870238  0.33142251  0.97286252
  H -4.64142123 -1.79249969 -0.28075856
  H -2.54457920 -2.74684757 -1.15776497
  H -0.40389120 -1.58130542 -0.78373284
