20
opt_min/./Reactant_2518_0_opt.xyz
  C  2.98287204  0.06937421  0.27249266
  C  2.06176740 -0.98882233 -0.22282540
  C  2.54806961 -2.19309566 -0.72979518
  N  2.98024999 -3.18089861 -1.13626766
  O  0.76821106 -0.82520021 -0.19858000
  N  0.28494979  0.32316498  0.27925834
  C -1.07748079  0.41457262  0.29169465
  C -1.95499549 -0.60493580 -0.11061612
  C -3.31697789 -0.40276155 -0.04941713
  C -3.82869191  0.80299808  0.40707671
  C -2.96707244  1.81230332  0.81114116
  C -1.60271415  1.62762015  0.75699329
  H  4.01105164 -0.27922111  0.28048181
  H  2.89655914  0.95577299 -0.36048546
  H  2.67327641  0.36448270  1.27772141
  H -1.55569818 -1.54512018 -0.46222236
  H -3.98709423 -1.19128342 -0.35974595
  H -4.89686578  0.95722276  0.44967699
  H -3.36653516  2.75003106  1.16890942
  H -0.92028319  2.40138826  1.07099710
