28
opt_min/./Reactant_5646_1_opt.xyz
  O -1.16383400  2.94919000  0.73815100
  C -0.62606256  1.90401502  0.47721956
  O  0.79305995  1.78187292  0.43474267
  C  1.08618339  0.53302109  0.12605052
  C  2.41680377  0.03177253 -0.00856582
  C  3.51007733  0.88590937  0.19113507
  C  4.79241089  0.39681700  0.05992538
  C  5.00779176 -0.93407496 -0.26819380
  C  3.92782998 -1.78351719 -0.46686197
  C  2.63869870 -1.31182909 -0.33985825
  O  0.01096786 -0.19078540 -0.04185926
  C -1.07831889  0.59127954  0.15945497
  C -2.41160603  0.07490069  0.04466768
  C -2.63772108 -1.26658477 -0.28214166
  C -3.92795063 -1.74368827 -0.38768252
  C -5.00805172 -0.90190449 -0.17181163
  C -4.78866488  0.42885354  0.15242760
  C -3.50508205  0.92232283  0.26203845
  H  3.32869355  1.91782131  0.44567065
  H  5.63380297  1.05571523  0.21399636
  H  6.01447081 -1.30960038 -0.36913166
  H  4.09617373 -2.81890497 -0.72213456
  H  1.79411561 -1.96563818 -0.49265373
  H -1.79548783 -1.92113920 -0.45001935
  H -4.09657917 -2.78078330 -0.64039162
  H -6.01456683 -1.28247542 -0.25619834
  H -5.62831299  1.08730926  0.32123866
  H -3.32517336  1.95495483  0.51355372
