26
opt_min/./Reactant_2467_1_opt.xyz
  C  3.89600255 -1.44458172  0.79974092
  O  2.81884929 -1.12036483 -0.06858865
  C  1.58717234 -1.28933278  0.39212677
  O  1.30368969 -1.67591844  1.49265570
  C  0.54912634 -0.87776288 -0.65025007
 Br  1.10065841 -1.61898034 -2.38754450
  C -0.77674710 -1.30209020 -0.29624916
  C -1.91898196 -1.12045217  0.03312057
  C -3.14497728 -0.42923160  0.30160259
 Cl -4.54344890 -1.23012543 -0.50252481
 Cl -3.47109565 -0.34802876  2.05067189
  C -2.94270813  0.96802456 -0.29928628
  C -1.77079661  1.80706915  0.25791040
  C -0.33874854  1.26787663  0.46177057
  C  0.43269563  0.66637253 -0.73675425
  H  4.71915123 -1.77062540  0.16752561
  H  4.18299010 -0.55798021  1.36913839
  H  3.59659729 -2.23589714  1.48994651
  H -2.84659589  0.84544410 -1.38042347
  H -3.84450583  1.55935753 -0.11234416
  H -1.71196198  2.67934878 -0.39858977
  H -2.07566203  2.15535672  1.24810903
  H  0.22711346  2.14325299  0.79451894
  H -0.32636330  0.56398292  1.29323910
  H -0.05319225  0.94526983 -1.67244338
  H  1.44193881  1.08263907 -0.75958757
