21
opt_min/./Reactant_1478_0_opt.xyz
  C  4.62742100 -0.41421800 -0.89604200
  O  3.70977711 -0.05933534  0.13019611
  C  2.48224881  0.29210307 -0.25757115
  O  2.07330429  0.31059887 -1.39142217
  N  1.78744057  0.74814152  0.85191010
  O  0.49958309  0.80376634  0.85021718
  N -0.23039625  0.12397076  0.00636140
  C -1.57909835  0.28306502  0.13119028
  C -2.20669570  1.15972465  1.03318858
  C -3.58134319  1.24252102  1.06162561
  C -4.34991960  0.46677530  0.20278164
  C -3.73647051 -0.39858713 -0.69236856
  C -2.36216262 -0.49466816 -0.73412811
  H  5.11524252 -1.34032172 -0.59398043
  H  5.36799509  0.38058817 -0.99696949
  H  4.09816750 -0.54977156 -1.84158044
  H -1.60454862  1.76505700  1.69410494
  H -4.06250503  1.91684486  1.75440886
  H -5.42671302  0.53984626  0.22935310
  H -4.33726267 -0.99724424 -1.36033510
  H -1.86341182 -1.15854535 -1.42165487
