36
opt_min/./Reactant_2431_0_opt.xyz
  C -2.16181000  4.09643100  1.82803500
  N -1.32730230  2.98013766  1.46478708
  C -1.81778814  1.72477265  1.35448492
  O -2.94790253  1.40469218  1.66919053
  C -0.82927664  0.73852145  0.81737695
  O  0.26739165  1.25126575  0.37310876
  C  1.37959069  0.69208590 -0.09207772
  C  2.35190675  1.69766013 -0.48838788
  C  3.74642462  1.22567770 -0.83868092
  O  2.05066270  2.88093460 -0.51655908
  C  1.69212378 -0.73223323  0.20384440
  O  1.45685476 -1.20509022  1.30082896
  N  2.20544128 -1.45022934 -0.81943964
  C  2.60813549 -2.82680817 -0.66870183
  C -1.22059850 -0.66368618  0.74809759
  C -1.00909866 -1.38242324 -0.43426548
  C -1.41712659 -2.69641202 -0.52960934
  C -2.03258337 -3.31200033  0.54831487
  C -2.25617866 -2.60341565  1.71508021
  C -1.85795465 -1.28302859  1.81908665
  H -1.61829594  4.76372189  2.49523786
  H -3.04198960  3.70183418  2.33490697
  H -2.48599857  4.65484961  0.94508021
  H -0.39706312  3.17016691  1.12208023
  H  4.07206290  0.42394072 -0.18174073
  H  4.42592323  2.07325741 -0.75262917
  H  3.78110196  0.87580708 -1.86989404
  H  2.33937404 -1.01410977 -1.71750549
  H  3.69070982 -2.93482648 -0.76828921
  H  2.30413459 -3.14293378  0.32802952
  H  2.11550048 -3.45010492 -1.41615869
  H -0.55088582 -0.89547614 -1.28201305
  H -1.25375928 -3.24507992 -1.44551726
  H -2.33996800 -4.34515517  0.47318422
  H -2.74042121 -3.08465987  2.55109219
  H -2.01880499 -0.73352866  2.73135582
