28
opt_min/./Reactant_4338_1_opt.xyz
  N  1.94464402 -0.81837958  1.75732416
  C  1.50998868 -0.50261220  0.73662442
  C  1.03274793 -0.17173392 -0.53210790
  O -0.09243715 -0.66673258 -1.03462711
  C -1.05027149 -1.32860247 -0.46195414
  C -1.35539663 -1.54328613  0.92103131
  C -2.07897822 -2.69804820  1.26585988
  C -2.43991670 -2.94385960  2.57117002
  C -2.11467173 -2.03433993  3.56882684
  C -1.44456732 -0.86839436  3.23813222
  C -1.06581969 -0.61957534  1.93452372
  C  1.84044549  0.64465850 -1.41867231
  C  3.09733525  1.10403263 -1.00862114
  C  3.86059000  1.88796849 -1.84894378
  C  3.39270875  2.22960670 -3.10874478
  C  2.14796825  1.78138412 -3.52266835
  C  1.37478778  1.00050292 -2.68901995
  H -1.70410373 -1.78055961 -1.20035945
  H -2.32990617 -3.40639606  0.48951653
  H -2.97888920 -3.84653005  2.81908034
  H -2.39379473 -2.22969731  4.59281204
  H -1.21240457 -0.14223241  4.00255289
  H -0.58573549  0.31794000  1.69856011
  H  3.46471416  0.83572740 -0.02891231
  H  4.82936474  2.23602510 -1.52222219
  H  3.99396048  2.84291978 -3.76301254
  H  1.77734585  2.04697652 -4.50219109
  H  0.40323157  0.65767162 -3.01253227
