25
opt_min/./Reactant_569_1_opt.xyz
  N  0.26341900 -3.27475900 -1.61834400
  N  0.21789011 -2.25637680 -1.12560759
  C  0.14579201 -1.10552138 -0.59103203
  C -1.20654795 -0.52698629 -0.46259263
  C -1.43002209  0.81068484 -0.78366553
  C -2.69943846  1.34211876 -0.67223484
  C -3.76059059  0.55120374 -0.25937498
  C -3.54275632 -0.78374979  0.03330887
  C -2.27534689 -1.32679871 -0.06887347
  C  1.35512596 -0.41798633 -0.15422673
  C  2.61031094 -0.85444922 -0.58435672
  C  3.75900392 -0.21496846 -0.16188848
  C  3.68238085  0.86496850  0.70098582
  C  2.44289677  1.29018281  1.15087612
  C  1.28842061  0.65604729  0.73633887
  H -0.61084302  1.42108581 -1.13251381
  H -2.86683439  2.38098609 -0.91860915
  H -4.75139838  0.96956893 -0.17426278
  H -4.36715656 -1.40799807  0.34695601
  H -2.10826035 -2.36799562  0.16567459
  H  2.67890738 -1.69326409 -1.26323910
  H  4.72269615 -0.55991989 -0.50749916
  H  4.57821423  1.36880779  1.03085928
  H  2.37348576  2.12150254  1.83714964
  H  0.33260117  0.97702607  1.11988745
