28
opt_min/./Reactant_4821_1_opt.xyz
  C -1.37750700  3.05430400 -0.51334900
  O -0.89352606  1.72097298 -0.44840458
  C -1.82415432  0.74380828 -0.68897908
  O -2.97241685  1.01404786 -0.92751083
  C -1.25697315 -0.60338800 -0.63278470
  O  0.00421313 -0.90482893 -0.35651019
  C  1.02063153 -0.18534851 -0.04142690
  C  2.29571138 -0.80418036  0.18184231
  C  3.39021516  0.00608626  0.51928006
  C  4.63138399 -0.55228121  0.74453323
  C  4.80891093 -1.92348488  0.64057892
  C  3.73644748 -2.73671553  0.30287647
  C  2.49212274 -2.18906361  0.07446016
  C -2.11751987 -1.75797781 -0.92553398
  C -1.51545837 -3.12401122 -0.64869109
  O -3.23407732 -1.65223442 -1.38050076
  H -0.50990157  3.69145879 -0.67129452
  H -1.87807382  3.31561633  0.42124801
  H -2.08762891  3.15494075 -1.33592350
  H  0.94742923  0.88912188  0.05421202
  H  3.24937970  1.07330398  0.59980189
  H  5.46590344  0.08263801  1.00221984
  H  5.78022704 -2.35885890  0.82082752
  H  3.87594815 -3.80405657  0.21967575
  H  1.66114431 -2.82119560 -0.19632856
  H -0.74038991 -3.10068060  0.10905324
  H -1.10471480 -3.51274243 -1.57966353
  H -2.31750123 -3.78908764 -0.33763703
