26
opt_min/./Reactant_1757_0_opt.xyz
  C  3.81104553  1.89917376  1.00980862
  O  2.56208835  1.22097504  1.07257221
  C  2.38646157  0.16515496  0.28147321
  O  3.20214847 -0.26898158 -0.48594388
  C  1.00371156 -0.43868933  0.49173758
  C -0.04540240  0.51306107  0.74914567
  C -1.09275289  1.09138176  0.65511534
  C -2.49182991  1.20988952  0.31217344
  F -2.68053052  2.04852210 -0.75137644
  F -3.27551542  1.72164138  1.30293433
  C -2.95960799 -0.21153830 -0.04613328
  C -2.12108887 -0.95373551 -1.10356243
  C -0.89756530 -1.80278335 -0.67515521
  C  0.51610815 -1.20029436 -0.76183979
  H  4.35776039  1.59443562  0.11587341
  H  4.39305314  1.65533371  1.89980996
  H  3.60077215  2.96693745  0.98511935
  H  1.08254248 -1.12099480  1.34791991
  H -2.99730713 -0.78882760  0.87902532
  H -3.97911518 -0.10376204 -0.42479796
  H -1.83698622 -0.26879377 -1.90303288
  H -2.82228826 -1.67330655 -1.53527046
  H -0.88038199 -2.63346732 -1.38573671
  H -1.07264332 -2.23350191  0.31166677
  H  1.23160869 -2.00447205 -0.94251297
  H  0.56422997 -0.52591186 -1.61886035
