20
opt_min/./Reactant_2825_1_opt.xyz
  C -1.55521400 -1.82682400  0.09031700
  O -1.48410779 -0.43180910  0.40330939
  C -0.44494708  0.28589239 -0.04796122
  O -0.73936135  1.29024344 -0.85696066
  C -2.09305830  1.50052165 -1.24631329
  C  0.85002760  0.09435941  0.32356539
  C  1.26615664 -0.87788680  1.38184387
  F  2.32657841 -0.45008938  2.06795862
  F  1.61059329 -2.09103899  0.88672125
  F  0.30354680 -1.11994709  2.28134698
  C  1.99741900  0.83808465 -0.29392479
  F  1.67040146  1.51783889 -1.39453801
  F  2.97735899 -0.00836566 -0.65897688
  F  2.56363787  1.72455669  0.54011506
  H -2.47906813 -2.16435611  0.55202064
  H -1.60129415 -1.96305127 -0.99203431
  H -0.72049631 -2.39066167  0.49965698
  H -2.12389647  2.51791941 -1.62637159
  H -2.36914200  0.79959675 -2.03717351
  H -2.77107565  1.39100750 -0.40073060
