44
opt_min/./Reactant_2735_0_opt.xyz
  C  2.32728000  0.31336100  2.69944800
  C  1.48449491  0.35717556  1.46237581
  C  2.06733348 -0.01092219  0.18778199
  C  2.97119353 -1.07296684  0.07931796
  C  3.54511088 -1.40006554 -1.13318952
  C  3.24692711 -0.67080232 -2.27034427
  C  2.36378728  0.39594510 -2.17947023
  C  1.77559133  0.71501656 -0.97724159
  N  0.20772769  0.75865655  1.55003350
  C -0.22426204  1.42620051  2.76675988
  C -0.73696708  0.45019361  0.61224474
  C -0.58901872 -0.75047502 -0.19576445
  C -0.12511262 -1.94989917  0.35859927
  C -0.02928463 -3.09386566 -0.40186913
  C -0.37979879 -3.07617739 -1.74379674
  C -0.84281696 -1.90024654 -2.30826106
  C -0.94911047 -0.75348077 -1.54694212
  C -1.82432617  1.36271170  0.34934686
  C -1.66321647  2.75374721  0.46126407
  C -2.70804492  3.61402432  0.19586646
  C -3.94245106  3.12121452 -0.19604167
  C -4.11693896  1.75107540 -0.32568238
  C -3.08001356  0.88407601 -0.05666816
  H  2.50202501  1.31697126  3.09455460
  H  1.86067459 -0.27521387  3.49064995
  H  3.29757441 -0.11774986  2.47585922
  H  3.20064691 -1.67390438  0.94706485
  H  4.22622194 -2.23694471 -1.19169988
  H  3.69399040 -0.92953354 -3.21821452
  H  2.13094871  0.97900187 -3.05865263
  H  1.09214549  1.55015321 -0.92515740
  H -1.26322790  1.72637480  2.66653113
  H -0.14667530  0.74065043  3.61298569
  H  0.39149387  2.30185463  2.97220991
  H  0.14651634 -1.98153433  1.40522794
  H  0.31990234 -4.01037803  0.05217058
  H -0.29311810 -3.97190952 -2.34061459
  H -1.11448416 -1.87395756 -3.35386842
  H -1.30230926  0.16146826 -1.99970617
  H -0.69675912  3.15832019  0.72919893
  H -2.55719125  4.68085569  0.28474309
  H -4.75769593  3.79773157 -0.40511050
  H -5.07566419  1.35824464 -0.63331907
  H -3.22798799 -0.18197580 -0.14577445
