31
opt_min/./Reactant_4951_0_opt.xyz
  C  4.60973300  1.66072300 -0.76099600
  N  3.79723759  0.50110817 -0.49812595
  C  2.45035897  0.62996961 -0.24966461
  O  1.95619604  1.75963902 -0.19328756
  C  1.73254709 -0.60945298 -0.07328481
  C  2.50282321 -1.89390177  0.08389462
  N  0.37013677 -0.65652778 -0.05380140
  C -0.24423228 -1.95924218 -0.26665662
  C -0.41608643  0.40655675  0.03451882
  C -1.84982662  0.46797810  0.06182032
  C -2.44792512  1.61789751 -0.48568295
  C -3.81474495  1.78698954 -0.48088538
  C -4.63704339  0.82621424  0.09082536
  C -4.06671414 -0.29039697  0.67797093
  C -2.69740222 -0.47170358  0.66887266
  H  4.07661735  2.52657300 -0.37225705
  H  5.57333531  1.56175557 -0.25913796
  H  4.77774376  1.80796217 -1.83335738
  H  4.17256143 -0.38201894 -0.79128248
  H  3.42857023 -1.69824796  0.62137779
  H  1.94992267 -2.61733760  0.67874002
  H  2.75680682 -2.36490437 -0.87185709
  H -1.23844756 -1.81764605 -0.68642047
  H  0.34750006 -2.53746326 -0.97193221
  H -0.33112131 -2.51657261  0.66690601
  H  0.10236611  1.35468911  0.01764733
  H -1.81156771  2.37054905 -0.92696732
  H -4.24771285  2.67340890 -0.92138273
  H -5.70883566  0.95684341  0.09406414
  H -4.69575208 -1.02691980  1.15771105
  H -2.28606776 -1.32199741  1.19062721
