30
opt_min/./Reactant_2087_0_opt.xyz
  C  4.65908800  1.35087500  0.27653500
  O  3.46868660  0.59290385  0.18562495
  C  3.64715746 -0.75122999 -0.10432092
  O  4.75629095 -1.22745013 -0.24277046
  C  2.41086413 -1.46907619 -0.19024129
  C  2.52305847 -2.92726160 -0.51603202
  N  1.28864554 -0.74599092 -0.02690822
  C -0.01929887 -0.95031244  0.00307011
  C -0.62638204 -2.31071573 -0.14409008
  C -0.87095839  0.20910957  0.19646451
  C -2.17383428  0.24253429 -0.31805513
  C -2.98299759  1.34624917 -0.14143334
  C -2.52130345  2.45066885  0.55668081
  C -1.23658781  2.43750693  1.07492366
  C -0.42148465  1.33795952  0.89990377
  H  5.39366144  0.83112266  0.89447543
  H  5.08588839  1.50874292 -0.71696163
  H  4.38468508  2.30269495  0.72561984
  H  3.06950239 -3.04503098 -1.45198142
  H  3.10712681 -3.43276308  0.25252019
  H  1.56299409 -3.41434414 -0.60704169
  H  1.53995897  0.23466896  0.10981321
  H -0.15265885 -3.00774884  0.54523756
  H -1.68400430 -2.27554088  0.09737535
  H -0.51981812 -2.69547966 -1.15986613
  H -2.54375688 -0.59391409 -0.89126997
  H -3.98033508  1.34901187 -0.55601512
  H -3.15658511  3.31198841  0.69732018
  H -0.86963690  3.28970334  1.62817830
  H  0.56189992  1.34610129  1.34994607
