21
opt_min/./Reactant_1460_0_opt.xyz
  C -1.20364976 -2.83567099 -1.57426612
  N -0.53888542 -1.73564587 -0.91833827
  C -1.23511048 -0.64707944 -0.53628431
  O -2.42766887 -0.51971820 -0.72857626
  C -0.42888307  0.41198664  0.15057532
  N -1.02035798  1.53563459  0.54526516
  N -2.24858625  1.84081070  0.40406883
  C -2.76259407  2.95630811  0.80858795
  N -3.34355908  3.91244930  1.09340498
  C  0.99624969  0.29662496  0.43959345
  O  1.70538504 -0.64422665  0.15185719
  O  1.47343749  1.38749728  1.08348083
  C  2.85435072  1.38651979  1.42451701
  H -1.93056794 -2.44044985 -2.28497387
  H -1.74000429 -3.45194701 -0.84808963
  H -0.46954996 -3.44408700 -2.09421851
  H  0.45034152 -1.79715028 -0.72159183
  H -0.37004848  2.20161867  0.99956249
  H  3.41871456  0.79877868  0.69899519
  H  3.17861000  2.42438995  1.41864137
  H  2.98383769  0.95554183  2.41882018
