24
opt_min/./Reactant_1393_1_opt.xyz
  C  3.84460900 -0.44889000  0.23860300
  N  2.41109720 -0.32777451  0.34035200
  C  1.73930538  0.74421546 -0.15513358
  O  2.29627134  1.65263585 -0.74375684
  C  0.27606303  0.69965203  0.03833219
  C -0.60648038  1.46563792 -0.61333258
  C -1.98395968  1.01867871 -0.21751964
  C -2.17433875 -0.36593818 -0.88186183
  C -1.15739018 -1.25237168 -0.14234571
  C -0.52719913 -0.27108061  0.87742741
  C -1.73328665  0.60136276  1.23255897
  H  4.33480690 -0.15384153  1.17103152
  H  4.11738028 -1.47684998  0.00066033
  H  4.17970929  0.21775818 -0.55501961
  H  1.90781358 -1.06411221  0.80740672
  H -0.38590498  2.21492630 -1.34961650
  H -2.78841735  1.72375154 -0.41555046
  H -1.99701259 -0.33218774 -1.95549868
  H -3.19709621 -0.70827921 -0.71892365
  H -1.64651154 -2.08364211  0.36454793
  H -0.39990812 -1.65994960 -0.81137473
  H -0.02102495 -0.74935756  1.71466485
  H -1.47037292  1.43952412  1.87672370
  H -2.55523039  0.04335361  1.67881633
