21
opt_min/./Reactant_4788_1_opt.xyz
  C  0.24851552  2.86639381 -1.13545646
  C -0.94680495  1.94908021 -0.99144879
  O -2.09116936  2.33142817 -1.10056564
  C -0.61607423  0.55445008 -0.68912513
  O  0.64077281  0.29215776 -0.43286248
  C  1.21933342 -0.86512156 -0.26030185
  C  2.69704086 -0.82079568 -0.00836651
  C  0.57913633 -2.09992137 -0.33712393
  N  0.09818944 -3.14659832 -0.38004261
  C -1.71673945 -0.46226896 -0.62377076
  C -1.95004901 -0.99389640  0.77548651
  O -2.39599003 -0.74895033 -1.57115019
  H  0.88625233  2.52625193 -1.94815296
  H  0.83394868  2.86542093 -0.21862939
  H -0.10167157  3.87223991 -1.34443389
  H  2.93887704 -0.01695294  0.68413438
  H  3.03736941 -1.76795796  0.40110149
  H  3.23881088 -0.63743208 -0.93822883
  H -2.08040154 -2.07436483  0.74099048
  H -1.15172578 -0.73780652  1.46667699
  H -2.88326042 -0.55528748  1.12667159
