21
opt_min/./Reactant_4884_0_opt.xyz
  C  2.65636154  0.20370729 -1.98649684
  N  1.86928341  0.39118425 -0.78701704
  C  1.20150276 -0.63790825 -0.23975908
  O  1.31390150 -1.79802911 -0.55674982
  C  0.30346993 -0.25520420  0.92602798
  C  0.82888993 -0.50093685  2.19117457
  N  1.30668991 -0.70016310  3.21970758
  N -0.95993340  0.10742426  0.75575309
  C -1.79628267  0.25632050  1.93633290
  C -1.55165786  0.30919119 -0.44053632
  C -0.89953344  0.18641562 -1.67344115
  N -0.46342982  0.17053683 -2.73772213
  C -2.89986668  0.67885369 -0.52266665
  N -4.00483988  0.98114564 -0.62251287
  H  3.37171941  1.01572971 -2.07881001
  H  2.00735734  0.17583528 -2.86536829
  H  3.17584502 -0.74967797 -1.90463512
  H  1.67751747  1.33793459 -0.49974960
  H -2.27809911 -0.69541540  2.16791548
  H -1.18990961  0.55394046  2.78985648
  H -2.56780414  1.00341274  1.75338683
