33
opt_min/./Reactant_1808_0_opt.xyz
  C -2.58038100  2.31129800  0.17040500
  N -1.77953563  1.11205664  0.19259492
  C -1.79007492  0.21927918 -0.83803840
  O -2.43013849  0.42986367 -1.85397389
  C -0.98675719 -0.99735689 -0.56585146
  C -1.44877726 -2.29036492 -1.02534439
  C -2.82894604 -2.34090655 -1.63066989
  O -0.76040879 -3.30626472 -0.96834744
  N  0.19624790 -0.85203691  0.10319590
  C  0.59715981 -1.93509796  0.98142502
  C  0.99643783  0.19593851 -0.08050606
  C  0.88477758  1.00890641 -1.33504983
  C  1.88780654  0.67009521  0.99360066
  O  1.74737353  0.34737969  2.16850380
  N  2.83713024  1.57026200  0.63002272
  C  3.72632281  2.16504717  1.59623002
  H -3.38745911  2.26190168  0.90505167
  H -1.96199747  3.18624962  0.38057754
  H -3.00930436  2.39778208 -0.82667617
  H -1.34039686  0.86480805  1.06486441
  H -2.87556851 -1.71793357 -2.51971820
  H -3.56598750 -1.96412973 -0.92478553
  H -3.05622602 -3.37175049 -1.88968122
  H  1.52846380 -1.70340172  1.48388276
  H  0.70120841 -2.83779536  0.37518591
  H -0.18191641 -2.11493734  1.72141731
  H  0.49567626  2.01085778 -1.15505963
  H  0.23361798  0.52073204 -2.05471960
  H  1.86999148  1.09619051 -1.79802395
  H  2.95888931  1.83291438 -0.33218020
  H  4.76608982  1.99331482  1.31363365
  H  3.52834875  1.69903857  2.55988521
  H  3.54983973  3.24042536  1.67583476
