40
opt_min/./Reactant_2763_0_opt.xyz
  C -3.53618150  2.06262358  0.29702372
  C -2.43377512  1.09692706 -0.03283749
  O -1.71657243  1.23341519 -0.98956393
  C -2.26800143 -0.09206729  0.93957839
  C -3.58183374 -0.88616681  0.90712187
  C -3.75882933 -1.72308424 -0.32774490
  O -4.38933834 -0.83748425  1.79771501
  C -1.15380385 -0.91901254  0.43839195
  C -0.03084068 -1.26093182  0.11371058
  C  1.40070633 -1.15652983  0.42438683
 Cl  1.90091799 -2.75853563  1.09564217
  C  2.23551496 -0.81191401 -0.78024868
  C  1.65191273 -0.14193114 -1.84904113
  C  2.41850865  0.22565146 -2.94094281
  C  3.77041036 -0.06816000 -2.97673957
  C  4.35727969 -0.72662920 -1.90935486
  C  3.59599734 -1.09320359 -0.81479927
  C  1.65996494 -0.03380087  1.58797172
  C  0.24837622  0.36593878  1.97425105
  C -0.72367303  1.18347737  2.81644487
  C -2.06000523  0.46442053  2.41950498
  H -3.13123717  2.85810190  0.92204715
  H -4.35623420  1.58633649  0.82627459
  H -3.89324564  2.51914589 -0.62373344
  H -3.52919622 -2.75909279 -0.07784534
  H -4.79851333 -1.69070764 -0.64838672
  H -3.10067588 -1.40415405 -1.13146277
  H  0.59854215  0.09640160 -1.82445600
  H  1.95334124  0.74347449 -3.76666779
  H  4.36541513  0.21583908 -3.83230785
  H  5.41259639 -0.95642414 -1.92729620
  H  4.05849355 -1.60646027  0.01466182
  H  2.22404463 -0.51065421  2.38578266
  H  2.24842868  0.76777464  1.14478063
  H -0.12811051 -0.62796443  2.22460402
  H -0.09068140  0.71401057  1.00149847
  H -0.73123874  2.23851796  2.54120375
  H -0.59372788  1.10092150  3.89545413
  H -2.16183742 -0.40713707  3.06939938
  H -2.91305592  1.10929447  2.62909569
