29
opt_min/./Reactant_588_1_opt.xyz
  C  0.68912858 -0.93228450 -2.25958256
  O  1.24753275 -1.48952516 -1.09686904
  C  0.77048209 -0.99170702  0.13736554
  O  1.09679838 -1.91835349  1.12662553
  C  0.46660776 -3.17604520  0.98036661
  C -0.65156663 -0.62489628  0.12663935
  C -1.55483568  0.14595198  0.30497729
  C -2.25220343  1.40087991  0.51302692
  C -3.28681115  1.58735702 -0.47902547
  N -4.07665659  1.72691558 -1.29307248
  C -1.13507290  2.45930838  0.33329878
  C  0.01480785  2.40028890  1.35635828
  C  0.78935114  1.10570596  1.68158144
  C  1.47529851  0.34523763  0.53188375
  H  1.17813409 -1.43685153 -3.09056647
  H -0.39223701 -1.10476065 -2.30805099
  H  0.87631467  0.14464864 -2.33112468
  H -0.62461245 -3.06396782  0.98236840
  H  0.77768497 -3.66678388  0.05483986
  H  0.77862758 -3.76892160  1.83690430
  H -2.69524276  1.44761587  1.51446787
  H -0.73892627  2.36601335 -0.68013931
  H -1.58269212  3.45356471  0.42352207
  H -0.38096405  2.74890105  2.31534636
  H  0.74239737  3.14456171  1.02173960
  H  1.57209633  1.41926762  2.37709323
  H  0.15223393  0.41334295  2.23039447
  H  2.48019838  0.05702088  0.84046137
  H  1.55823947  0.96956785 -0.35651497
