32
opt_min/./Reactant_5335_1_opt.xyz
  C -1.87092433 -3.08979142  2.91681538
  N -1.31375165 -2.04711268  2.09426170
  C -1.84709554 -0.80234413  2.03764321
  O -2.85160442 -0.49444959  2.67511205
  C -1.16880749  0.12330783  1.13209376
  O -0.03971137 -0.32289508  0.59075672
  C  0.64092792  0.18831720 -0.40286583
  C  0.16629796  1.18496310 -1.28015695
  N -0.16005219  1.83818751 -2.17102335
  C  1.93106405 -0.41848781 -0.67902683
  C  2.47857074 -1.35322448  0.20901906
  C  3.70015669 -1.93628204 -0.05576233
  C  4.40406975 -1.59565491 -1.20100081
  C  3.87770046 -0.66065305 -2.07997989
  C  2.65449726 -0.07390334 -1.82777762
  C -1.50339021  1.55442965  1.02320174
  O -0.68739510  2.33440592  0.53596527
  N -2.69376407  1.92049924  1.52359444
  C -3.08709360  3.30283251  1.60901812
  H -2.75389847 -2.68139611  3.40495260
  H -2.15656270 -3.94950283  2.30825378
  H -1.15434731 -3.40983432  3.67595257
  H -0.49565165 -2.26180269  1.54794429
  H  1.94834640 -1.60606416  1.11576433
  H  4.11030724 -2.65586137  0.63730453
  H  5.36097966 -2.05209229 -1.40287202
  H  4.42660134 -0.38748683 -2.96827437
  H  2.24590781  0.65033554 -2.51508190
  H -3.20613059  1.21711287  2.05007196
  H -3.08068017  3.64959959  2.64447266
  H -2.37761020  3.88998784  1.02744124
  H -4.08917636  3.42706978  1.19781734
