17
opt_min/./Reactant_814_1_opt.xyz
  C  3.13374929  1.59715681 -1.65705351
  N -19.19364341  10.06631779 -4.60262430
  C -9.74875388  14.26358283 -15.75600121
  O -3.36878401  16.66131542  9.70713566
  C -14.22222756  8.48300324 -10.52346871
  C  4.83350471 -3.29572098 -8.65322068
  C  14.20034938  3.74371812  15.19010347
  O -4.45595201 -2.18556657 -1.52406468
  O -32.29415309 -4.75320816  6.33408600
  C -2.30918968  5.07690546  1.84771082
  H  13.24648408  12.25740038 -7.52586810
  H  31.61868959 -15.44924009  10.01520495
  H  10.18894346  15.38399790 -9.53812803
  H -40.72988779  13.36516984 -7.89252635
  H  13.18872140 -7.76644963 -24.43232978
  H -8.21043606 -1.57611718 -0.61814908
  H -9.21847777 -3.47213624 -3.66150723
