43
opt_min/./Reactant_2952_0_opt.xyz
  C  1.57952900  1.31872100  2.83133700
  C  2.04254869  0.13172621  1.98898199
  O  3.11834839 -0.40186445  2.23157168
  C  1.17477534 -0.31430626  0.93217154
  N  0.00757634  0.33644433  0.72143520
  C -1.06271981  0.04301977 -0.01841184
  C -2.07619152  1.05679307 -0.20407096
  C -3.39631683  0.69192519 -0.50860243
  C -4.37691668  1.64673661 -0.67196930
  C -4.07728405  2.99429259 -0.53372044
  C -2.77832536  3.37428307 -0.23548308
  C -1.78998457  2.42420472 -0.07567884
  C -1.24228877 -1.29258842 -0.59514579
  C -1.55237847 -1.43622659 -1.94828666
  C -1.69759455 -2.69227212 -2.50398573
  C -1.54578739 -3.82241859 -1.71748291
  C -1.26211477 -3.68915772 -0.36820913
  C -1.10925586 -2.43644159  0.19159255
  C  1.58900958 -1.43343695  0.08203693
  C  1.50951396 -1.32997263 -1.30830508
  C  1.89303023 -2.38278575 -2.11306170
  C  2.37285590 -3.55313778 -1.54793638
  C  2.48546491 -3.65422615 -0.17196491
  C  2.09866461 -2.60424906  0.63934920
  H  0.66311882  1.08144612  3.37024017
  H  1.42661392  2.21104846  2.22507020
  H  2.35894980  1.53261134  3.55794475
  H -0.06455639  1.22262712  1.21640018
  H -3.64423476 -0.35465627 -0.59792884
  H -5.38664581  1.34077489 -0.90359797
  H -4.84613731  3.74038472 -0.66123175
  H -2.53202531  4.42149389 -0.13677118
  H -0.77886161  2.75921508  0.11354927
  H -1.65418752 -0.55380279 -2.56349619
  H -1.92211721 -2.79158794 -3.55567231
  H -1.65167913 -4.80433331 -2.15343077
  H -1.15506477 -4.56756926  0.25010219
  H -0.90038492 -2.33822411  1.24650045
  H  1.15707233 -0.41254985 -1.75884967
  H  1.82162078 -2.29026821 -3.18716932
  H  2.66650859 -4.37839343 -2.17984269
  H  2.87124578 -4.55955966  0.27337568
  H  2.18333487 -2.68677105  1.71125227
