44
opt_min/./Reactant_3195_0_opt.xyz
  C -4.24338464  2.85043458 -1.40299762
  N -3.31007868  2.05177988 -0.64099244
  C -2.81812249  0.90236285 -1.13567627
  O -3.04134540  0.49885083 -2.25149922
  C -1.83987222  0.18079432 -0.16847952
  C -2.36240748  0.23066115  1.26840190
  O -3.46791484 -0.16879768  1.56682974
  N -1.49177488  0.75071971  2.15856904
  C -1.79088415  0.86679140  3.56514118
  C -0.52875646  0.75636332 -0.36463121
  C  0.64352094  0.66893745 -0.61642145
  C  1.92749313  0.30000892 -1.15939634
  C  2.97043788  0.08025262 -0.03833217
  O  3.76478613  0.93474126  0.27715122
  N  2.89447764 -1.12291777  0.55709741
  C  3.77858510 -1.48553102  1.63998141
  C  2.45678701  1.43000182 -2.06178754
  F  3.66037508  1.14264477 -2.57301806
  F  2.54900677  2.59989635 -1.43123769
  F  1.64948473  1.64750405 -3.11643117
  C  1.61259290 -0.94190907 -2.03933060
  C  0.68832030 -2.08235896 -1.50889234
  C -0.32436916 -1.96569759 -0.34062952
  C -1.68390503 -1.30027622 -0.62355663
  H -5.24654742  2.41735477 -1.37763723
  H -3.91070633  2.87754937 -2.44010731
  H -4.27243174  3.85879611 -0.99856047
  H -3.18290341  2.27743204  0.33197464
  H -0.59113204  1.07035186  1.83184507
  H -1.62759903  1.88914089  3.90701523
  H -2.83590711  0.59352639  3.70393209
  H -1.16670478  0.19059127  4.15331056
  H  2.23434307 -1.80897115  0.23569018
  H  3.28536372 -1.35860013  2.60659386
  H  4.09573649 -2.52081261  1.52966060
  H  4.64703332 -0.82895997  1.60378662
  H  2.56162388 -1.38947541 -2.34462146
  H  1.14240902 -0.55528529 -2.94577013
  H  1.33292277 -2.92934011 -1.25154225
  H  0.09478670 -2.40034963 -2.36802882
  H -0.55078429 -3.00471709 -0.08295632
  H  0.12605660 -1.52066250  0.54950469
  H -2.46335813 -1.86006951 -0.09896851
  H -1.91635643 -1.33389664 -1.68976856
