36
opt_min/./Reactant_2769_0_opt.xyz
  C  2.21040100 -2.68255000  0.87097900
  C  0.77224593 -2.34278710  1.17135706
  O  0.09852655 -3.07574229  1.87244609
  C  0.24572266 -1.11832423  0.54365242
  C  1.16713005 -0.25387373 -0.21678648
  C  0.92769563 -0.02868661 -1.57178586
  C  1.78411037  0.76461977 -2.31061157
  C  2.87877961  1.35917795 -1.70534701
  C  3.11751624  1.14922915 -0.35811306
  C  2.27249759  0.34514636  0.38482743
  N -1.05329249 -0.84636786  0.51399580
  C -2.04169575 -1.77685114  1.01899706
  C -1.49154363  0.42638233  0.20838803
  C -2.61082730  0.62822502 -0.67876199
  C -2.95347839 -0.52220096 -1.61985587
  O -3.22533781  1.67705598 -0.78580301
  C -0.80940060  1.50292560  0.91271658
  C -1.28817166  2.90575902  0.67875136
  O  0.10293754  1.26092142  1.69118012
  H  2.86417953 -2.07283637  1.49174948
  H  2.38189817 -3.72649495  1.12329052
  H  2.45789224 -2.49910297 -0.17083756
  H  0.07798113 -0.49202867 -2.05141714
  H  1.59327601  0.92148386 -3.36221423
  H  3.54038671  1.98853656 -2.28205505
  H  3.96428872  1.61754736  0.12105841
  H  2.43684402  0.21733112  1.44092112
  H -1.97452996 -2.73999994  0.51314698
  H -3.03134408 -1.34770245  0.89736646
  H -1.86009933 -1.95362469  2.08031839
  H -3.18409012 -0.09192631 -2.59200462
  H -3.85322048 -1.02724633 -1.27336935
  H -2.15007755 -1.24576943 -1.72332253
  H -1.21216970  3.14715670 -0.37893040
  H -0.67463695  3.58536197  1.26443996
  H -2.33328359  3.00436403  0.95898301
