7
opt_min/./Reactant_586_0_opt.xyz
  C -0.82802714 -0.02300928 -0.07566070
  N  1.48850363 -4.28245987 -5.17265855
  N  6.13401221  1.52938233 -4.51553580
  N -8.92098287 -3.62970673  10.53014394
  H -2.20233622 -0.22844931  14.21921094
  H -0.04615530  2.60440109 -0.04152052
  H  6.12838015  4.32392132  5.57104862
