34
opt_min/./Reactant_4920_1_opt.xyz
  C  4.27450200 -2.17410200 -0.58103300
  N  3.18389507 -1.23445591 -0.62856971
  C  1.92059930 -1.64590997 -0.80408646
  O  1.63278704 -2.81971086 -1.00226474
  C  0.88693099 -0.56707061 -0.69913978
  C  1.28756281  0.86420700 -0.66049665
  O  2.40943291  1.28332191 -0.48165957
  O  0.27147175  1.65654270 -1.02663323
  C  0.50945136  3.05803011 -1.01699870
  N -0.41007756 -0.86170573 -0.62673782
  C -0.92823334 -2.12447834 -1.10488797
  C -1.24602226 -0.10301049  0.16312808
  C -2.62131850  0.15968289 -0.18508111
  C -2.92311658  0.16075178 -1.67667880
  O -3.48244729  0.47708108  0.61773670
  C -0.63054809  0.35321087  1.38782117
  C -1.53631204  0.65928728  2.54288133
  O  0.59376780  0.41501686  1.49579845
  H  4.48458386 -2.47725153  0.44780280
  H  5.16442718 -1.71642752 -1.00748879
  H  3.99814803 -3.06009610 -1.15196413
  H  3.36563962 -0.25170629 -0.45377935
  H  0.80207578  3.38578304 -2.01592507
  H -0.42593097  3.53223511 -0.72542103
  H  1.30248281  3.29886170 -0.30840635
  H -0.73148046 -2.22993768 -2.17087461
  H -0.41925962 -2.94988469 -0.60275459
  H -1.99386407 -2.17305354 -0.90207410
  H -3.46595931 -0.74058934 -1.95352915
  H -2.02303815  0.24617014 -2.27611900
  H -3.57925492  1.00412736 -1.87970775
  H -2.16778481 -0.19496108  2.77179940
  H -0.93233855  0.92518889  3.40602144
  H -2.19830978  1.47909984  2.27323699
