22
opt_min/./Reactant_1623_0_opt.xyz
  C  3.52375813  1.15006758 -2.22542735
  N  2.43257009  0.38986660 -1.66910280
  C  2.26868414 -0.93922447 -1.95602645
  O  2.97735163 -1.54185905 -2.72719592
  N  1.21302316 -1.56318693 -1.32515820
  N  0.40603219 -1.02544712 -0.57669181
  C -0.44653658 -0.69111163  0.15223695
  C -1.52419581 -0.37387817  0.98238961
  C -1.61654240  0.88829103  1.58301629
  C -2.69137508  1.18867323  2.39473118
  C -3.68373121  0.24673942  2.62128499
  C -3.59417194 -1.00570066  2.03259026
  C -2.52740898 -1.32355770  1.21748983
  H  3.86040658  0.63245956 -3.12275131
  H  4.36319368  1.21746311 -1.52630644
  H  3.18515080  2.15359574 -2.48136238
  H  1.85289615  0.83393205 -0.97452684
  H -0.84213413  1.61980297  1.40556315
  H -2.75804363  2.16364187  2.85406037
  H -4.52241600  0.48903151  3.25607931
  H -4.36616984 -1.73984153  2.21022990
  H -2.45294385 -2.29709499  0.75720954
