22
opt_min/./Reactant_733_0_opt.xyz
  C  3.68380936  1.28208978  0.57906963
  N  2.27720609  0.94227192  0.59638179
  C  1.63827120  0.53589039 -0.53269626
  O  2.14607366  0.52606011 -1.62617524
  C  0.19449339  0.17638296 -0.28824527
  N -0.55946192  1.12843474  0.20923203
  N -1.83991391  1.08581273  0.46411261
  C -2.45673011  2.12092368  0.95642427
  N -3.11461582  2.95561824  1.40251807
  C -0.27187930 -1.17598574 -0.72669528
  O  0.52152734 -2.02755956 -1.07308408
  N -1.60857917 -1.34807344 -0.69112692
  C -2.22850042 -2.56618819 -1.14480375
  H  4.03308901  1.18247678 -0.44729413
  H  3.82892168  2.31104611  0.91299377
  H  4.25351653  0.61157516  1.22232710
  H  1.86889634  0.77207250  1.50240255
  H -0.06920138  2.02038295  0.38444141
  H -2.18816358 -0.60333085 -0.32379925
  H -1.43648135 -3.27306712 -1.38764282
  H -2.86514917 -2.98101798 -0.36220532
  H -2.83285877 -2.38272036 -2.03546209
