31
opt_min/./Reactant_1902_0_opt.xyz
  C  3.84617500  2.07383300  0.12174300
  N  3.12920765  0.87825454 -0.23646070
  C  1.77767882  0.75347718 -0.00643602
  O  1.10317282  1.71852760  0.35726269
  C  1.26525622 -0.55940151 -0.24858997
  N -0.05062168 -0.86543173 -0.13996341
  C -0.37237946 -2.17713864  0.39773056
  C -1.02666653 -0.07065051 -0.57694801
  C -0.70901368  0.99056932 -1.56807923
  C -2.37064976 -0.15912137 -0.03248428
  C -3.51371756 -0.02756223 -0.83091314
  C -4.78003335 -0.08845172 -0.28755388
  C -4.95536543 -0.27346384  1.07707826
  C -3.83796162 -0.38952197  1.88563113
  C -2.56845963 -0.33730820  1.34228574
  H  4.57561580  2.32319398 -0.64974429
  H  3.11377310  2.87372115  0.20619929
  H  4.36374657  1.97096760  1.08192966
  H  3.66810379  0.06125351 -0.45729851
  H  1.95433011 -1.38934722 -0.28848466
  H  0.28521960 -2.91397123 -0.06281387
  H -1.40617972 -2.43575725  0.17900021
  H -0.21114585 -2.20570723  1.47476740
  H -0.48209234  1.93490769 -1.06896283
  H  0.17949884  0.69963628 -2.13223494
  H -1.53759331  1.14614594 -2.25210508
  H -3.41598985  0.09106651 -1.90088377
  H -5.63974125  0.00760224 -0.93461816
  H -5.94558147 -0.31969528  1.50174324
  H -3.95269502 -0.51419825  2.95326352
  H -1.72005958 -0.37952511  2.00951757
