40
opt_min/./Reactant_2764_0_opt.xyz
  C -3.53618150  2.06262358  0.29702372
  C -2.43377515  1.09692703 -0.03283750
  O -1.71657252  1.23341511 -0.98956399
  C -2.26800140 -0.09206727  0.93957844
  C -3.58183370 -0.88616680  0.90712199
  C -3.75882922 -1.72308444 -0.32774465
  O -4.38933832 -0.83748414  1.79771511
  C -1.15380381 -0.91901250  0.43839201
  C -0.03084063 -1.26093179  0.11371062
  C  1.40070638 -1.15652979  0.42438687
 Cl  1.90091801 -2.75853553  1.09564235
  C  2.23551500 -0.81191408 -0.78024867
  C  1.65191279 -0.14193133 -1.84904121
  C  2.41850872  0.22565117 -2.94094291
  C  3.77041045 -0.06816028 -2.97673961
  C  4.35727976 -0.72662936 -1.90935482
  C  3.59599739 -1.09320364 -0.81479921
  C  1.65996499 -0.03380072  1.58797167
  C  0.24837626  0.36593891  1.97425101
  C -0.72367298  1.18347752  2.81644483
  C -2.06000518  0.46442063  2.41950500
  H -3.13123712  2.85810195  0.92204706
  H -4.35623416  1.58633653  0.82627468
  H -3.89324571  2.51914583 -0.62373345
  H -3.52919594 -2.75909292 -0.07784493
  H -4.79851323 -1.69070805 -0.64838644
  H -3.10067584 -1.40415428 -1.13146259
  H  0.59854222  0.09640140 -1.82445612
  H  1.95334132  0.74347409 -3.76666795
  H  4.36541522  0.21583871 -3.83230791
  H  5.41259646 -0.95642430 -1.92729611
  H  4.05849360 -1.60646023  0.01466194
  H  2.22404472 -0.51065399  2.38578263
  H  2.24842867  0.76777478  1.14478049
  H -0.12811044 -0.62796431  2.22460404
  H -0.09068140  0.71401065  1.00149843
  H -0.73123873  2.23851809  2.54120366
  H -0.59372781  1.10092170  3.89545408
  H -2.16183733 -0.40713694  3.06939945
  H -2.91305588  1.10929457  2.62909570
