31
opt_min/./Reactant_5022_1_opt.xyz
  C -2.25392300 -2.14332500  1.83518200
  N -2.17079252 -0.94068035  1.02667486
  C -1.05285649 -0.79302994  0.23224986
  O -0.19433349 -1.87188235  0.14864788
  C -0.64651097  0.22544891 -0.55762360
  C -1.26978616  1.52471439 -0.80414623
  O -0.69102090  2.49825855 -1.25315118
  N -2.59323386  1.57093541 -0.46158710
  C -3.37352169  2.76772511 -0.66620691
  N  0.54395730 -0.19510816 -1.22983875
  C  1.58995235  0.76058975 -1.52762055
  C  0.93289907 -1.42798214 -0.57715892
  C  2.08885474 -1.25068178  0.44408445
  O  2.09164022 -0.43395587  1.32486347
  O  3.05204431 -2.14064316  0.22791236
  C  4.16852930 -2.11816213  1.11444476
  H -3.24433711 -2.18366101  2.28437310
  H -1.49508802 -2.17612070  2.62341389
  H -2.11689347 -3.00585690  1.18704978
  H -2.37005408 -0.10085398  1.55897450
  H -3.08444616  0.70854787 -0.29772477
  H -2.76579947  3.46289177 -1.24487163
  H -3.62737706  3.23469689  0.28946719
  H -4.29191970  2.54340857 -1.20868574
  H  2.44647395  0.21348024 -1.92002118
  H  1.21614803  1.44596945 -2.28367731
  H  1.89439597  1.34230840 -0.65121925
  H  1.22672582 -2.19292705 -1.30981140
  H  4.37415520 -1.09405244  1.43042889
  H  3.95150221 -2.72993517  1.99158724
  H  5.01056366 -2.53200351  0.56526809
