19
opt_min/./Reactant_607_0_opt.xyz
  C -3.49533394  1.24260201 -1.86830111
  C -2.35675148  2.07593218 -1.32433092
  O -2.33598392  3.28358207 -1.35192141
  C -1.29211968  1.29219821 -0.76421310
  C -0.39368764  0.64494483 -0.27861170
  C  0.66260452 -0.09984042  0.29138813
  C  0.39275251 -1.10028941  1.22735511
  C  1.43567253 -1.81674105  1.78190807
  C  2.74435411 -1.55416553  1.40978255
  C  3.01470150 -0.56358135  0.47816724
  C  1.98241281  0.16520127 -0.07871779
  H -4.43142265  1.60031700 -1.44225813
  H -3.36397114  0.18696608 -1.65150668
  H -3.54730377  1.38922958 -2.94645539
  H -0.62855792 -1.30146402  1.51433014
  H  1.22479265 -2.58758114  2.50940549
  H  3.55405422 -2.12004412  1.84562932
  H  4.03431294 -0.35815727  0.18722685
  H  2.17944116  0.94181344 -0.80328731
