17
opt_min/./Reactant_3377_0_opt.xyz
  C  1.70326847 -1.98285406  0.41064562
  C  1.13012097 -0.59178718  0.32506001
  C  1.83075579  0.44499739  0.91643108
  N  2.50501216  1.24860538  1.40419035
  O  0.00013888 -0.50460865 -0.35588702
  C -0.78140611  0.50168568 -0.56505060
  C -0.50354217  1.86688103 -0.04053425
  C -1.95694805  0.22085202 -1.44689848
  H  2.73653172 -2.00319997  0.06564689
  H  1.68172669 -2.35929948  1.43413333
  H  1.10841246 -2.64292560 -0.21735562
  H -0.28200718  1.82373340  1.02774411
  H  0.37256912  2.30639797 -0.52540172
  H -1.35450506  2.51903099 -0.20834381
  H -2.30399355 -0.80045495 -1.30110492
  H -1.68610894  0.33377897 -2.50002453
  H -2.76877189  0.90819631 -1.23166689
