26
opt_min/./Reactant_5099_0_opt.xyz
  C  2.42146368 -0.68641221  2.73245423
  C  3.21810328  0.17566846  1.75188913
  O  4.42469741  0.16774088  1.73045924
  N  2.49171371  1.06405762  1.03543703
  N  1.29398392  0.96546545  0.57982664
  C  0.53878716  2.20441212  0.66896017
  C  0.76495285 -0.09301814 -0.01726659
  C  1.49595538 -1.27488613 -0.18107880
  N  2.05821228 -2.26645791 -0.33877226
  C -0.61806835 -0.09469215 -0.54311802
  C -1.68884320 -0.32044866  0.31691289
  C -2.98115609 -0.33993119 -0.17407480
  C -3.21686946 -0.13876118 -1.52378577
  C -2.15499625  0.07845770 -2.38545333
  C -0.86012235  0.09782161 -1.89974141
  H  3.06954946 -0.91746113  3.57616908
  H  1.52866437 -0.17333062  3.08431496
  H  2.14830696 -1.62863920  2.25759840
  H  0.32739568  2.42296534  1.71725737
  H -0.38745673  2.14106249  0.10309236
  H  1.16240067  3.01390715  0.28457667
  H -1.51098672 -0.48514303  1.37031328
  H -3.80885082 -0.51627261  0.49596938
  H -4.22527772 -0.15553162 -1.90957534
  H -2.32639891  0.23138392 -3.44026712
  H -0.02399527  0.25992905 -2.56584974
