12
opt_min/./Reactant_391_0_opt.xyz
  C -2.34311442  0.18133934 -0.04552228
  N -0.96470132 -0.17816761 -0.26279238
  C  0.01622770  0.18183624  0.60237449
  O -0.16911194  0.78001460  1.64564593
  C  1.32190604 -0.25548830  0.20813677
  N  2.47021700 -0.09520979 -0.00045604
  N  3.58501628 -0.16774796 -0.47417158
  H -2.97457178 -0.70942459 -0.04978789
  H -2.69279929  0.87535544 -0.81331937
  H -2.40378710  0.66229007  0.92988921
  H -0.71981552 -0.64811452 -1.11991165
  H  4.33961020  0.13126506  0.13008942
