26
opt_min/./Reactant_2541_0_opt.xyz
  C -2.34839400 -2.73705700  0.31309800
  N -1.72989776 -1.43709879  0.38556456
  C -0.41592770 -1.26739411  0.15109969
  O  0.33040771 -2.19731825 -0.12836486
  C  0.08203048  0.12682206  0.27404937
  N  1.38079343  0.39594473  0.10597235
  C  2.41249216 -0.34401219 -0.22028835
  C  3.68328818  0.35185848 -0.30829692
  C  4.87617508 -0.47107824 -0.70973431
  O  3.74410271  1.55286071 -0.08333002
  C -0.77455270  1.25485302  0.58953545
  O -1.97563538  1.20968035  0.78392678
  O -0.08908491  2.42263867  0.63125681
  C -0.84133922  3.57869716  0.96309400
  H -1.56111209 -3.49023173  0.30531827
  H -2.99747993 -2.88713214  1.17531188
  H -2.93929541 -2.83842885 -0.60140717
  H -2.31618734 -0.64021008  0.60271467
  H  1.64504579  1.38376829  0.25816694
  H  2.29353425 -1.39925069 -0.39500086
  H  4.70678695 -1.52799529 -0.53234202
  H  5.06612638 -0.31331056 -1.77061421
  H  5.75455443 -0.13155581 -0.16507736
  H -1.76726477  3.60666475  0.38529978
  H -1.08866819  3.57464704  2.02706195
  H -0.20893489  4.42967831  0.72353176
