29
opt_min/./Reactant_1896_1_opt.xyz
  C  3.47531000 -2.41888000 -0.90446400
  O  2.83715027 -1.16322669 -0.73302566
  C  1.50022007 -1.16643991 -0.56430904
  O  0.83015972 -2.17013991 -0.53845695
  C  1.00078147  0.19651787 -0.42731344
  C -0.24673110  0.66621929 -0.21983295
  C -1.51054380  0.00709084  0.03043934
  C -2.68104003  0.49601079 -0.55618224
  C -3.89120653 -0.12543675 -0.32190715
  C -3.95700598 -1.22900684  0.51477761
  C -2.80461631 -1.71182483  1.11081114
  C -1.58696849 -1.10335042  0.86967089
  C -0.06936875  2.19768880 -0.25124665
  C  0.67807340  2.51337426  1.04436032
  C  1.90408431  2.05271145  0.84489456
  C  1.87098601  1.46109667 -0.56402233
  O  0.96303151  2.33890942 -1.20884355
  H  2.73120048 -3.21789302 -0.91082071
  H  4.01463084 -2.40242744 -1.85212332
  H  4.17722397 -2.56901786 -0.08334393
  H -2.62219551  1.34441702 -1.22171428
  H -4.78911670  0.24898148 -0.79077769
  H -4.90861003 -1.70689834  0.69496247
  H -2.84892418 -2.56952529  1.76522667
  H -0.69241463 -1.48242026  1.33633230
  H -0.94225177  2.79728204 -0.48630186
  H  0.25894602  2.97978136  1.91203022
  H  2.75054365  2.04310364  1.50010242
  H  2.80529062  1.35856897 -1.10253183
