24
opt_min/./Reactant_831_0_opt.xyz
  C  3.44937200  0.59877800  1.42250900
  N  2.55401922 -0.14286272  0.57857020
  C  1.20732994  0.15056492  0.50753253
  O  0.73400776  1.07941736  1.16324268
  C  0.46957134 -0.74723149 -0.31600329
  N -0.87788744 -0.67829756 -0.50342917
  C -1.58184916 -1.95088224 -0.57839792
  C -1.58518347  0.43175984 -0.55967319
  C -3.07736928  0.38814097 -0.45016886
  C -0.99877369  1.75561056 -0.91157572
  H  3.98584232 -0.06170373  2.10845345
  H  2.83520474  1.29422757  1.99376636
  H  4.17703993  1.16643209  0.83338289
  H  2.92790433 -0.90398181  0.03972856
  H  0.94025151 -1.66927902 -0.61833425
  H -2.10038757 -2.15710324  0.35883878
  H -2.30803205 -1.94317064 -1.39010356
  H -0.86391795 -2.74913390 -0.75015692
  H -3.54668659  0.08213939 -1.38938164
  H -3.40997755 -0.29576037  0.32794133
  H -3.44685302  1.38121099 -0.20867939
  H -1.25754348  2.50532300 -0.16719391
  H -1.41449411  2.07656740 -1.87128546
  H  0.07888399  1.72313927 -0.98565183
