21
opt_min/./Reactant_1181_1_opt.xyz
  C  2.91689800 -0.61906300 -0.37192700
  O  2.12214374  0.51181786 -0.64744912
  C  0.87399431  0.54901927 -0.13081981
  C -0.02670710  1.51970904 -0.32160305
 Br  0.14726657  3.06058495 -1.38800114
  C -1.30975029  1.11835956  0.36082286
  C -1.88541229 -0.05265801 -0.47092413
  C -0.85670810 -1.17381832 -0.23267640
  C  0.17579465 -0.50755721  0.70844180
  C -0.73747966  0.37076130  1.56599204
  H  3.82690415 -0.48358760 -0.95698522
  H  3.18266687 -0.68549187  0.68589270
  H  2.42288738 -1.54236990 -0.68698418
  H -2.01096679  1.92929346  0.54440464
  H -2.87231891 -0.32696020 -0.10124148
  H -1.97446802  0.21751802 -1.52146085
  H -1.31398397 -2.03204352  0.25964862
  H -0.39735341 -1.52378073 -1.15597855
  H  0.82603830 -1.20733288  1.22881696
  H -0.19302260  1.01960209  2.25080766
  H -1.48224072 -0.19641607  2.12263980
