22
opt_min/./Reactant_3533_1_opt.xyz
  C  2.38979700  1.34701700  0.12993900
  C  2.27800332 -0.11574444  0.17326347
  N  1.15145030 -0.76212890 -0.02570912
  C  1.21637239 -2.19629120 -0.24488066
  C -0.07957133 -0.14233422 -0.08122445
  C -1.09632663 -0.74821633 -1.00878899
  C -0.40606483  0.85295557  0.86493038
  C -1.77377475  1.50507386  0.73376274
  O  0.34023107  1.18026536  1.80226038
  H  1.96481348  1.78291672  1.05058578
  H  1.77248211  1.73208183 -0.68533284
  H  3.42385311  1.65644133  0.02208084
  H  3.15596533 -0.69804943  0.40359028
  H  2.15048182 -2.58384670  0.15556052
  H  1.17658637 -2.42529565 -1.31120848
  H  0.38079964 -2.68855594  0.25163638
  H -1.68511755 -1.53829283 -0.53704685
  H -0.60380532 -1.16806869 -1.88432171
  H -1.78950292  0.01361328 -1.35251820
  H -2.56048124  0.75716906  0.80419389
  H -1.86660338  2.02428473 -0.21785667
  H -1.89513834  2.22112218  1.54166824
