21
opt_min/./Reactant_1826_1_opt.xyz
  N  3.69861405  0.98350111  2.00459556
  C  2.91704041  0.86346171  1.18060048
  C  1.89352833  0.69993181  0.15755115
  F  2.44083852  1.01614204 -1.08405988
  C  0.71866085  1.49252608  0.42990389
  C -0.45131354  1.71453504  0.56785411
  C -1.87034113  1.53839396  0.46841936
  C -2.03829870  0.45494438 -0.60568532
  C -1.27941769 -0.87590061 -0.41861574
  C  0.20442358 -1.06030381 -0.82762888
  C  1.37137847 -0.75456118  0.13288312
  H -2.24435244  1.21585766  1.44540315
  H -2.39485866  2.45543601  0.19137307
  H -1.77788294  0.86364378 -1.58390366
  H -3.10200932  0.19654806 -0.64427209
  H -1.80265482 -1.55526990 -1.10068970
  H -1.42442129 -1.25290447  0.59667135
  H  0.38623117 -0.59529719 -1.79773089
  H  0.28605878 -2.14585320 -0.96011505
  H  2.21446966 -1.38249590 -0.18136590
  H  1.10139112 -1.05034469  1.14875953
