37
opt_min/./Reactant_5702_1_opt.xyz
  C -1.71773600 -3.21172300  1.30192500
  N -1.28350404 -1.84112088  1.18717269
  C -1.97261843 -0.96408677  0.41019276
  O -2.95371363 -1.26820036 -0.22188363
  C -1.46039545  0.43980410  0.49603644
  O -0.22523268  0.85349494  0.49158000
  C  0.93195975  0.30756417  0.15685287
  C  0.98201572 -0.95454432 -0.57435494
  O  0.02693555 -1.43657526 -1.14474589
  O  2.20559065 -1.51814122 -0.58797568
  C  2.32995082 -2.72066791 -1.33634384
  C  2.07849601  1.15629697  0.46132226
  C  3.29710248  1.06318493 -0.21464379
  C  4.34200774  1.90833937  0.10610165
  C  4.19779147  2.86512864  1.09716186
  C  2.99155955  2.97547841  1.76947528
  C  1.94431685  2.13178957  1.46002025
  C -2.46090597  1.49953861  0.81514047
  O -3.54557209  1.26229880  1.30111999
  N -2.02143117  2.75782864  0.55297833
  C -2.85723140  3.91161955  0.77270437
  H -0.87282616 -3.84423563  1.56659484
  H -2.50125860 -3.31732709  2.05772333
  H -2.12591214 -3.51767377  0.33976004
  H -0.53180766 -1.53568154  1.78224287
  H  3.37110802 -2.78759074 -1.64321410
  H  2.06406336 -3.57435254 -0.71002688
  H  1.66700918 -2.69450421 -2.20309971
  H  3.42309397  0.33962431 -1.00195551
  H  5.27620572  1.82305691 -0.42857270
  H  5.01983716  3.51999102  1.34442460
  H  2.86570876  3.71634218  2.54510003
  H  1.01286503  2.21291129  2.00050916
  H -1.13071862  2.90402333  0.10704478
  H -3.30385556  4.26011731 -0.16179716
  H -3.65605798  3.61643690  1.45154537
  H -2.27227191  4.71704195  1.21602163
