32
opt_min/./Reactant_2107_0_opt.xyz
  C  4.27343400 -0.97200800  1.11572000
  C  3.09666353 -0.03752593  1.08531699
  O  3.09365066  1.08522259  1.58253247
  N  2.01347077 -0.55927308  0.43804737
  N  1.00485442  0.28594937  0.45240137
  C -0.19130411  0.18471292 -0.06004719
  C -0.66854883 -0.96556330 -0.80728540
  C -1.82758981 -0.86148225 -1.58907971
  C -2.28970942 -1.94542750 -2.30738017
  C -1.61213089 -3.15344892 -2.26480616
  C -0.45841508 -3.26488158 -1.50625502
  C  0.01579890 -2.18523417 -0.78772966
  C -1.06459161  1.35545818  0.15632485
  C -0.62884958  2.63036457 -0.19451496
  C -1.43772987  3.72910967  0.03341533
  C -2.67946434  3.56881648  0.62385782
  C -3.11257847  2.30498132  0.98968583
  C -2.31209603  1.20222149  0.75752413
  H  5.18488781 -0.42228903  0.88714923
  H  4.12246862 -1.77787845  0.40450341
  H  4.37032142 -1.38420199  2.11962253
  H  1.23471025  1.17311312  0.95178824
  H -2.35036796  0.08051809 -1.64528713
  H -3.18294386 -1.84776926 -2.90723680
  H -1.97814052 -4.00013410 -2.82673511
  H  0.07717509 -4.20229560 -1.47559183
  H  0.91767288 -2.27025830 -0.20351973
  H  0.33736934  2.75448535 -0.66120449
  H -1.09663960  4.71343596 -0.25032959
  H -3.30892581  4.42747560  0.80285846
  H -4.07559880  2.17806064  1.46172605
  H -2.64165681  0.21793439  1.05388752
