36
opt_min/./Reactant_2854_0_opt.xyz
  C  0.89451253 -3.49225329 -1.17045865
  C  0.82878417 -2.03033115 -1.52558149
  O  0.81809913 -1.63202092 -2.65800158
  C  0.78154912 -1.08223980 -0.32362980
  C  2.07306024 -1.23644218  0.51051356
  C  3.33831362 -1.06290328 -0.27587342
  O  2.04260089 -1.46236740  1.68908929
  C  0.77644563  0.33551667 -0.72762174
  C  0.19541460  1.38833185 -0.54380740
  C -0.77260573  2.45537011 -0.20246612
  C -1.72442429  2.61608039 -1.40728144
  F -2.52995794  1.55247907 -1.53158074
  F -1.06959145  2.74278634 -2.56146231
  F -2.53497431  3.67372386 -1.29599443
  C  0.02015724  3.76954935 -0.01576106
  F -0.74362299  4.86514142  0.00122568
  F  0.69585300  3.76536476  1.14260903
  F  0.92872696  3.94152772 -0.97987722
  C -1.63390769  2.21448101  1.12074989
  C -2.23457070  0.79757138  1.43712475
  C -1.11227254 -0.07269844  0.88517437
  C -0.52328240 -1.44005400  0.57869273
  H  0.83951199 -3.66946122 -0.10191135
  H  0.09290531 -4.02369394 -1.67948058
  H  1.83095810 -3.89283120 -1.55680810
  H  3.16327927 -0.57705861 -1.23108480
  H  3.76877542 -2.04901757 -0.45069262
  H  4.05785544 -0.49487908  0.30985664
  H -0.96473999  2.44503952  1.95249005
  H -2.41830668  2.97495885  1.11340688
  H -3.17802738  0.63562760  0.91907270
  H -2.39248955  0.73701501  2.51299355
  H -0.24431008  0.40953853  1.34338382
  H -1.26833707  0.22090817 -0.14916738
  H -1.19913640 -2.06663550 -0.00209596
  H -0.16313574 -1.97782127  1.45477321
