33
opt_min/./Reactant_4616_1_opt.xyz
  C  5.08576400  1.20493600  0.11266800
  N  3.68309829  1.37117853 -0.16701868
  C  2.73745962  0.52635089  0.33507580
  O  3.04287780 -0.37696278  1.10984869
  C  1.40565033  0.85365107 -0.15561514
  N  0.26337782  0.25142440  0.13697744
  C  0.25173963 -0.78460429  1.16109618
  C -0.93097761  0.56238182 -0.42163069
  C -1.09258729  1.52233818 -1.47441432
  C -2.50829056  1.78235592 -1.95050932
  O -0.16203574  2.14187080 -1.99374390
  C -2.12541441 -0.12857053  0.13103051
  C -2.77591680  0.38862166  1.24641118
  C -3.89664396 -0.24075916  1.75898225
  C -4.38011270 -1.39297979  1.16338915
  C -3.74093438 -1.91361199  0.05053082
  C -2.62081228 -1.28603189 -0.46340408
  H  5.62059341  0.80648702 -0.75412581
  H  5.52992987  2.15798041  0.39926867
  H  5.16931976  0.49597740  0.93418337
  H  3.42020973  2.04866721 -0.86459232
  H  1.34408021  1.63571961 -0.89529857
  H  1.28217940 -1.03695284  1.41249328
  H -0.25383759 -0.41597212  2.05421956
  H -0.27941135 -1.66302838  0.80396188
  H -2.81908984  2.75354086 -1.56765222
  H -2.49184771  1.84627258 -3.03575414
  H -3.22268180  1.03282924 -1.63110199
  H -2.40395181  1.29272566  1.70771710
  H -4.39300281  0.17199136  2.62486755
  H -5.25503346 -1.88317435  1.56444918
  H -4.11838285 -2.81119229 -0.42005047
  H -2.12567785 -1.68931366 -1.33534022
