27
opt_min/./Reactant_1951_0_opt.xyz
  C  3.83365504 -3.31733127 -2.46542277
  O  3.27364248 -2.11851669 -1.95212426
  C  1.99626723 -2.18492532 -1.54796562
  O  1.27723028 -3.16196695 -1.60255940
  C  1.50908345 -0.96362320 -1.04897940
  N  0.88407989 -0.10297659 -0.53680403
  C  0.29488009  0.90754747 -0.01477828
  C  1.02636175  2.16257099  0.13320364
  C  0.22539576  3.27960368  0.75870426
  O  2.18202819  2.29011534 -0.21993636
  C -1.11557424  0.74062660  0.41999255
  C -1.40259008  0.33568333  1.71789741
  C -2.71757668  0.19319920  2.12303988
  C -3.74976547  0.45064688  1.23697383
  C -3.46633023  0.84824179 -0.05822926
  C -2.15326147  0.99249939 -0.46925701
  H  4.41192388 -3.81337636 -1.68318050
  H  4.48745379 -3.03796810 -3.28981226
  H  3.04323700 -3.98699196 -2.81097013
  H -0.67523781  3.46871893  0.17882022
  H -0.07728065  2.99825560  1.76567000
  H  0.83481703  4.17784211  0.79889652
  H -0.59413380  0.13179517  2.40514188
  H -2.93699983 -0.12213832  3.13227944
  H -4.77558906  0.33781429  1.55552762
  H -4.27000821  1.04487193 -0.75298426
  H -1.92894873  1.29874105 -1.48084408
