10
opt_min/./Reactant_5086_1_opt.xyz
  O  2.88813886 -0.84774212  0.48997443
  C  2.68168433 -0.14624302 -0.38986412
  O  2.49208102  0.54764878 -1.27844371
  C -0.31413584 -0.29709889  0.46454404
  C -0.73310254  0.41968929 -0.39372405
  C -3.79771983  0.43158343  0.24994253
  O -3.66462440 -0.25930718  1.15124610
  O -3.94723379  1.13751257 -0.63824415
  H  0.04780436 -0.92551772  1.22419432
  H -1.09294201  1.05056668 -1.15241473
