24
opt_min/./Reactant_4831_1_opt.xyz
  C  3.74180548 -0.17186260  0.41829325
  O  2.33074569 -0.23369551  0.59564947
  C  1.68615914 -1.10232693 -0.18806758
  O  2.20734531 -1.86182823 -0.95543613
  C  0.20859523 -1.06918739  0.08350250
  C -0.34345393 -2.38969736  0.44039237
  C -1.69276515 -2.78437491 -0.12153458
  O  0.32519608 -3.16649547  1.08307170
  N -0.46846949  0.06698111 -0.02635778
  C -1.80147846  0.18376753  0.54148248
  C  0.01218932  1.17653120 -0.62298234
  C -0.69305183  2.38680423 -0.59809065
  N -1.25756773  3.38895883 -0.60979727
  C  1.22372335  1.23975124 -1.32459098
  N  2.18691558  1.40855229 -1.92871447
  H  4.12770011  0.39368261  1.26196315
  H  3.96591667  0.33854914 -0.52141488
  H  4.16283167 -1.17753859  0.39347564
  H -1.90389996 -2.28195844 -1.06080211
  H -2.48825049 -2.57550243  0.59074705
  H -1.67394598 -3.86001333 -0.28076437
  H -1.91199315 -0.49738603  1.38126090
  H -1.95677773  1.20511994  0.88972220
  H -2.55921254 -0.03376345 -0.21256715
