28
opt_min/./Reactant_5527_0_opt.xyz
  C -2.26252100 -3.66397101 -0.28850293
  O -1.70921951 -2.36158728 -0.19304489
  C -2.60211607 -1.33038615 -0.15203135
  O -3.79602741 -1.48582054 -0.17704214
  C -1.89123647 -0.06253984 -0.10561192
  N -0.58661168 -0.07704281 -0.06712827
  C  0.57916363 -0.05577865 -0.02358207
  C  1.96512241 -0.04299221  0.03880011
  C  2.65187961 -1.09302413  0.66720017
  C  4.02969078 -1.06920554  0.72316725
  C  4.73724691 -0.01220326  0.16873284
  C  4.06043379  1.02955069 -0.44984911
  C  2.68362199  1.02370648 -0.52364885
  C -2.51839690  1.25956396 -0.12190968
  O -1.87959653  2.29261537 -0.10479644
  O -3.85202852  1.19992353 -0.13745780
  C -4.53334156  2.44315170 -0.11965716
  H -2.39480341 -4.08746804  0.71015593
  H -1.56024150 -4.26927334 -0.85876749
  H -3.23190924 -3.62531600 -0.78900495
  H  2.09515110 -1.91088875  1.09789257
  H  4.56200689 -1.87316933  1.20860827
  H  5.81511613  0.00155466  0.21863710
  H  4.61650536  1.84715322 -0.88305594
  H  2.14625431  1.82876696 -0.99974582
  H -5.55462163  2.22438439  0.18277035
  H -4.05592000  3.12907185  0.58377611
  H -4.52339636  2.89593541 -1.11404826
