10
opt_min/./Reactant_3713_1_opt.xyz
  O  2.88813887 -0.84774210  0.48997437
  C  2.68168374 -0.14623995 -0.38986157
  O  2.49208351  0.54765000 -1.27844326
  C -0.31413231 -0.29709861  0.46454296
  C -0.73309975  0.41968791 -0.39372626
  C -3.79771278  0.43157813  0.24994089
  O -3.66462123 -0.25930474  1.15125125
  O -3.94723100  1.13751290 -0.63824079
  H  0.04780578 -0.92551980  1.22419245
  H -1.09293773  1.05056489 -1.15241818
