25
opt_min/./Reactant_3943_1_opt.xyz
  N  0.26341900 -3.27475900 -1.61834400
  N  0.21789011 -2.25637680 -1.12560759
  C  0.14579200 -1.10552138 -0.59103203
  C -1.20654795 -0.52698629 -0.46259264
  C -1.43002208  0.81068483 -0.78366551
  C -2.69943845  1.34211876 -0.67223482
  C -3.76059059  0.55120374 -0.25937499
  C -3.54275632 -0.78374980  0.03330883
  C -2.27534690 -1.32679872 -0.06887351
  C  1.35512596 -0.41798632 -0.15422674
  C  2.61031095 -0.85444921 -0.58435674
  C  3.75900393 -0.21496847 -0.16188851
  C  3.68238086  0.86496850  0.70098580
  C  2.44289677  1.29018280  1.15087613
  C  1.28842062  0.65604728  0.73633887
  H -0.61084301  1.42108581 -1.13251376
  H -2.86683438  2.38098609 -0.91860912
  H -4.75139838  0.96956892 -0.17426281
  H -4.36715658 -1.40799808  0.34695594
  H -2.10826036 -2.36799564  0.16567454
  H  2.67890738 -1.69326409 -1.26323913
  H  4.72269614 -0.55991988 -0.50749920
  H  4.57821424  1.36880780  1.03085926
  H  2.37348576  2.12150253  1.83714966
  H  0.33260117  0.97702605  1.11988748
