22
opt_min/./Reactant_2024_1_opt.xyz
  N  3.94839765  0.99913431 -0.01051157
  C  2.93167487  0.68311101  0.40146205
  C  1.62898698  0.27765035  0.89635265
  C  1.69532289  0.10183513  2.33688007
  N  1.72973169 -0.03593932  3.46916473
  C  0.60272155  1.25195601  0.53244662
  C -0.45803903  1.55577738  0.05588933
  C -1.67069680  1.42662388 -0.69645934
 Br -3.24007657  1.29028228  0.51862427
  C -1.47501644  0.12737112 -1.49631586
  C -1.35666643 -1.17452513 -0.68151322
  C -0.34523872 -1.32700605  0.47369475
  C  1.14062505 -1.03222284  0.19343640
  H -1.88934673  2.27444932 -1.34716606
  H -2.32712132  0.00368260 -2.17010097
  H -0.58249537  0.26554547 -2.11185327
  H -1.16260989 -1.96537400 -1.41117402
  H -2.33532821 -1.38149053 -0.24185236
  H -0.42886991 -2.37030191  0.78757159
  H -0.67749549 -0.72413057  1.32105877
  H  1.76504796 -1.85691832  0.54841793
  H  1.31351067 -0.91647417 -0.87800983
