26
opt_min/./Reactant_5102_0_opt.xyz
  C  2.42146368 -0.68641221  2.73245423
  C  3.21810328  0.17566846  1.75188912
  O  4.42469741  0.16774088  1.73045922
  N  2.49171371  1.06405762  1.03543703
  N  1.29398391  0.96546545  0.57982664
  C  0.53878715  2.20441212  0.66896017
  C  0.76495285 -0.09301815 -0.01726660
  C  1.49595537 -1.27488613 -0.18107882
  N  2.05821226 -2.26645791 -0.33877228
  C -0.61806836 -0.09469216 -0.54311803
  C -1.68884321 -0.32044867  0.31691288
  C -2.98115610 -0.33993119 -0.17407481
  C -3.21686947 -0.13876118 -1.52378578
  C -2.15499626  0.07845770 -2.38545333
  C -0.86012235  0.09782161 -1.89974141
  H  3.06954946 -0.91746113  3.57616908
  H  1.52866437 -0.17333063  3.08431496
  H  2.14830695 -1.62863920  2.25759840
  H  0.32739568  2.42296534  1.71725736
  H -0.38745674  2.14106250  0.10309235
  H  1.16240067  3.01390716  0.28457667
  H -1.51098673 -0.48514303  1.37031327
  H -3.80885083 -0.51627261  0.49596937
  H -4.22527772 -0.15553161 -1.90957534
  H -2.32639892  0.23138392 -3.44026712
  H -0.02399527  0.25992905 -2.56584974
