29
opt_min/./Reactant_1178_1_opt.xyz
  C  2.29907470  1.86161977  1.08102053
  C  1.44233360  1.18343006  0.01111814
  C  0.04322860  1.02771299  0.44754571
  C -1.10675553  0.64443941  0.54439138
  C -2.09551910 -0.36699288  0.11863451
  C -2.62765566 -1.09776404  1.35577255
  F -3.10063790 -0.27119712  2.29121670
  F -3.60503183 -1.96623074  1.06742551
  F -1.64797766 -1.80895068  1.93596919
  C -3.23768805  0.33621050 -0.62119419
  F -3.90897020  1.20276785  0.13939089
  F -2.75812528  1.03088729 -1.66442644
  F -4.13622654 -0.52048650 -1.12232081
  C -1.42773774 -1.46125807 -0.89207574
  C  0.03448053 -1.04167221 -0.88466536
  C  1.46765733 -1.20474561 -1.36812938
  C  2.16222854 -0.17183355 -0.41066059
  H  1.87536482  2.82741926  1.34503191
  H  2.34131660  1.24878493  1.97872573
  H  3.31286825  2.01467050  0.71935150
  H  1.40684362  1.82938457 -0.87622805
  H -1.91043013 -1.37970716 -1.86491875
  H -1.61110044 -2.45478499 -0.48503420
  H  0.21817113 -1.09662179  0.19055443
  H -0.09529349 -0.01958537 -1.23519333
  H  1.90597662 -2.18837033 -1.20109432
  H  1.59726055 -0.93205418 -2.41453279
  H  2.38394384 -0.69693127  0.52038533
  H  3.11277773  0.14109188 -0.84652926
