36
opt_min/./Reactant_5515_1_opt.xyz
  C  5.29415500 -0.05396800  0.96076200
  C  4.41645565 -1.09554433  0.69569958
  C  3.08409597 -0.84472523  0.45309222
  C  2.59761865  0.47271559  0.46985531
  N  1.30393459  0.83921756  0.24273492
  O  0.48861272 -0.18645176 -0.06320537
  C -0.77794869 -0.02194257 -0.32222419
  C -1.46668736 -1.25766889 -0.66204886
  C -2.83167190 -1.42108905 -0.40811891
  C -3.46643676 -2.60719906 -0.72137259
  C -2.75615332 -3.65401586 -1.28656427
  C -1.39875120 -3.51051144 -1.53192190
  C -0.75852471 -2.32855192 -1.22354104
  C -1.46766933  1.25788964 -0.29429628
  C -2.53068456  1.49787255 -1.17318115
  C -3.19354237  2.70819821 -1.16269768
  C -2.81427041  3.70314565 -0.27421701
  C -1.75892086  3.47990341  0.59490761
  C -1.08352796  2.27562631  0.58455642
  C  3.49228005  1.51801542  0.74289713
  C  4.82205379  1.25087819  0.98280399
  H  6.33700783 -0.26032433  1.15041190
  H  4.78295614 -2.11291308  0.68218383
  H  2.40216656 -1.65972851  0.25608487
  H -3.39086340 -0.62325986  0.05717809
  H -4.52092234 -2.72218554 -0.51836572
  H -3.24919784 -4.58187530 -1.53555985
  H -0.83709734 -4.32194252 -1.97048764
  H  0.29421061 -2.20490512 -1.42873282
  H -2.81915959  0.73760421 -1.88462943
  H -4.00737405  2.87999657 -1.85265771
  H -3.33614465  4.64860059 -0.26699240
  H -1.45969061  4.25654776  1.28446174
  H -0.26046170  2.11621879  1.26238123
  H  3.11740016  2.52947372  0.75558517
  H  5.50689601  2.06085392  1.19016093
