32
opt_min/./Reactant_1696_1_opt.xyz
  C  4.23230200 -1.95372100  0.57564800
  C  2.72833202 -2.18564452  0.54716402
  O  2.24138578 -3.27410543  0.82001062
  C  1.94589701 -1.02334024  0.24719028
  O  0.63798856 -1.15396233  0.23747377
  C -0.26820064 -0.26296532 -0.01702602
  C -1.63951263 -0.72090145 -0.03961804
  C -2.70196152  0.18620016 -0.12249985
  C -4.00621552 -0.26493324 -0.14659065
  C -4.28081492 -1.62207962 -0.08426334
  C -3.23447919 -2.53054196  0.00846163
  C -1.92745578 -2.09340254  0.02879618
  C  0.07123499  1.15238450 -0.25459035
  C -0.25904006  1.78561432 -1.44948989
  C  0.07222245  3.11387955 -1.64855537
  C  0.73453238  3.82497889 -0.66183206
  C  1.06301033  3.20113326  0.53172286
  C  0.73694462  1.87409432  0.73649154
  H  4.73071713 -2.77526963  0.07129352
  H  4.50634237 -1.01278455  0.11236810
  H  4.56952314 -1.95133124  1.60917933
  H  2.40043549 -0.06669283  0.02390253
  H -2.50710945  1.24903640 -0.15808440
  H -4.81274987  0.44913765 -0.21100259
  H -5.29837246 -1.97956622 -0.10441905
  H -3.44104268 -3.58738018  0.06317909
  H -1.11772085 -2.80215706  0.09691574
  H -0.77527299  1.23971924 -2.22383756
  H -0.19053009  3.59051633 -2.58117099
  H  0.99240749  4.86158492 -0.81621360
  H  1.57460804  3.75272443  1.30611851
  H  0.97431661  1.39331892  1.67558196
