26
opt_min/./Reactant_940_1_opt.xyz
  C  1.09703100  2.61311600 -0.02057800
  O  1.37283676  1.23353307 -0.12378023
  C  0.34228524  0.37613148 -0.18402938
  C  0.42615931 -0.97566145 -0.19780940
  C  1.57929321 -1.85827080 -0.15787522
  C  2.93156777 -1.19740806 -0.28182260
  O  1.46136022 -3.06476630 -0.03585005
  C -0.99960377 -1.48513011 -0.14182887
  C -1.50692416 -1.17702857  1.28141314
  C -1.60036482  0.35983531  1.28532068
  C -1.12293728  0.73972513 -0.13454272
  C -1.71797978 -0.40849967 -0.95579596
  H  2.06787871  3.10193809  0.07073839
  H  0.58827625  2.98798301 -0.91476291
  H  0.49212176  2.83777044  0.86393981
  H  2.93752833 -0.47935752 -1.09838974
  H  3.69553898 -1.95703183 -0.43649240
  H  3.14660100 -0.65979902  0.64030710
  H -1.11653732 -2.51920547 -0.44939024
  H -2.47927869 -1.63618476  1.45588602
  H -0.80934118 -1.55377902  2.02993611
  H -0.98515833  0.81406076  2.06229231
  H -2.62964579  0.69477614  1.42518794
  H -1.37870960  1.75135698 -0.44065200
  H -1.40893447 -0.38972620 -1.99975392
  H -2.80317954 -0.46208987 -0.88938061
