24
opt_min/./Reactant_4955_1_opt.xyz
  C  3.55297500 -1.76887300 -0.85444400
  N  2.23045744 -1.22730361 -0.68929423
  C  1.57684190 -1.25202030  0.50763647
  O  2.06992135 -1.72694824  1.52163516
  C  0.24336731 -0.67333625  0.50783624
  O -0.23226433 -0.13769581 -0.58337494
  C -1.35688234  0.44699054 -0.85047831
  C -2.52983496  0.70639965 -0.07004745
  C -2.85091517  0.10910892  1.15719657
  C -4.02470484  0.42876337  1.81172568
  C -4.91260830  1.34443813  1.27417811
  C -4.62215825  1.93177491  0.05038293
  C -3.45785731  1.61593035 -0.61173117
  H  3.89876026 -2.07651324  0.13157793
  H  4.23282797 -1.01705112 -1.26074824
  H  3.54324581 -2.63768867 -1.51829820
  H  1.77311398 -0.81997303 -1.48832565
  H -0.29424635 -0.65888603  1.44141213
  H -1.36109556  0.82932529 -1.86550588
  H -2.20844130 -0.63537540  1.59835912
  H -4.24670040 -0.04859506  2.75526272
  H -5.82515142  1.59461117  1.79325124
  H -5.31367866  2.63906506 -0.38391329
  H -3.23738892  2.07655552 -1.56392807
