29
opt_min/./Reactant_469_1_opt.xyz
  C -3.19174200  2.84589500  0.24718900
  N -2.13896282  1.96885227 -0.20457240
  C -1.30774371  1.36494960  0.66206622
  O -1.30876133  1.59037900  1.86306907
  C -0.36962562  0.39203396  0.00354699
  C -0.96124078 -0.49624854 -0.99571566
  C -0.59039499 -1.96376732 -0.92489687
  O -1.82649895 -0.12984784 -1.77960230
  N  0.90928931  0.27611258  0.38554351
  C  1.37640666  0.89402794  1.61215346
  C  1.81312904 -0.32543285 -0.38392010
  C  3.18864107 -0.58918930 -0.04929341
  O  3.79383670 -0.31477076  0.96793515
  O  3.77745491 -1.23692521 -1.08816677
  C  5.14415476 -1.56460129 -0.90905612
  H -4.16809290  2.36454963  0.16203741
  H -3.18944410  3.75786057 -0.35070353
  H -3.00312532  3.09195879  1.29113647
  H -2.22476115  1.55760729 -1.13010445
  H -0.09374941 -2.27296838 -1.84293560
  H  0.03668465 -2.20119140 -0.07144196
  H -1.52094492 -2.52662697 -0.86528014
  H  2.01815155  0.19304178  2.14255744
  H  0.53127242  1.17842155  2.23400207
  H  1.97808913  1.77200586  1.37612956
  H  1.51389778 -0.65844862 -1.36265699
  H  5.25336269 -2.34473331 -0.15202752
  H  5.50070589 -1.91918895 -1.87268567
  H  5.70780289 -0.68569158 -0.58847854
