23
opt_min/./Reactant_2241_1_opt.xyz
  C -2.36442880  1.31356572 -0.06323453
  C -1.20668782  0.49968936  0.50977398
  F -1.45161922  0.31717619  1.87449896
  C  0.07731240  1.23982086  0.41988095
  C  1.26941494  1.48447833  0.41898518
  C  2.61912411  0.93383510  0.33374810
 Cl  3.41671432  1.58968747 -1.14088636
 Cl  3.58549527  1.41393588  1.74960929
  C  2.59363120 -0.68378695  0.23253470
  C  1.10646737 -0.97900350  0.12635181
  C -0.04365944 -1.97028545  0.05454726
  C -1.23031540 -0.95791155 -0.13569826
  H -2.17375230  1.54669406 -1.10692877
  H -2.46207663  2.24206103  0.49486419
  H -3.29506513  0.75722290  0.01882176
  H  3.16533688 -0.96829311 -0.64904237
  H  3.06689278 -1.09764410  1.12099219
  H  0.79334934 -0.50279637  1.05391416
  H  0.86906125 -0.37425977 -0.75255997
  H -0.01803637 -2.64620190 -0.80082178
  H -0.16782552 -2.55469002  0.96444060
  H -1.37160898 -0.79978590 -1.20587532
  H -2.14501903 -1.39884741  0.26562173
