17
opt_min/./Reactant_778_1_opt.xyz
  N  5.23972187  2.16980125  2.14067163
  C  4.26482000  1.54457662  2.06714473
  C  3.15792101  0.81398176  1.96874157
  N  2.14265426  0.19926854  1.95604376
  C  1.03100608 -0.41494168  1.88206399
  C  0.05884176 -0.20431453  0.83993753
  C  0.26781189  0.71348044 -0.19525947
  C -0.68711073  0.88033564 -1.17731329
  C -1.86149840  0.14463479 -1.15006462
  C -2.07887422 -0.76625501 -0.12739310
  C -1.12912316 -0.94142502  0.85820417
  H  0.82958047 -1.14730022  2.64944116
  H  1.17951629  1.29303042 -0.22478498
  H -0.51393565  1.59146736 -1.97194634
  H -2.60355403  0.28042436 -1.92203740
  H -2.99158746 -1.34232287 -0.10039724
  H -1.30016854 -1.65273801  1.65445667
