24
opt_min/./Reactant_226_1_opt.xyz
  C  3.21291323  0.57912207 -0.21017616
  O  2.75574650 -0.75313849 -0.22064152
  C  1.37025030 -0.92160060 -0.19854121
 Cl  1.09277668 -2.49973639 -1.02928811
  C  0.54877851  0.09129345 -0.81666034
  C -0.29956221  0.94087178 -0.88231628
  C -1.56470920  1.58661449 -0.66742186
  C -2.35861623  0.57657514  0.19388886
  C -1.63769941  0.04483805  1.44843656
  C -0.73018082 -1.20831189  1.32969604
  C  0.79312152 -1.00643648  1.23551156
  H  2.82231539  1.14082941 -1.06555446
  H  4.29727734  0.51783232 -0.27318430
  H  2.92946508  1.09715118  0.71257988
  H -2.09490456  1.79381945 -1.59814032
  H -1.42759426  2.52385145 -0.12281282
  H -2.64217812 -0.27123233 -0.43241042
  H -3.27256840  1.08187634  0.51797736
  H -1.08577731  0.85227808  1.93463778
  H -2.44053183 -0.24447943  2.13102126
  H -1.07008801 -1.83463339  0.50956273
  H -0.88405871 -1.77077195  2.25423880
  H  1.31231782 -1.81754332  1.74951891
  H  1.06684589 -0.06864317  1.72991789
