31
opt_min/./Reactant_5387_1_opt.xyz
  C  0.03920900  3.85584400 -0.54412000
  N  0.29012240  2.46777757 -0.25078719
  C -0.66940595  1.51947148 -0.48785222
  O -1.75284546  1.86693804 -0.96681610
  C -0.28879964  0.15447531 -0.23095010
  N -1.09216045 -0.92665255 -0.47915674
  C -2.37895327 -1.19452047 -0.50964165
  C -2.74239922 -2.61532876 -0.82106681
  C -3.46266067 -0.24200179 -0.17045550
  C  1.10370173 -0.21769889  0.05665770
  C  1.78613565 -1.14055316 -0.74437280
  C  3.08701241 -1.50627841 -0.45884091
  C  3.74169907 -0.96587865  0.63579078
  C  3.07797028 -0.06076995  1.44790250
  C  1.77516777  0.30451147  1.16826048
  H -0.64135448  3.91981085 -1.39380071
  H  0.97494380  4.35712993 -0.78284079
  H -0.43320772  4.36009537  0.30525190
  H  1.21318727  2.19435126  0.03250368
  H -0.51978605 -1.76524470 -0.57748702
  H -2.64884810 -2.81989517 -1.88955332
  H -2.09496771 -3.31651070 -0.29152496
  H -3.77000565 -2.81475210 -0.53398140
  H -4.36670709 -0.48156185 -0.72529477
  H -3.69090279 -0.30574968  0.89543360
  H -3.16006485  0.77963932 -0.39565213
  H  1.30392334 -1.54479273 -1.62526531
  H  3.59762072 -2.21065321 -1.09969206
  H  4.75938093 -1.25110011  0.85626763
  H  3.57578707  0.35287509  2.31283168
  H  1.24980479  0.97513655  1.83336120
