19
opt_min/./Reactant_4237_0_opt.xyz
  C -2.02051400 -1.17444300 -0.80801100
  O -0.84598075 -0.74296426 -0.53001503
  C -0.40900054  0.32768229  0.08068122
  C -1.18170661  1.51248295  0.50281512
  C -2.39706016  1.89291765 -0.32601234
  O -0.81926665  2.19757427  1.43157866
  C  1.07382510  0.38388854  0.25814847
  O  1.68051092  1.41085931  0.47070505
  N  1.69602485 -0.81982811  0.14047733
  C  3.13360069 -0.91783353  0.22665048
  H -2.05392358 -2.11488705 -1.33209221
  H -2.92170273 -0.63629883 -0.58479435
  H -2.17707360  1.80005769 -1.39042508
  H -3.26255411  1.27572634 -0.08642722
  H -2.64637665  2.92541603 -0.09004055
  H  1.16861300 -1.65399271 -0.05289294
  H  3.60526495 -0.65479515 -0.72666595
  H  3.41547467 -1.93212770  0.50437138
  H  3.48327541 -0.21384090  0.98470039
