28
opt_min/./Reactant_5851_1_opt.xyz
  C  2.36261998  2.54829301  1.97713799
  N  1.48933756  1.59069968  1.34317080
  C  1.62136116  1.29270191  0.02478507
  O  2.47885327  1.79179405 -0.68274914
  C  0.64689878  0.30759244 -0.48900771
  O  0.72112552  0.14802958 -1.78043823
  C  0.12143415 -0.69555688 -2.57344683
  C  0.46812110 -0.56476956 -4.03001288
  C -0.78157810 -1.67896822 -2.18278434
  N -1.50418672 -2.53929854 -1.91712188
  C -0.32766861 -0.38393307  0.36556196
  C -1.69434781 -0.24292290  0.11600425
  C -2.61919098 -0.87143400  0.92658090
  C -2.19780166 -1.64949822  1.99204999
  C -0.84453706 -1.79259918  2.24952047
  C  0.08711698 -1.16150008  1.44684232
  H  2.03591123  3.57293198  1.77864154
  H  3.36598211  2.42987664  1.56824398
  H  2.37685413  2.37611326  3.05029244
  H  0.73929576  1.18441395  1.87561822
  H  0.38844269 -1.52917043 -4.52464627
  H  1.48273083 -0.18484291 -4.12377849
  H -0.20604077  0.13198822 -4.53106733
  H -2.02847614  0.37179856 -0.70785252
  H -3.67268387 -0.75443512  0.72339906
  H -2.92295446 -2.14572840  2.61863518
  H -0.51150147 -2.40381551  3.07498015
  H  1.14413092 -1.28663317  1.63385332
