10
opt_min/./Reactant_3339_1_opt.xyz
  O  2.88813886 -0.84774211  0.48997442
  C  2.68168423 -0.14624262 -0.38986374
  O  2.49208182  0.54764874 -1.27844384
  C -0.31413797 -0.29709990  0.46454337
  C -0.73310318  0.41968893 -0.39372494
  C -3.79772252  0.43158285  0.24994149
  O -3.66462869 -0.25930553  1.15124713
  O -3.94723723  1.13751487 -0.63824285
  H  0.04780258 -0.92551815  1.22419400
  H -1.09294282  1.05056631 -1.15241562
