32
opt_min/./Reactant_3171_0_opt.xyz
  C -2.06868635  2.50874578 -2.19738240
  N -1.29622631  1.64921053 -1.33114675
  C -1.09138846  0.34886605 -1.62096239
  O -1.65901133 -0.24492398 -2.51361522
  C -0.14378377 -0.34817916 -0.67285973
  O  1.12461165 -0.06951424 -0.60871531
  C  1.86153294  0.80791013 -1.27551489
  C  1.38867151  1.72023899 -2.21866344
  N  1.03978130  2.47572497 -3.01593173
  C  3.31227095  0.82615047 -0.97154447
  O  4.03938487  1.73251231 -1.32838213
  N  3.74373847 -0.24378658 -0.25599561
  C  5.12481208 -0.39454487  0.12524825
  C -0.62338953 -1.39705396  0.19732816
  C -1.91350739 -1.92465394  0.04414991
  C -2.35960341 -2.92444884  0.88425533
  C -1.54409904 -3.41436955  1.89183376
  C -0.26811188 -2.89705963  2.05708257
  C  0.19123891 -1.89990348  1.22370005
  H -2.78857510  3.07789251 -1.61092803
  H -2.59171689  1.87179495 -2.90828244
  H -1.40838621  3.18750545 -2.74046460
  H -0.74897751  2.10361971 -0.61628120
  H  3.11123242 -0.99960170 -0.05105588
  H  5.23167844 -0.37056810  1.21285043
  H  5.67426215  0.44058691 -0.30709039
  H  5.53038322 -1.33354243 -0.25489686
  H -2.54246910 -1.56394494 -0.75121289
  H -3.35242901 -3.32620250  0.75134814
  H -1.89951892 -4.19483285  2.54796254
  H  0.37031500 -3.27303881  2.84286715
  H  1.17752573 -1.48922227  1.37344354
