20
opt_min/./Reactant_1519_1_opt.xyz
  C  3.41832200  0.44690500  0.53935600
  N  2.03077311  0.06340216  0.41681083
  C  1.31670204  0.33801973 -0.70351859
  O  1.76179967  0.96904863 -1.63755179
  C -0.08891255 -0.11893778 -0.64870637
  C -1.08192821  0.11769253 -1.51197021
  F -1.12003248  0.81528780 -2.63032709
  C -2.34115696 -0.53998935 -0.93496475
  C -2.68932324  0.32120575  0.28708410
  C -1.72546666  0.06926627  1.15792663
  C -0.80932457 -0.93658209  0.45020967
  O -1.75072428 -1.66714387 -0.31407898
  H  3.62941336  0.74544054  1.56374036
  H  3.58823611  1.28550906 -0.13466787
  H  4.08775517 -0.36651335  0.25406918
  H  1.61752438 -0.45310005  1.17332729
  H -3.13433917 -0.80409388 -1.62628486
  H -3.52774448  0.98202209  0.34605143
  H -1.56398735  0.46725734  2.13776173
  H -0.21390548 -1.60372144  1.06701159
