35
opt_min/./Reactant_5963_1_opt.xyz
  C  2.98362100 -1.82680900  2.65221400
  N  1.89712220 -1.26445272  1.89023510
  C  1.99166339 -0.03364837  1.31449267
  O  2.96615343  0.67457993  1.44582799
  C  0.79061940  0.36329887  0.52994532
  O -0.07241025 -0.60520939  0.28118859
  C -1.30646794 -0.54131018 -0.16022742
  C -1.88165116 -1.82638988 -0.57996415
  C -0.91134393 -2.95967508 -0.80793534
  O -3.07421033 -1.95414778 -0.78409374
  C -2.13123679  0.65794613 -0.16601127
  C -2.07652632  1.55336484  0.90736614
  C -2.91785210  2.64486362  0.95114007
  C -3.82053926  2.87415119 -0.07651147
  C -3.88671619  1.99002892 -1.14119554
  C -3.05529593  0.88689736 -1.18658696
  C  0.74521338  1.70862605 -0.04970890
  O  1.34434269  2.66756033  0.36000595
  O  0.00464528  1.72978417 -1.18856780
  C -0.04701794  2.95805393 -1.89382676
  H  2.61664468 -2.22462130  3.59875123
  H  3.48381012 -2.62383616  2.09540801
  H  3.69893182 -1.02752400  2.84074395
  H  1.06838156 -1.82273663  1.76410204
  H -0.04157485 -2.91362740 -0.16087442
  H -0.56951236 -2.90321468 -1.84269518
  H -1.43577944 -3.90355477 -0.67845172
  H -1.38302706  1.38851182  1.72146867
  H -2.86612514  3.32187011  1.79109106
  H -4.46724429  3.73799791 -0.04740622
  H -4.59097359  2.16191293 -1.94143426
  H -3.10437433  0.20641329 -2.02156393
  H  0.14719331  3.78822148 -1.21130046
  H -1.04509172  3.03617401 -2.32188694
  H  0.70681177  2.95662315 -2.68441682
