26
opt_min/./Reactant_4888_0_opt.xyz
  C  3.55450200 -0.40363500  0.32004200
  C  2.39066630 -0.12617072 -0.60696986
  O  2.53712620 -0.14306217 -1.82173038
  C  1.15903184  0.15480999  0.07951557
  N -0.02277201  0.40625922 -0.48455907
  C -0.08044346  0.60247303 -1.91882638
  C -1.16203329  0.41162765  0.21720748
  C -1.32712791 -0.33829499  1.48017436
  C -0.61335147 -1.67419233  1.57873153
  O -2.07717524  0.02545455  2.35565980
  C -2.34803515  1.19625323 -0.18788449
  C -2.07288907  2.59673391 -0.70924312
  O -3.47748199  0.80498999 -0.02111598
  H  4.37529269 -0.84096470 -0.24303239
  H  3.89167246  0.54249214  0.74742089
  H  3.26587850 -1.06682203  1.13197487
  H  1.17234468  0.14646018  1.15663395
  H  0.46810885  1.49991476 -2.20837195
  H  0.42187808 -0.24060735 -2.40312970
  H -1.11021289  0.64240962 -2.26067765
  H -0.32569186 -2.05821565  0.60277620
  H  0.26434038 -1.60657332  2.21887362
  H -1.30772454 -2.36134107  2.06182874
  H -2.87395982  3.23662442 -0.33851407
  H -1.11420908  2.97385884 -0.36146442
  H -2.10653996  2.62947305 -1.79629836
