17
opt_min/./Reactant_170_1_opt.xyz
  C -2.73459000  0.61753800  0.71898700
  C -2.21923741 -0.49755534 -0.17819635
  O -2.96120670 -1.26282053 -0.75702957
  C -0.77910266 -0.55870738 -0.28416313
  N  0.12008698  0.22344998  0.34152433
  C  1.37301631 -0.12871747  0.01400023
  C  2.60793675  0.50552184  0.52421087
  C  1.25768276 -1.23204282 -0.90172907
  O  2.08858599 -1.88626669 -1.47825241
  O -0.11396397 -1.44271745 -1.03876482
  H -2.47098135  0.41225002  1.75530427
  H -3.81750893  0.64790099  0.63605461
  H -2.33101135  1.58466484  0.42636834
  H -0.12288799  0.96927727  0.97960560
  H  3.44656144  0.13697431 -0.06137061
  H  2.55692421  1.59130772  0.44759102
  H  2.78188070  0.24475951  1.57035133
