27
opt_min/./Reactant_2792_1_opt.xyz
  C  2.86988644 -0.27580617  0.79057415
  O  1.78603125  0.49328781  0.33233594
  C  1.04622210 -0.01190003 -0.77670120
  C  1.89089478 -0.11380173 -2.04812418
  C -0.04776721  0.94001742 -0.91050287
  C -1.17476612  1.31501598 -0.73096415
  C -2.38637909  1.57051330 -0.03540493
 Br -2.53804557  3.46344278  0.53594331
 Br -3.96986785  1.18794784 -1.17241770
  C -2.35593421  0.63502455  1.17370610
  C -2.02508193 -0.82741219  0.81408031
  C -0.59124559 -1.40724036  0.79229269
  C  0.31157298 -1.33518579 -0.45954513
  H  2.56349053 -1.27396690  1.12004066
  H  3.65867846 -0.37185885  0.03742988
  H  3.26732300  0.27011090  1.64449684
  H  1.25358652 -0.35685046 -2.89412373
  H  2.37337946  0.84348025 -2.23238591
  H  2.65292612 -0.88346559 -1.95389354
  H -1.66436596  1.02659202  1.92117306
  H -3.36103410  0.63216812  1.60931031
  H -2.53218504 -1.41484611  1.58649530
  H -2.52977723 -1.08645223 -0.12083561
  H -0.77056846 -2.48475326  0.87458650
  H -0.04972121 -1.08887673  1.68265078
  H  1.07226554 -2.11344000 -0.34821867
  H -0.28518508 -1.60979341 -1.33236422
