9
opt_min/./Reactant_55_0_opt.xyz
  C -2.19245850 -0.27480247 -0.34496250
  N  4.39407336  16.85165548  7.74817485
  C -8.02914759  1.91227438 -4.27798232
  C -3.59977088 -3.10584720  6.69718056
  H  4.54251244  18.61045004  1.40378387
  H -6.92328504  2.27499965  0.57990436
  H  10.17443791 -20.46131249 -3.13756352
  H -4.00030699 -9.62169730 -5.10303601
  H -11.65890934  2.58884216  4.00864119
