16
opt_min/./Reactant_950_0_opt.xyz
  C  3.07526000 -0.05170000  0.16314300
  N  1.67700660 -0.39580236  0.29071227
  C  0.71438904  0.44378554 -0.19783079
  O  0.99451415  1.47578231 -0.76613542
  C -0.64449823 -0.07635137  0.03134282
  N -1.73837554  0.52737592 -0.34132837
  C -3.01695630 -0.11642429 -0.00402007
  O -1.82735864  1.60536946 -0.93553389
  H  3.31685686  0.80605828  0.79433418
  H  3.68609529 -0.90177850  0.44967289
  H  3.28762818  0.22627067 -0.86903666
  H  1.42956419 -1.24595875  0.76417891
  H -0.74983322 -1.01673432  0.54766946
  H -2.92708962 -1.19818126  0.04593888
  H -3.36531301  0.26418617  0.95483837
  H -3.74239639  0.16535896 -0.76425938
