26
opt_min/./Reactant_5155_0_opt.xyz
  C  4.56708882 -0.60580221  1.60895586
  C  3.56821972 -1.75778630  1.61507840
  O  3.81124740 -2.87587437  2.01818221
  C  2.37089321 -1.29278417  1.07079719
  N  1.39492471 -0.77919927  0.64974759
  C  0.52513033  0.05291134  0.17910121
  C  1.04628333  1.40068056 -0.05386088
  C  0.17831817  2.36240566 -0.82424030
  O  2.16359744  1.70881477  0.32892448
  C -0.82095539 -0.44233654 -0.11211884
  C -1.95599467  0.31398809  0.17929437
  C -3.21627189 -0.18492230 -0.09077302
  C -3.36515662 -1.44485028 -0.64609655
  C -2.24421562 -2.21177845 -0.91935623
  C -0.98149368 -1.71833782 -0.65289463
  H  5.38374751 -0.86346406  0.93735958
  H  4.10978657  0.32784016  1.29066750
  H  4.97108723 -0.49955495  2.61367894
  H -0.34155532  3.01580294 -0.12490499
  H  0.82232567  2.98963263 -1.43718173
  H -0.54761431  1.84720297 -1.44565439
  H -1.84785057  1.28171306  0.64354897
  H -4.08693172  0.41069247  0.14141516
  H -4.34989647 -1.83302386 -0.85826274
  H -2.35690015 -3.19840077 -1.34355703
  H -0.11133882 -2.32024912 -0.87309369
