21
opt_min/./Reactant_988_0_opt.xyz
  C -3.63230000  0.80436900  0.46562400
  C -2.54332942 -0.20910644  0.44612431
  N -1.30190788  0.15904960  0.28091074
  C -0.12766687 -0.48328403  0.21545518
  C -0.00180197 -1.96811435  0.31994324
  C  0.97086700  0.43554000  0.05125732
  O  0.76923184  1.65710947 -0.00079884
  N  2.23283521 -0.07980568  0.01678473
  C  3.38149360  0.78235506 -0.12836019
  H -4.56327253  0.36881975  0.10824568
  H -3.80893766  1.18057275  1.47844545
  H -3.37881588  1.65708893 -0.16359366
  H -2.77691624 -1.25087333  0.58903202
  H -1.12516764  1.16985155  0.15140374
  H  0.46061532 -2.27192386  1.26193346
  H -0.98301476 -2.43248649  0.26438138
  H  0.59807693 -2.36602081 -0.50178750
  H  2.37465543 -1.06945888  0.10955368
  H  3.36438357  1.28102148 -1.10213727
  H  3.36547544  1.55770578  0.64254974
  H  4.29212372  0.19603310 -0.03675937
