18
opt_min/./Reactant_1484_0_opt.xyz
  C  3.50778600 -0.99244600  0.08074000
  N  2.33221265 -0.15561713  0.04220822
  C  2.08361444  0.71855966  1.03275967
  O  2.75763488  0.88258029  2.02020766
  N  0.95400320  1.57190091  0.86157816
  O -0.16588408  1.18602431  0.45641986
  N -0.36887472 -0.01349000 -0.05661982
  C -1.69113614 -0.32477494 -0.34083267
  O -1.96933943 -1.24515725 -1.05918042
  O -2.56682216  0.46106763  0.29766292
  C -3.93647620  0.16000159  0.08252071
  H  3.75914218 -1.31395880 -0.92586262
  H  4.32854421 -0.42012464  0.51244457
  H  3.33945332 -1.87107909  0.70833961
  H  1.66512811 -0.27645791 -0.70572916
  H -4.49958851  0.82678584  0.72999365
  H -4.20498099  0.32942158 -0.96273780
  H -4.14061269 -0.88347905  0.32945876
