20
opt_min/./Reactant_406_1_opt.xyz
  C  2.92009300  0.01966500 -0.00126200
  O  1.79184366  0.80924662  0.30866411
  C  0.59566097  0.38865913 -0.16801541
  C -0.57053932  1.03725873 -0.15705150
  C -0.92853673  2.40070236  0.30551995
  C -1.56676489  0.00957172 -0.71441145
  C -1.70415880 -1.05762902  0.37663565
  C -0.54509084 -1.69514695  0.37201843
  C  0.26953910 -1.01179805 -0.73380408
  O -0.75245442 -0.67837954 -1.65576489
  H  3.77618510  0.56056552  0.39780351
  H  3.03552122 -0.10641511 -1.08107427
  H  2.86466041 -0.96465044  0.47410954
  H -1.20164203  3.03394060 -0.53914907
  H -0.08026325  2.84626043  0.81711797
  H -1.77880860  2.36083284  0.98517599
  H -2.47683284  0.39137345 -1.16683666
  H -2.56255866 -1.19559289  1.00084507
  H -0.18650359 -2.49615255  0.98523067
  H  1.06310009 -1.58270272 -1.20514313
