20
opt_min/./Reactant_3952_1_opt.xyz
  C  2.95551615 -1.10192873 -2.28566193
  N  1.85124202 -0.61055683 -1.49420899
  C  1.44099025  0.67870447 -1.58355817
  O  1.97289318  1.49168559 -2.30905685
  C  0.29144464  1.06934493 -0.71350613
  C -0.23313322  2.36573089 -0.90635688
  N -0.65541974  3.41823213 -1.07140205
  N -0.22630485  0.29732716  0.20990341
  N -1.20043458  0.56531859  1.01290653
  C -1.46268135 -0.51275616  1.84502259
  C -2.59193177 -0.26522753  2.78999836
  O -0.81877336 -1.54637431  1.75745556
  H  3.71863014 -1.53663567 -1.63885155
  H  2.61478063 -1.85574001 -2.99758015
  H  3.37464533 -0.25726036 -2.82884917
  H  1.36836052 -1.29805842 -0.93829372
  H  0.16703227 -0.66210358  0.36170477
  H -2.38008836 -0.71791238  3.75445228
  H -2.76382943  0.80178608  2.88295168
  H -3.48674222 -0.73670210  2.38500005
