19
opt_min/./Reactant_977_0_opt.xyz
  C -3.11382500 -1.22059900  1.10408500
  N -1.86935682 -0.68658332  0.61573925
  C -1.75004505  0.57920561  0.20521289
  O -2.63203406  1.41405788  0.21625839
  C -0.35754495  0.93313382 -0.28437025
  N -0.18532054  2.13095146 -0.66152578
  N -0.04867199  3.19891348 -0.99279685
  C  0.76117257 -0.02401676 -0.34532456
  O  0.66591505 -1.19173214  0.00809458
  N  1.92762751  0.48275231 -0.81023169
  C  3.10918070 -0.33345243 -0.96280677
  H -3.83405441 -0.40565006  1.17329605
  H -3.50561393 -1.97874346  0.42014218
  H -2.96765061 -1.66904367  2.08754942
  H -1.05275359 -1.29034022  0.54085873
  H  1.98865888  1.43354948 -1.13827628
  H  3.96906634  0.17496526 -0.52665235
  H  2.93526523 -1.27572363 -0.44583873
  H  3.30915490 -0.53661282 -2.01874071
