31
opt_min/./Reactant_2426_1_opt.xyz
  C  3.11949592  1.91395608 -0.87639093
  O  2.02430758  1.10773170 -0.46170475
  C  1.76382989  1.06450025  0.84941867
  O  2.36940180  1.66406851  1.68807846
  C  0.56099714  0.16138693  1.11679281
  C  0.88528874 -0.84012820  2.24582169
  C  0.18230551 -2.16681621  2.15785164
  O  1.62637331 -0.55314970  3.14235708
  C -0.00220917 -0.38559290 -0.08382251
  C -0.88486662 -0.62851386 -0.86412507
  C -2.00637249 -0.25085612 -1.66246859
 Cl -2.11665328 -1.11360651 -3.23595486
 Cl -3.50709487 -0.60793836 -0.73871186
  C -1.86932439  1.24857948 -1.92163266
  C -1.54012640  2.29256191 -0.79392512
  C -1.07316338  2.20852356  0.71531490
  C -0.65147879  1.01842045  1.60059635
  H  3.28523217  2.72302323 -0.16275695
  H  2.86593203  2.30810265 -1.85852510
  H  4.02249792  1.30328845 -0.93970628
  H -0.56042491 -2.19479320  1.36905337
  H  0.93023641 -2.93789125  1.97857659
  H -0.27906112 -2.38369499  3.11922982
  H -1.08288809  1.32951232 -2.67485829
  H -2.79969098  1.57603235 -2.38989738
  H -2.43826759  2.90328651 -0.73016189
  H -0.78026523  2.91674550 -1.26435405
  H -1.89469406  2.64439540  1.28844099
  H -0.25189936  2.92467467  0.78198604
  H -1.49358262  0.34028413  1.75743024
  H -0.37742456  1.45750020  2.56450790
