21
opt_min/./Reactant_2593_0_opt.xyz
  C -3.92346203  1.32546594  0.03024970
  N -2.81432385  0.40761375 -0.06681773
  C -2.92970876 -0.87777999  0.37203764
  O -3.93569121 -1.33314374  0.85895386
  N -1.81504978 -1.69890071  0.17667393
  O -0.65280396 -1.06749739  0.15787487
  C  0.46227757 -1.68794083 -0.08121457
  C  0.54506112 -3.05336160 -0.41354585
  N  0.63050560 -4.16581317 -0.68026281
  C  1.73496077 -0.89722070 -0.00278772
  O  2.80313999 -1.38382483 -0.29899942
  N  1.56392778  0.37693474  0.41433771
  C  2.67328085  1.28927920  0.54518747
  H -3.87858200  2.04742704 -0.78194912
  H -4.84891071  0.75300854 -0.03270684
  H -3.91105017  1.85166852  0.98850549
  H -1.98018674  0.71402712 -0.53928736
  H  0.64899741  0.70431686  0.68062770
  H  3.58754666  0.72251674  0.37734138
  H  2.68998686  1.72540428  1.54408544
  H  2.60670475  2.08894740 -0.19562923
