33
opt_min/./Reactant_2955_1_opt.xyz
  C -2.64506888  0.96151725  2.71110629
  O -1.36303460  1.14479873  2.14483034
  C -0.87588731  0.10195037  1.34785314
  O -0.90163498 -1.07045310  2.13716385
  C -0.09124353 -2.14889671  1.74093645
  C  0.44019169  0.48631733  0.86377277
  C  1.31358230  0.77661669  0.09601400
  C  2.08863059  0.86338656 -1.10626533
 Br  2.01136709  2.72596492 -1.78273245
  C  3.53592866  0.38408323 -0.94118887
  C  4.51437667  0.82492250 -1.98582575
  O  3.80925879 -0.35818173 -0.03566606
  C  1.35539125 -0.06212422 -2.10066792
  C -0.17288790  0.10232977 -2.19509872
  C -1.09722595 -0.68568196 -1.23379922
  C -1.70167761 -0.02424768  0.02286487
  H -3.43046516  0.97687305  1.94880394
  H -2.78151976  1.80523363  3.38437716
  H -2.69787123  0.02837630  3.27423656
  H  0.91681203 -1.81991778  1.47194547
  H -0.03823076 -2.80752159  2.60659966
  H -0.53294563 -2.69906401  0.90350123
  H  4.73562083  1.88361542 -1.85909624
  H  5.43507947  0.25678161 -1.87907286
  H  4.10236624  0.69057754 -2.98361891
  H  1.77317613  0.10940342 -3.09791153
  H  1.58925539 -1.09480280 -1.81810892
  H -0.44942140  1.15776887 -2.19335349
  H -0.40937567 -0.28968170 -3.18827351
  H -0.64634442 -1.64708123 -1.00339604
  H -1.98612989 -0.89262503 -1.84048760
  H -2.60622409 -0.57920152  0.28288842
  H -1.99842610  0.99506039 -0.24186321
