28
opt_min/./Reactant_5547_1_opt.xyz
  N -1.20338999 -1.66791701  3.76209800
  C -0.69887873 -1.16388716  2.85762884
  C -0.06542865 -0.57448091  1.75935632
  O -0.65327820 -0.80809068  0.59756385
  C -0.22559163 -0.54568544 -0.59678072
  C -1.02391031 -0.89288646 -1.72713046
  C -2.28882843 -1.48534093 -1.58468034
  C -3.03919360 -1.80458309 -2.69508846
  C -2.55278793 -1.54160435 -3.96877288
  C -1.30445925 -0.95619100 -4.12336679
  C -0.54370494 -0.63134664 -3.02091085
  C  1.14653267  0.19679800  1.98724062
  C  1.45604505  1.34146227  1.24348024
  C  2.60757927  2.05555343  1.51455139
  C  3.46635724  1.65483227  2.52418578
  C  3.15319666  0.53944872  3.28729824
  C  2.00677764 -0.18170795  3.02495151
  H  0.74883691 -0.09754147 -0.75198682
  H -2.66603286 -1.69040032 -0.59374259
  H -4.01003238 -2.26062595 -2.57407321
  H -3.14503010 -1.79207655 -4.83546283
  H -0.92496839 -0.75171616 -5.11400919
  H  0.42847482 -0.17682938 -3.14143234
  H  0.77669883  1.71095924  0.48929590
  H  2.83045460  2.93870782  0.93325220
  H  4.36728127  2.21447586  2.72465427
  H  3.80888219  0.23035249  4.08724109
  H  1.76199262 -1.04973043  3.61959110
