15
opt_min/./Reactant_308_1_opt.xyz
  C -1.49710376  1.31023398  1.67755986
  N -0.88597173  0.41986868  1.22766769
  C -0.14007505 -0.51942289  0.75818523
  C  0.10306164 -1.76990142  1.55191122
  C  0.50522535 -0.30995848 -0.50854979
  O  1.36512323 -1.00813809 -0.99939357
  O  0.05245911  0.83856583 -1.10736971
  C  0.65621382  1.16468905 -2.34796708
  H -1.96429272  2.13557219  2.12259882
  H -0.69331873 -2.49985704  1.39568022
  H  1.03911856 -2.20595286  1.21099679
  H  0.17137144 -1.55594340  2.61789836
  H  0.14161097  0.64992046 -3.16331191
  H  1.70522195  0.86280142 -2.34877110
  H  0.56562254  2.24257332 -2.47000886
