24
opt_min/./Reactant_2101_0_opt.xyz
  C  1.07631013  1.54760847  4.31698482
  O  0.68299973  0.82064163  3.16440821
  C  1.04477152  1.32540909  1.96873839
  O  1.68274332  2.35130373  1.84414911
  C  0.53643702  0.46554409  0.91879089
  N  0.71181809  0.66147693 -0.37272737
  C  1.54273861  1.76983165 -0.80652407
  C  0.16749248 -0.11379126 -1.33517772
  C  0.44287700  0.12844945 -2.68765995
  N  0.69635778  0.28129813 -3.79936447
  C -0.73096511 -1.23987410 -1.07751785
  O -1.08532261 -1.65274755  0.00612866
  O -1.14062476 -1.78397148 -2.23603231
  C -2.01999411 -2.89116136 -2.12446506
  H  1.98527555  2.11696958  4.11362953
  H  0.27777623  2.23483770  4.60561511
  H  1.24489756  0.82111566  5.10852575
  H -0.06615584 -0.36980071  1.23971988
  H  1.68153127  1.74063942 -1.88434052
  H  1.07483300  2.71211905 -0.52030833
  H  2.50880699  1.72497616 -0.30628403
  H -1.51738149 -3.73039310 -1.63896342
  H -2.30026797 -3.15093110 -3.14145574
  H -2.90056959 -2.62110060 -1.53748059
