21
opt_min/./Reactant_4373_0_opt.xyz
  C  1.33538464  0.57897213 -4.72080446
  O  1.22352050  0.02103708 -3.42540543
  C  2.06549172 -1.02014360 -3.12395271
  O  2.88055348 -1.46483196 -3.88495465
  N  1.84333846 -1.50538698 -1.87957442
  N  1.05469816 -0.99557692 -1.07873004
  C  0.43663647 -0.64581770 -0.15350710
  C -0.33634958 -0.15583671  0.90567485
  C -0.06148464  1.10260069  1.45477688
  C -0.81439879  1.56893290  2.51227779
  C -1.84241600  0.79955586  3.03694709
  C -2.12127702 -0.44496256  2.49282840
  C -1.37848330 -0.92598129  1.43332076
  H  1.92835757 -0.08185496 -5.35712484
  H  1.82376184  1.55381484 -4.65485396
  H  0.32685374  0.69504799 -5.11703900
  H  0.73888478  1.69910809  1.04173476
  H -0.59507757  2.54079307  2.93093592
  H -2.42516267  1.16622828  3.86852751
  H -2.92546360 -1.04309430  2.89580844
  H -1.58656327 -1.89267073  1.00087345
