17
opt_min/./Reactant_408_0_opt.xyz
  C -4.01992953 -0.60483765 -0.44670217
  N -2.75872315 -0.06428837 -0.00562179
  C -1.58144625 -0.62231774 -0.35792769
  O -1.43629439 -1.56528538 -1.09732290
  N -0.53198260  0.08529435  0.25581014
  N  0.63668193 -0.15649123  0.02670148
  C  1.79022468 -0.28275135 -0.12410370
  C  3.20161689 -0.37361133 -0.24533339
  C  3.92840067  0.61420509  0.63968702
  O  3.75119681 -1.15565005 -0.98462580
  H -4.44749062 -1.27822565  0.30188708
  H -3.84300871 -1.17168103 -1.36014419
  H -4.72134896  0.20431533 -0.64367609
  H -2.74998509  0.71074968  0.63669035
  H  3.52729346  0.59770214  1.65038383
  H  4.98714595  0.36741837  0.65242320
  H  3.80084798  1.61753467  0.23586498
