22
opt_min/./Reactant_1468_1_opt.xyz
  C  3.77988300 -0.28070200 -0.16878600
  O  2.38108390 -0.52004213 -0.04838438
  C  1.60250623  0.52890658  0.24022932
  O  1.98959189  1.65041888  0.42349299
  C  0.19430705  0.08559766  0.33331412
  C -0.95552577  0.75061724  0.49036333
  C -1.31663819  2.19379991  0.44464762
  F -1.67848617  2.66282585  1.64925113
  F -0.36816979  2.99564639 -0.02299305
  F -2.39073941  2.37002886 -0.35540910
  C -2.03658751 -0.34037123  0.59526193
  C -2.11537681 -0.92808327 -0.82043482
  C -0.98275498 -1.59576933 -0.96220025
  C -0.24087320 -1.39719582  0.36303136
  O -1.31867123 -1.34480023  1.27517991
  H  4.29741372 -0.99472386  0.47048523
  H  4.07511315 -0.43389448 -1.20672653
  H  4.01670917  0.73903326  0.13723542
  H -2.95844110 -0.05779726  1.09484912
  H -2.93987357 -0.79149075 -1.48777295
  H -0.59843922 -2.13744776 -1.80069639
  H  0.51178676 -2.12583484  0.64159613
