30
opt_min/./Reactant_1605_0_opt.xyz
  C  2.92159342  0.58731775 -2.77410091
  N  2.12542720  0.03805619 -1.70447224
  C  2.44925744 -1.14396762 -1.15827415
  O  3.33732617 -1.86090936 -1.59241751
  C  1.61649040 -1.67694083 -0.04507670
  C  2.10042052 -2.91003969  0.44773701
  N  2.45659375 -3.90398831  0.90093370
  N  0.43124126 -1.33197557  0.46499999
  C -0.34119698 -0.22055989  0.45789517
  C  0.28691155  1.10944366  0.63499291
  O  1.50746619  1.24631748  0.57447481
  N -0.55014979  2.11868598  0.91401477
  C -0.06936587  3.44981404  1.18029636
  C -1.78792572 -0.41536408  0.57413318
  O -2.59012883  0.47449258  0.84918189
  N -2.24805755 -1.66341224  0.27553984
  C -3.66925072 -1.93428986  0.33356165
  H  3.16455817 -0.20472535 -3.48271893
  H  3.85840313  0.99532051 -2.38579270
  H  2.36144890  1.37508822 -3.27057859
  H  1.42842645  0.62182968 -1.26996427
  H -0.02022060 -2.09817927  0.97900745
  H -1.53297892  1.90097934  1.07443525
  H  0.94870651  3.53152357  0.80124730
  H -0.06094642  3.65813506  2.25354427
  H -0.71272250  4.17514039  0.68389403
  H -1.66405048 -2.36883100 -0.13967464
  H -4.01855377 -1.85113421  1.36434994
  H -4.21774788 -1.20403060 -0.26449955
  H -3.86098570 -2.93502115 -0.04050425
