35
opt_min/./Reactant_2732_0_opt.xyz
  C -4.22555496  0.57213001  2.36594007
  N -3.08398722 -0.05464711  1.74152256
  C -2.03702853  0.69477699  1.31291699
  O -2.00967653  1.90969903  1.40686242
  C -0.94430469 -0.06912262  0.67165076
  O -0.04380828  0.70458420  0.13597944
  C  1.10754176  0.42273946 -0.42341000
  C  1.63211521 -0.87264975 -0.52712820
  N  2.12588338 -1.91066561 -0.61543697
  C  1.88268398  1.54737503 -0.92338837
  C  3.11139133  1.34350362 -1.55902569
  C  3.83575449  2.41981895 -2.02988763
  C  3.35284406  3.71056674 -1.87893464
  C  2.13520738  3.92063657 -1.24911855
  C  1.40183749  2.85324742 -0.77427418
  C -0.91547500 -1.53523316  0.60203796
  C -0.94497730 -2.30812191  1.76399648
  C -0.93348204 -3.68743454  1.68076049
  C -0.90349371 -4.31263440  0.44521552
  C -0.88658710 -3.55308767 -0.71304174
  C -0.89064109 -2.17395471 -0.63937121
  H -4.92936714 -0.19072433  2.68314442
  H -4.71316293  1.25441472  1.66648916
  H -3.90076155  1.15602383  3.22926202
  H -3.08264056 -1.04891838  1.59701854
  H  3.49072827  0.33926716 -1.67737799
  H  4.78375276  2.25170996 -2.51856629
  H  3.92345782  4.54821081 -2.24979365
  H  1.75583123  4.92457532 -1.12747870
  H  0.45651344  3.01947189 -0.27956987
  H -0.94855262 -1.81856588  2.72712980
  H -0.94049604 -4.27597118  2.58623255
  H -0.89033723 -5.38965534  0.38566263
  H -0.86458510 -4.03584641 -1.67757074
  H -0.88778996 -1.58576149 -1.54608853
