38
opt_min/./Reactant_2947_0_opt.xyz
  C -4.39148666  0.19639148 -1.00750427
  O -3.81880139 -0.87592468 -0.28204334
  C -2.92056024 -0.51142577  0.72098085
  O -3.61614038  0.27577689  1.67148847
  C -2.83262000  1.14568766  2.44640388
  C -1.76061193  0.21145009  0.10094368
  C -0.73279843  0.36189091 -0.53302703
  C  0.45310238 -0.23163036 -1.15066053
 Br  0.24508757  0.06310118 -3.13322069
  C  1.74359068  0.39529031 -0.70997531
  C  2.94207556  0.03677225 -1.31817002
  C  4.13616927  0.58092095 -0.88610082
  C  4.14772528  1.48870473  0.16047474
  C  2.95935675  1.85099091  0.76850974
  C  1.76155368  1.30974928  0.33565290
  C  0.49273354 -1.83894082 -0.89360118
  C -0.70535403 -2.04491533  0.01542804
  C -1.65260989 -2.97456782  0.76282796
  C -2.54818789 -1.88949342  1.45059265
  H -5.00079692  0.82595846 -0.35431411
  H -5.01534300 -0.26494710 -1.76913797
  H -3.61348612  0.80449864 -1.48180392
  H -2.28509298  1.85596564  1.81421835
  H -3.53027390  1.68396580  3.08458305
  H -2.11457232  0.60174765  3.07129299
  H  2.93575079 -0.66166077 -2.14284635
  H  5.05889048  0.29833831 -1.36998247
  H  5.08107658  1.91542306  0.49629626
  H  2.95944899  2.56129590  1.58225981
  H  0.83287367  1.59632251  0.80905335
  H  0.41467051 -2.36210123 -1.84385652
  H  1.45001328 -2.06908113 -0.42672167
  H -0.43666531 -1.36856047  0.83040749
  H -1.46956459 -1.62922840 -0.63808828
  H -2.23733402 -3.60508368  0.09590918
  H -1.19420349 -3.59562312  1.53328142
  H -3.53001151 -2.30473569  1.68045511
  H -2.07015556 -1.60101919  2.38759732
