27
opt_min/./Reactant_2016_0_opt.xyz
  C -3.08772800 -2.95159700  0.63299600
  N -1.84059962 -2.26114500  0.43697371
  C -1.78384897 -1.01375071 -0.11248373
  O -2.81867065 -0.40425461 -0.39056911
  C -0.45523607 -0.45943354 -0.30294735
  O  0.54121967 -1.26122942  0.12817875
  C  1.76610158 -1.03047775  0.42816249
  C  2.41486516  0.29650457  0.49204304
  C  2.55316887 -2.24258166  0.81289569
  C -0.21192610  0.75370116 -1.08275633
  O  0.86603145  0.97072769 -1.64384903
  N -1.26583668  1.59753632 -1.17962167
  C -1.25832468  2.69611261 -2.11330788
  H -3.88516968 -2.23201060  0.45335713
  H -3.20096472 -3.78659326 -0.06447602
  H -3.15496076 -3.32841434  1.65530356
  H -0.98709893 -2.77528756  0.57644879
  H  1.87199947  0.92748130  1.20073729
  H  2.34842362  0.81160078 -0.47223895
  H  3.45055693  0.19934752  0.80078457
  H  3.39467795 -2.38096560  0.13404182
  H  2.96089210 -2.12973265  1.81689337
  H  1.92739848 -3.13099458  0.77279521
  H -2.16582871  1.23088361 -0.87781094
  H -1.83201253  2.45506468 -3.01269666
  H -0.22367586  2.89105874 -2.39279147
  H -1.68609940  3.58219229 -1.64394585
