29
opt_min/./Reactant_3097_0_opt.xyz
  C -2.91561302 -2.39278312  1.62239079
  N -2.04729817 -1.42467886  1.00023602
  C -2.54230933 -0.33063376  0.34720401
  O -3.73296658 -0.12864016  0.23793428
  C -1.50394518  0.55771040 -0.20205237
  N -0.24472724  0.24110297 -0.13357243
  C  0.90439126  0.01365704 -0.10428867
  C  2.26062517 -0.26524245 -0.07951715
  C  2.72441154 -1.57372887  0.12215701
  C  4.07983373 -1.82439278  0.14470690
  C  4.98961740 -0.79201766 -0.03596604
  C  4.53373751  0.50201346 -0.24058341
  C  3.18383315  0.77794557 -0.26123570
  C -1.76953487  1.84683317 -0.84789542
  O -0.88275729  2.56330909 -1.26980075
  O -3.06905466  2.13686038 -0.91660537
  C -3.42363476  3.35526821 -1.54681178
  H -2.82587686 -3.36847759  1.13829086
  H -3.93595062 -2.02920479  1.50629386
  H -2.67990523 -2.49628096  2.68355833
  H -1.05389052 -1.56173934  1.08822684
  H  2.01445234 -2.37668240  0.25750318
  H  4.43149016 -2.83366645  0.29845086
  H  6.04845118 -0.99799028 -0.01828387
  H  5.24119371  1.30617073 -0.37994631
  H  2.81855690  1.78041149 -0.42177397
  H -3.64953086  3.17006390 -2.60043267
  H -4.31106077  3.72733964 -1.03799655
  H -2.59964904  4.06956594 -1.47596346
