28
opt_min/./Reactant_2768_0_opt.xyz
  C -3.74176700  2.35572300 -0.45994500
  N -2.93095620  1.21288846 -0.12052907
  C -1.58765198  1.27779959 -0.10219069
  O -0.95818135  2.30951490 -0.32076488
  C -0.88894609  0.02661406  0.28161058
  O  0.43925757 -0.06256253  0.19944288
  C  1.25917907  0.47553326 -0.63807571
  C  0.94375922  1.22271761 -1.87000784
  C  2.68562506  0.17193206 -0.35926899
  O  3.58893948  0.46407306 -1.10751694
  O  2.83949835 -0.43736626  0.82275266
  C  4.16611936 -0.77177824  1.20981394
  C -1.53368623 -1.06809131  0.97643427
  C -0.64680185 -2.13624493  1.56994946
  O -2.75461292 -1.16813216  1.04374965
  H -4.22873984  2.77104053  0.42589056
  H -4.50341265  2.06821449 -1.18479412
  H -3.09441675  3.11854960 -0.89145029
  H -3.39773260  0.38843879  0.24741306
  H  0.62196780  2.24316885 -1.63989797
  H  0.10868927  0.74777881 -2.38723170
  H  1.83332664  1.25442235 -2.49265485
  H  4.36215578 -1.81650047  0.96264378
  H  4.87898179 -0.13133156  0.68773519
  H  4.22969336 -0.62274048  2.28569034
  H -0.67498837 -2.02332580  2.65345747
  H -1.06171128 -3.11311946  1.33366095
  H  0.38114837 -2.06832413  1.23383837
