17
opt_min/./Reactant_3680_1_opt.xyz
  N  4.90352498 -0.86764396  2.20981006
  C  4.21136845 -0.74789853  1.29638892
  C  3.39353507 -0.60291174  0.18453677
  O  2.11323058 -0.45273017  0.35685730
  N  1.32761792 -0.32463539 -0.69933382
  C  0.00110989 -0.15932859 -0.41250430
  C -0.54286321 -0.10879989  0.88101840
  C -1.90010289  0.06013222  1.04893698
  C -2.73532974  0.18232413 -0.05272966
  C -2.20389049  0.13291266 -1.33355608
  C -0.84900314 -0.03583577 -1.52004975
  H  3.81880983 -0.61944624 -0.81197544
  H  0.10976288 -0.20393067  1.73657469
  H -2.30842080  0.09749975  2.04824970
  H -3.79709724  0.31613309  0.08944135
  H -2.85553626  0.22783650 -2.18940315
  H -0.42285629 -0.07696871 -2.50960708
