19
opt_min/./Reactant_4705_1_opt.xyz
  C  2.35513219 -1.95774869  0.10040199
  N  1.09194747 -1.27294777  0.02404970
  C  0.99835788  0.03632298 -0.22334526
  O  1.91672526  0.78456406 -0.49294173
  C -0.42358591  0.56059445 -0.14515069
  N -0.55955984  1.78331228 -0.51278180
  C -0.37491863  2.88177413 -0.90487170
  C -0.35100831  4.12908899 -1.38403056
  N -0.33818499  5.21337042 -1.78657081
  C -1.55924973 -0.19227733  0.34453690
  C -2.84714372  0.58757616  0.46837605
  O -1.50950547 -1.37966311  0.63096866
  H  2.50351733 -2.37515195  1.09774548
  H  3.14610248 -1.24035005 -0.11427922
  H  2.39093573 -2.76655302 -0.63191756
  H  0.22658221 -1.75958431  0.24915569
  H -3.54364994  0.03182075  1.09125005
  H -3.28900658  0.70552466 -0.52056251
  H -2.67488646  1.57343277  0.89263742
