19
opt_min/./Reactant_4721_1_opt.xyz
  C  2.93456504 -1.27473597 -0.74397292
  O  1.70199711 -0.64904099 -0.41170080
  C  0.87938441 -1.36493795  0.39058916
  O  1.16369050 -2.46752975  0.79269429
  C -0.38195376 -0.70707708  0.73793010
  C -1.20116220 -1.49948834  1.55984191
  N -1.86910646 -2.14761187  2.23555987
  N -0.80875071  0.51949077  0.37255444
  C -2.08549583  0.97994747  0.90181444
  C -0.16761055  1.36974359 -0.40884974
  C -0.68133226  2.62849348 -0.69595207
  N -1.07284382  3.68674513 -0.92567259
  H  3.59741007 -0.48303835 -1.08524791
  H  2.77797653 -2.00895864 -1.53706388
  H  3.34716600 -1.78003123  0.13030320
  H -1.91279808  1.73571727  1.67047170
  H -2.64075677  0.15357333  1.34006959
  H -2.67353113  1.43296598  0.10330140
  H  0.78422693  1.10618568 -0.83547483
