24
opt_min/./Reactant_907_0_opt.xyz
  C -4.23396200 -0.21345901  0.51370697
  N -2.79356446 -0.16238709  0.40190173
  C -2.19903554  0.33500365 -0.72256930
  O -2.82393541  0.68786655 -1.70249129
  C -0.71549302  0.36279966 -0.67782072
  C -0.00775557  1.32717101 -1.53356586
  N -0.08994099 -0.53677188  0.06000381
  C  1.25057486 -0.64109953  0.33022803
  C  1.70262277 -1.92061563  0.66208211
  N  2.04734039 -2.98929219  0.91840409
  C  2.09864640  0.51470398  0.49633621
  C  3.58284220  0.24776289  0.57058614
  O  1.63519462  1.64497948  0.60801576
  H -4.63015592  0.67109420  1.01759940
  H -4.52405653 -1.10523917  1.06668447
  H -4.64176166 -0.25341826 -0.49418550
  H -2.28351865 -0.15536643  1.27167361
  H  0.81209057  0.83004809 -2.05568289
  H  0.45479779  2.11811000 -0.92895908
  H -0.71375906  1.76127379 -2.23594039
  H -0.65615020 -1.30996257  0.40706260
  H  4.05771279  1.00084460  1.19322365
  H  3.79417896 -0.74599562  0.95387259
  H  4.00010833  0.32631775 -0.43304706
