29
opt_min/./Reactant_5471_1_opt.xyz
  C -4.20000300 -0.70449300  1.79279000
  N -3.20590362 -0.48073947  0.77129326
  C -2.05970378 -1.18130244  0.71303701
  O -1.77435981 -2.10265598  1.44135775
  C -1.12541915 -0.70011177 -0.43564382
  C -1.77418129 -1.03583837 -1.79672928
  N  0.19362288 -1.24397850 -0.28073650
  C  1.10265223 -0.19312181 -0.18088130
  C  0.40843668  0.96626981 -0.17963802
  C  0.83403951  2.37907232 -0.04067962
  O -0.93660541  0.71595591 -0.33002560
  C  2.52883294 -0.45641373 -0.10435829
  O  3.02302999 -1.55438194 -0.21759202
  O  3.23784702  0.67366561  0.09964545
  C  4.64886589  0.53814319  0.19076911
  H -3.94643111 -1.63672041  2.29414496
  H -4.20540443  0.10571933  2.52497940
  H -5.18916809 -0.78674752  1.34180891
  H -3.29807000  0.33945049  0.19450656
  H -1.01185291 -1.01933912 -2.57239480
  H -2.23023233 -2.02103520 -1.76337328
  H -2.53201094 -0.29726604 -2.04083645
  H  0.44391636 -2.19446650 -0.45753313
  H  1.55391938  2.63875267 -0.81386182
  H -0.03695266  3.02284538 -0.12342723
  H  1.31274514  2.53597944  0.92383588
  H  5.10671754  0.97484633 -0.69830510
  H  4.97910246  1.07518066  1.07881372
  H  4.91738152 -0.51761664  0.26200892
