16
opt_min/./Reactant_103_0_opt.xyz
  C -0.16728700  0.68594300 -2.18113600
  C -0.06537408  0.28656771 -0.91228028
  C -1.29954403 -0.12218996 -0.17691194
  C -1.38694733  0.33578483  1.25551280
  O -2.19098675 -0.72220253 -0.72527065
  C  1.28212993  0.25690418 -0.27061323
  C  1.54975592 -0.92063165  0.63098607
  O  2.10206362  1.11672179 -0.48063487
  H -1.11732219  0.68762415 -2.68954198
  H  0.69723063  1.01623584 -2.73274594
  H -1.02819725 -0.45094312  1.91568818
  H -0.79622089  1.23500207  1.41306502
  H -2.42712513  0.52568275  1.51303033
  H  2.60984883 -1.16006764  0.61956406
  H  0.96044310 -1.78233377  0.32672271
  H  1.28905234 -0.65982632  1.65585806
