32
opt_min/./Reactant_5753_1_opt.xyz
  C  5.68673393 -1.64852216  0.37453869
  O  4.42526559 -1.01020691  0.28763958
  C  3.35917454 -1.85616487  0.33516198
  O  3.44558043 -3.06315454  0.45505294
  C  2.15020760 -1.17566256  0.24793697
  N  1.07728427 -0.69214193  0.10043377
  C -0.09403177 -0.19919341 -0.07417544
  C -1.23168926 -1.12021377 -0.04946447
  C -1.18035391 -2.27491652  0.73477088
  C -2.24176273 -3.15934699  0.74821844
  C -3.36556606 -2.91264518 -0.02309979
  C -3.41657583 -1.78024227 -0.82007165
  C -2.36007379 -0.89119818 -0.83989524
  C -0.22499679  1.24150406 -0.26896646
  C  0.85316522  1.98506764 -0.76127175
  C  0.74263688  3.34976376 -0.93483425
  C -0.43771372  4.00219828 -0.61622780
  C -1.50488120  3.27817624 -0.10910188
  C -1.40290335  1.91247754  0.06851594
  H  5.72163622 -2.30910353  1.24313747
  H  6.42115185 -0.85312925  0.46948335
  H  5.87935882 -2.23824820 -0.52469732
  H -0.30635754 -2.46966214  1.33952550
  H -2.19198181 -4.04413734  1.36524460
  H -4.19407284 -3.60476592 -0.00947947
  H -4.28228112 -1.59269171 -1.43821299
  H -2.39068749 -0.02540147 -1.48477263
  H  1.77361900  1.47995281 -1.01689582
  H  1.58059908  3.90915688 -1.32371952
  H -0.52215376  5.06946632 -0.75502001
  H -2.42156385  3.78336154  0.15791395
  H -2.22827410  1.36107727  0.49340900
