31
opt_min/./Reactant_5386_1_opt.xyz
  C  0.03920900  3.85584400 -0.54412000
  N  0.29012241  2.46777758 -0.25078719
  C -0.66940594  1.51947148 -0.48785223
  O -1.75284546  1.86693803 -0.96681610
  C -0.28879963  0.15447531 -0.23095012
  N -1.09216044 -0.92665255 -0.47915675
  C -2.37895326 -1.19452047 -0.50964166
  C -2.74239922 -2.61532876 -0.82106681
  C -3.46266066 -0.24200178 -0.17045552
  C  1.10370173 -0.21769889  0.05665770
  C  1.78613565 -1.14055317 -0.74437278
  C  3.08701241 -1.50627844 -0.45884089
  C  3.74169908 -0.96587866  0.63579078
  C  3.07797030 -0.06076993  1.44790249
  C  1.77516778  0.30451149  1.16826047
  H -0.64135451  3.91981084 -1.39380069
  H  0.97494379  4.35712993 -0.78284083
  H -0.43320769  4.36009537  0.30525191
  H  1.21318728  2.19435126  0.03250367
  H -0.51978604 -1.76524470 -0.57748703
  H -2.64884813 -2.81989516 -1.88955332
  H -2.09496770 -3.31651070 -0.29152497
  H -3.77000565 -2.81475209 -0.53398138
  H -4.36670708 -0.48156186 -0.72529478
  H -3.69090276 -0.30574965  0.89543358
  H -3.16006484  0.77963933 -0.39565217
  H  1.30392334 -1.54479276 -1.62526529
  H  3.59762072 -2.21065325 -1.09969203
  H  4.75938093 -1.25110013  0.85626764
  H  3.57578708  0.35287512  2.31283166
  H  1.24980480  0.97513657  1.83336118
