28
opt_min/./Reactant_5417_0_opt.xyz
  C  2.54786347 -3.19355397  0.20656144
  N  1.47500476 -2.22263553  0.22361410
  C  1.66568658 -0.99619227 -0.32475535
  O  2.74288763 -0.71619956 -0.84018608
  C  0.52699057 -0.06087992 -0.30233623
  N -0.54678494 -0.36481993  0.41172287
  C -1.79928036  0.08812526  0.49537040
  C -2.42850431  1.08610570 -0.26622720
  N -3.14802126  1.78763014 -0.82656260
  C -2.57759568 -0.65415127  1.49412185
  C -4.02308726 -0.31195365  1.65045433
  O -1.99472081 -1.50931655  2.15732093
  C  0.57377021  1.27671460 -0.95299125
  O -0.33981717  2.07234175 -0.77745531
  N  1.67418952  1.55191299 -1.66790189
  C  1.84663205  2.81340262 -2.34219778
  H  2.28058384 -4.03515608  0.83914306
  H  3.46231155 -2.72767863  0.57531101
  H  2.73619489 -3.54315544 -0.81150110
  H  0.57977211 -2.54083069  0.55399182
  H -0.47313345 -1.12324968  1.12110895
  H -4.52673025 -0.37160327  0.68659904
  H -4.12170553  0.71245793  2.00632318
  H -4.48588544 -0.99373684  2.36008291
  H  2.44128674  0.88448386 -1.66765305
  H  0.97332479  3.43157962 -2.13787220
  H  2.74400170  3.31934074 -1.98196385
  H  1.93528149  2.65425568 -3.41890510
