43
opt_min/./Reactant_2152_0_opt.xyz
  C -2.38851780 -0.04120235  2.16076747
  O -2.66349469  1.00247919  1.26090889
  C -1.79133387  1.12868535  0.15395608
  O -1.98406620  2.40127767 -0.40678880
  C -3.32313673  2.79233824 -0.63220201
  C -0.37446199  1.00735602  0.45338997
  C  0.75910610  0.64177490  0.31237795
  C  1.94351037  0.06115719 -0.27338663
  C  3.15510315  0.99731052 -0.22294799
  C  2.92047450  2.29383167  0.49761069
  O  4.20073880  0.72390575 -0.75559171
  C  2.22159035 -1.30749453  0.33996073
  C  3.50600546 -1.79944176  0.52743737
  C  3.70602464 -3.05432995  1.07733371
  C  2.62925999 -3.84243590  1.44053440
  C  1.34442586 -3.36244929  1.25337167
  C  1.14362894 -2.10736745  0.70898475
  C  1.57797756 -0.06611839 -1.78337747
  C  0.24594621 -0.71043970 -2.21246653
  C -1.11974721  0.02014003 -2.13993484
  C -2.01317916 -0.01096534 -0.88548656
  H -1.32325347 -0.08038393  2.41267105
  H -2.96731771  0.17786405  3.05649012
  H -2.70020059 -1.01377723  1.76367569
  H -3.79197345  2.19423924 -1.42030834
  H -3.91355665  2.71449819  0.28224308
  H -3.26642740  3.83018160 -0.94953246
  H  2.10726358  2.83304648  0.01458384
  H  3.82489429  2.89707507  0.48805358
  H  2.61519231  2.09509410  1.52326474
  H  4.36367922 -1.21211395  0.23971592
  H  4.71373172 -3.41576837  1.22066939
  H  2.78873238 -4.82287662  1.86429432
  H  0.49313135 -3.96572360  1.53301831
  H  0.13956982 -1.73195362  0.58664785
  H  1.63000624  0.92939573 -2.23164562
  H  2.37307532 -0.66967194 -2.23043469
  H  0.39366868 -0.84567696 -3.28981709
  H  0.15478214 -1.70959764 -1.78306154
  H -1.71610610 -0.49799397 -2.89772915
  H -1.00445272  1.05314314 -2.47379710
  H -1.91921660 -0.97624910 -0.38668895
  H -3.05138955  0.08342502 -1.21586614
