17
opt_min/./Reactant_3730_1_opt.xyz
  N  3.54801400 -1.33449401  0.34434300
  C  2.69377268 -0.68799795 -0.06728074
  C  1.63871297  0.09144845 -0.59420079
  N  1.99677144  0.95484394 -1.51980754
  O  1.30008697  1.75974547 -2.16828868
  C  0.28840576 -0.12723204 -0.09389223
  C  0.07870084 -1.06146331  0.92834583
  C -1.19138423 -1.28609175  1.41527683
  C -2.27614069 -0.59150801  0.89975416
  C -2.07575766  0.33573833 -0.11012780
  C -0.80769212  0.57131581 -0.60692691
  H  3.01319464  0.95245357 -1.72705129
  H  0.91969551 -1.60434601  1.33322785
  H -1.34585966 -2.00829295  2.20423766
  H -3.26696133 -0.77390502  1.28548293
  H -2.91446698  0.88149205 -0.51613424
  H -0.66864371  1.29813143 -1.39095758
