21
opt_min/./Reactant_4061_0_opt.xyz
  C  2.60795000  1.28585300  0.57981600
  N  1.19563704  1.16504759  0.43426928
  N  0.69126020  0.09801693 -0.04769005
  C  1.56693260 -0.96156732 -0.56957755
  C -0.64513995 -0.07890626 -0.04487009
  C -1.25571309 -1.14709653 -0.90642803
  C -1.44245493  0.71999620  0.85768928
  C -2.92207535  0.36997911  0.95482137
  O -0.98522298  1.59699767  1.57309634
  H  2.77623651  2.22546128  1.10072902
  H  3.12150115  1.33516860 -0.39206749
  H  3.05653201  0.47451261  1.16307805
  H  2.13310840 -1.38197625  0.26226664
  H  2.26586284 -0.53155305 -1.28622543
  H  0.99799545 -1.74727512 -1.04721557
  H -2.31694295 -0.95781510 -1.02299792
  H -0.81605982 -1.13397985 -1.90430679
  H -1.15066223 -2.15002770 -0.48573909
  H -3.42764899  0.61591643  0.02337685
  H -3.35450111  0.96642021  1.75335770
  H -3.06666311 -0.68421267  1.17767720
