15
opt_min/./Reactant_4850_1_opt.xyz
  C  2.09547917 -1.48811817 -0.28250633
  N  0.72945728 -1.03817331 -0.17151742
  C  0.42014384  0.26057541  0.06497196
  O  1.24938553  1.13830393  0.19741360
  C -1.02690059  0.56421812  0.17317296
  C -1.41327108  1.97934104  0.50093394
  N -1.91058166 -0.31717278 -0.00241710
  N -2.66973098 -1.14350883 -0.17510079
  H  2.27746626 -1.92902517 -1.26497065
  H  2.32512417 -2.22165561  0.49205131
  H  2.73780965 -0.61669994 -0.15577908
  H  0.00379786 -1.73363927 -0.24181362
  H -2.39135826  2.21769000  0.08807058
  H -0.65727199  2.64179954  0.08312370
  H -1.43354929  2.13245216  1.58142517
