30
opt_min/./Reactant_5637_0_opt.xyz
  C  3.28216489  1.19806776  2.40060586
  N  1.97149730  1.55165896  1.91214411
  C  1.77948019  2.53935737  1.00270300
  O  2.66438102  3.26769082  0.60494121
  C  0.35535350  2.66476235  0.56442442
  C -0.21222990  3.93817025  0.57006864
  N -0.65255064  5.00199919  0.58594542
  O -0.43194445  1.65049135  0.24474118
  C -0.07488953  0.41260004  0.01845733
  C  1.34287836  0.03296513 -0.26070290
  C  1.98725060  0.85077475 -1.35276406
  O  1.87724250 -0.92986988  0.24260851
  C -1.13918087 -0.56083350 -0.09574623
  C -2.47384371 -0.14944406  0.06096564
  C -3.50350488 -1.05892043 -0.04544630
  C -3.23272646 -2.39513276 -0.30234843
  C -1.91976211 -2.81353576 -0.45249701
  C -0.87933515 -1.91247850 -0.35609783
  H  3.53434004  0.18333598  2.08397571
  H  3.31501288  1.25985364  3.48817645
  H  3.99448727  1.90417137  1.97828029
  H  1.19465651  1.02140220  2.27459490
  H  2.18047971  0.17660805 -2.18731147
  H  1.36170584  1.67153592 -1.69531712
  H  2.94928138  1.24950440 -1.03412468
  H -2.69050041  0.88830362  0.26357789
  H -4.52267869 -0.72412164  0.07606661
  H -4.03806032 -3.10909323 -0.38420900
  H -1.70531238 -3.85318288 -0.64938857
  H  0.13906855 -2.24766967 -0.46799976
