26
opt_min/./Reactant_2675_1_opt.xyz
  F -3.24019481  1.01061034  0.70184840
  C -2.54423357  0.23519168 -0.12508423
  F -2.58447144 -1.00367596  0.38259906
  F -3.20629840  0.19072088 -1.28616994
  C -1.08910502  0.69763471 -0.30943648
  C -1.05482952  2.11633112 -0.90502591
  F -1.46855328  2.12793117 -2.17687626
  F  0.18255971  2.61963223 -0.90491475
  F -1.81765733  2.97857577 -0.23736110
  C -0.37558868  0.63290483  0.94928663
  C  0.53953269  0.23748012  1.61910400
  C  1.66026338 -0.51701109  2.09172766
 Cl  1.45794129 -1.06042993  3.79004045
 Cl  3.15904439  0.44793781  1.98799386
  C  1.70659060 -1.72618257  1.14276098
  C  1.95786374 -1.39935483 -0.34978560
  C  1.22345182 -0.25596932 -1.08041095
  C -0.31509284 -0.32432856 -1.20772844
  H  0.75278727 -2.24670517  1.24755189
  H  2.50718912 -2.39316667  1.46320027
  H  3.01564494 -1.14682952 -0.44864095
  H  1.78197391 -2.32745483 -0.89459247
  H  1.62919649 -0.25843341 -2.09529803
  H  1.52903495  0.69212735 -0.64518175
  H -0.60329740 -0.16121896 -2.24914646
  H -0.66693782 -1.32285786 -0.94142081
