20
opt_min/./Reactant_4172_0_opt.xyz
  C  0.53870700  3.19319000 -0.04059500
  O -0.33419081  2.29372889  0.14119594
  C -0.25980234  0.96869542  0.11923481
  C  1.02379566  0.28857004 -0.13278053
  O  2.04481219  0.93088793 -0.36321270
  N  1.02711669 -1.06347436 -0.10898748
  C  2.23652925 -1.81441521 -0.34258417
  C -1.57667430  0.39707524  0.38530331
  O -2.56798131  1.06904456  0.56255919
  O -1.61002021 -0.96237641  0.42887227
  C -2.88280667 -1.54925054  0.67298932
  H  1.57861944  2.98803096 -0.26047805
  H  0.16898013  4.20390497  0.05007090
  H  0.17627857 -1.56636309  0.08322059
  H  2.68451285 -2.14190914  0.60051540
  H  2.94739567 -1.16710566 -0.85609476
  H  2.01791756 -2.68627471 -0.95802032
  H -3.42850398 -1.66117159 -0.26694982
  H -3.46198850 -0.91749889  1.34908604
  H -2.69584898 -2.52453337  1.11885142
