33
opt_min/./Reactant_2750_0_opt.xyz
  C  3.92971177  0.02821265 -2.33448317
  O  3.09163218  0.51926623 -1.29542994
  C  2.58406777 -0.37394362 -0.46329417
  O  2.77274738 -1.55557006 -0.49917991
  C  1.67921321  0.32304378  0.58237538
  C  2.44206010  1.37635154  1.21645534
  N  3.07237592  2.16147933  1.75443627
  C  0.50234690  0.82479392 -0.08928005
  C -0.67690014  0.84205912 -0.30068245
  C -2.11238013  0.64997757 -0.20494719
  C -2.57200943 -0.21746939 -1.39334974
  F -2.03080925  0.20298474 -2.54251459
  F -2.20837748 -1.49716720 -1.25125375
  F -3.89517490 -0.23220061 -1.57181533
  C -2.81625165  2.02040555 -0.27491421
  F -4.14128699  1.94571231 -0.42168140
  F -2.60521541  2.73001050  0.84228256
  F -2.35398467  2.75768847 -1.28964659
  C -2.28808992  0.00257465  1.18632507
  C -1.50202244 -1.29391240  1.51916667
  C -0.04274016 -1.56169650  1.09145176
  C  1.11303336 -0.68459343  1.62759600
  H  4.74443973 -0.56335451 -1.91112907
  H  3.35187543 -0.59682285 -3.01905897
  H  4.31540485  0.90524259 -2.84860704
  H -2.00707206  0.76778524  1.91283665
  H -3.34710073 -0.23225562  1.34435541
  H -1.56489739 -1.37970146  2.60633181
  H -2.06073493 -2.12871198  1.08851678
  H  0.14987628 -2.57295115  1.46082679
  H  0.02187591 -1.63440499  0.00742135
  H  1.93057344 -1.34798294  1.91089330
  H  0.80244050 -0.14002048  2.51993967
