33
opt_min/./Reactant_5949_1_opt.xyz
  C -3.34799709  2.08610353 -2.70838045
  N -2.29688881  1.51493739 -1.89800053
  C -2.40086363  0.25412309 -1.42524352
  O -3.34030457 -0.49159602 -1.70020228
  C -1.33369990 -0.22863377 -0.53963813
  N -1.61121079 -1.44558566 -0.07726550
  C -0.95251948 -2.30962967  0.69154524
  C -1.57576234 -3.49415868  1.07676310
  N -2.07149654 -4.49589697  1.35625490
  C  0.46662919 -2.09360745  1.14361801
  O  0.80254340 -2.09358654  2.30683435
  N  1.32771342 -1.95305661  0.10915593
  C  2.73381376 -1.70544241  0.31046173
  C -0.17844468  0.56855352 -0.13066042
  C  0.08549895  0.78581482  1.22325097
  C  1.16668234  1.55224544  1.61105107
  C  1.99832546  2.12147313  0.65897765
  C  1.73926551  1.92354541 -0.68713589
  C  0.66141566  1.15370282 -1.08265163
  H -3.52866313  1.44890271 -3.57563405
  H -3.05075990  3.07751855 -3.03743894
  H -4.28112688  2.14892819 -2.14217658
  H -1.57232804  2.11482172 -1.53976197
  H -2.54176902 -1.72792117 -0.44203999
  H  0.98196896 -1.95909809 -0.83778360
  H  3.32355543 -2.35151490 -0.33859591
  H  2.96035234 -1.92601702  1.35234462
  H  2.98294936 -0.65968098  0.11013724
  H -0.56528892  0.36037451  1.97207574
  H  1.36007053  1.70549154  2.66131914
  H  2.84535401  2.71767001  0.96529490
  H  2.38443274  2.36542498 -1.43270771
  H  0.47540914  0.97877893 -2.13313387
