20
opt_min/./Reactant_239_1_opt.xyz
  C  4.45431423  0.73621300 -1.74124222
  C  4.38837915 -4.89422832 -8.16649155
  O  2.67622850  11.58911952  5.43206690
  N  1.69231538  14.27482002 -4.93351190
  N -5.42711091 -6.45882312  5.76093824
  C  5.51564371 -7.94951018 -4.90800657
  C -14.42630420  11.55009138 -6.54174383
  C -7.26576986  8.04090987 -16.88274997
  C  2.02639543 -10.13522836 -3.16512843
  C  17.89654218  0.28428579  16.29512630
  C -0.69448606 -7.04072326  19.92075303
  C -10.44096927 -4.90862248 -6.39600238
  H  7.81512134  6.71828591 -1.14483557
  H  14.81332131 -6.93750884  3.95430642
  H -0.89706321  7.07126159 -2.24116904
  H -8.38799698  0.20717641 -13.74477374
  H -3.57298365  1.08991519  0.13623467
  H -14.26051685  6.50433838  38.33831149
  H  12.53626367 -9.99975066  18.63008781
  H -8.68921612  0.64700707 -5.34643086
