38
opt_min/./Reactant_3027_0_opt.xyz
  C -2.42208621  3.02368226 -1.64306306
  N -1.74659596  1.91060273 -1.02478529
  C -2.33277862  1.12232282 -0.10495304
  O -3.49390740  1.24930758  0.23339434
  C -1.40755118  0.05759446  0.50428088
  C -2.19399433 -1.19342448  0.96919609
  O -1.89765596 -1.80299512  1.97209357
  N -3.16563878 -1.57597904  0.12342458
  C -3.98883025 -2.73314397  0.38116156
  C -0.33702798 -0.35726342 -0.36760578
  C  0.74938907 -0.55972265 -0.84278408
  C  2.17002329 -0.30944248 -0.96132486
 Cl  2.42348054  0.67296455 -2.51542819
  O  2.87065930 -1.48177332 -1.03256177
  C  4.28238667 -1.39085882 -1.04834394
  C  2.50695779  0.62839828  0.22480460
  C  1.49310533  1.77883322  0.40969645
  C  0.41580672  1.74062971  1.51657506
  C -0.62988684  0.62454907  1.71817430
  H -2.33745994  2.96402012 -2.72948893
  H -1.99811342  3.97115267 -1.30130191
  H -3.47246475  2.97773181 -1.35781649
  H -0.79537213  1.71381807 -1.29885277
  H -3.42932545 -0.97993251 -0.64435552
  H -3.74788895 -3.53837468 -0.31762783
  H -5.04356967 -2.47457689  0.28532935
  H -3.78259045 -3.07088859  1.39620833
  H  4.62075745 -0.76353448 -1.87882710
  H  4.63734631 -2.41084070 -1.18697757
  H  4.67347462 -0.99406427 -0.10762559
  H  3.48518580  1.07920625  0.05075982
  H  2.57600516  0.01867472  1.12752100
  H  1.04460846  1.99481489 -0.56021204
  H  2.08052342  2.66885791  0.65853892
  H -0.13531775  2.67870694  1.39007686
  H  0.93927861  1.79467289  2.47552673
  H -0.16712250 -0.23989678  2.20111709
  H -1.36476218  1.03129635  2.42144177
