24
opt_min/./Reactant_4022_1_opt.xyz
  C -4.09095668  0.01402351 -0.97578785
  C -2.58484771  0.18169777 -1.01907230
  O -2.05329199  0.97303561 -1.79130198
  C -1.84166263 -0.62938110 -0.09819080
  C -2.42523006 -1.67703198  0.80511987
  N -0.56921009 -0.38540764  0.01169677
  C  0.57161333 -0.11005303  0.02426089
  C  1.91737787  0.21891811  0.07826677
  C  2.63132152  0.45393446 -1.10810158
  C  3.96700597  0.78974990 -1.04878855
  C  4.61418910  0.89295696  0.17552938
  C  3.91463355  0.65926994  1.35030916
  C  2.57806465  0.32641720  1.31339378
  H -4.36757516 -0.85904912 -1.56792682
  H -4.54770434  0.89100551 -1.42923725
  H -4.46522005 -0.11546529  0.03501554
  H -2.96150130 -1.23472409  1.64734962
  H -1.62610018 -2.30390888  1.19555991
  H -3.11919639 -2.30725308  0.25156708
  H  2.12138620  0.37397548 -2.05600655
  H  4.51730498  0.96319980 -1.96130937
  H  5.65993695  1.15663425  0.21102348
  H  4.41637670  0.75172484  2.30256719
  H  2.02273809  0.14821211  2.22233020
