10
opt_min/./Reactant_4159_1_opt.xyz
  O  2.88813886 -0.84774212  0.48997444
  C  2.68168451 -0.14624343 -0.38986447
  O  2.49208086  0.54764862 -1.27844381
  C -0.31413684 -0.29709900  0.46454418
  C -0.73310310  0.41968949 -0.39372385
  C -3.79772161  0.43158427  0.24994271
  O -3.66462584 -0.25930730  1.15124543
  O -3.94723495  1.13751279 -0.63824456
  H  0.04780376 -0.92551744  1.22419457
  H -1.09294288  1.05056694 -1.15241432
