36
opt_min/./Reactant_5761_0_opt.xyz
  C  0.37963600  3.49993200  0.63390900
  O  0.36883655  2.17929370  0.12169611
  C -0.62921928  1.37293976  0.56486231
  O -1.51979329  1.78316956  1.27444391
  C -0.60559120  0.04444709 -0.03564987
  C -1.84346872 -0.73546140  0.04235233
  C -3.09486273 -0.14509001 -0.13577155
  C -4.24715184 -0.89893519 -0.01807530
  C -4.17242289 -2.25003307  0.27794804
  C -2.93594302 -2.84578184  0.46666173
  C -1.78096425 -2.09825683  0.35089505
  N  0.46048358 -0.43718724 -0.70266233
  C  0.21145184 -1.33486360 -1.82431868
  C  1.73292675 -0.11533676 -0.41033424
  C  2.83368710 -0.35442937 -1.39895378
  C  2.07339644  0.22670656  0.95429543
  O  1.30885602  0.23278577  1.90046213
  O  3.40201097  0.46717412  1.11438363
  C  3.80352944  0.74746666  2.44299254
  H -0.20156646  4.15825605 -0.01683507
  H -0.05051806  3.51275521  1.63723133
  H  1.42019057  3.81950937  0.65480562
  H -3.15603827  0.90685792 -0.36479184
  H -5.20988204 -0.43038927 -0.15993916
  H -5.07631582 -2.83428067  0.37053462
  H -2.87429944 -3.89496425  0.71754008
  H -0.82062637 -2.55557068  0.53881762
  H  0.45378143 -2.36365020 -1.55826365
  H -0.83743933 -1.28003126 -2.10507480
  H  0.82309782 -1.04089029 -2.67367255
  H  3.03202963 -1.41929914 -1.53954952
  H  3.74271319  0.11052797 -1.03351495
  H  2.59364158  0.08699472 -2.36646758
  H  3.21846397  1.57424593  2.85255634
  H  3.65782420 -0.12862641  3.07949525
  H  4.85736848  1.00979663  2.39182461
