7
opt_min/./Reactant_3347_0_opt.xyz
  C -0.84515574 -0.03946892 -0.08857278
  N  7.37906699 -12.17200946  10.90961830
  N  15.96851298 -16.68953049  10.39863190
  N -1.71720454 -5.64272704  5.28364402
  H  0.98303027  4.22802616  1.13170541
  H  4.85141125 -3.34627198  1.19698831
  H  3.78648893  3.54045979  4.84805282
