27
opt_min/./Reactant_1140_1_opt.xyz
  N -2.14974200  5.44978900  0.89586500
  C -1.71459871  4.38462089  0.72599263
  C -1.21629289  3.17198786  0.52608097
  N -0.76533522  2.08425828  0.35244866
  C -0.28557650  0.91204994  0.19444189
  C -1.23039899 -0.23924000  0.23525677
  C -1.86128015 -0.64888760 -0.93274137
  C -2.72038377 -1.73230820 -0.90257818
  C -2.95524728 -2.41037553  0.28287029
  C -2.32759247 -1.99370378  1.44354899
  C -1.46753075 -0.90847304  1.42853478
  C  1.13528915  0.69980108 -0.01566566
  C  1.98457696  1.78161112 -0.27003349
  C  3.33564620  1.57170292 -0.46789503
  C  3.85145837  0.28717279 -0.41838847
  C  3.01556625 -0.78971311 -0.17404143
  C  1.66214513 -0.59345909  0.02544691
  H -1.67386807 -0.12081060 -1.85540315
  H -3.20958028 -2.04829599 -1.81242214
  H -3.62366236 -3.25607469  0.30049571
  H -2.50347147 -2.51289195  2.37432289
  H -0.97976186 -0.57844834  2.33390435
  H  1.58143025  2.78297728 -0.31430773
  H  3.97999551  2.41389861 -0.66565943
  H  4.90712552  0.11956640 -0.57340023
  H  3.41100653 -1.79316106 -0.13475899
  H  1.01113330 -1.43370858  0.21206385
