26
opt_min/./Reactant_4521_1_opt.xyz
  C  4.56708882 -0.60580221  1.60895586
  C  3.56821971 -1.75778630  1.61507837
  O  3.81124737 -2.87587438  2.01818217
  C  2.37089320 -1.29278413  1.07079716
  N  1.39492471 -0.77919921  0.64974756
  C  0.52513032  0.05291138  0.17910117
  C  1.04628331  1.40068061 -0.05386092
  C  0.17831812  2.36240570 -0.82424033
  O  2.16359740  1.70881485  0.32892445
  C -0.82095539 -0.44233653 -0.11211886
  C -1.95599467  0.31398810  0.17929434
  C -3.21627189 -0.18492232 -0.09077302
  C -3.36515661 -1.44485030 -0.64609654
  C -2.24421560 -2.21177846 -0.91935621
  C -0.98149367 -1.71833781 -0.65289463
  H  5.38374751 -0.86346406  0.93735959
  H  4.10978658  0.32784017  1.29066752
  H  4.97108721 -0.49955498  2.61367895
  H -0.34155539  3.01580296 -0.12490500
  H  0.82232560  2.98963268 -1.43718175
  H -0.54761435  1.84720299 -1.44565441
  H -1.84785058  1.28171309  0.64354892
  H -4.08693173  0.41069246  0.14141516
  H -4.34989645 -1.83302389 -0.85826272
  H -2.35690013 -3.19840078 -1.34355699
  H -0.11133880 -2.32024911 -0.87309369
