22
opt_min/./Reactant_3476_1_opt.xyz
  C  3.93147019 -0.87620150 -0.73089154
  C  2.43124271 -0.70873115 -0.79914746
  O  1.73525675 -1.27958209 -1.62095690
  C  1.87819347  0.18454866  0.19984040
  C  2.64097030  0.87664370  1.14124632
  N  3.27316165  1.43559359  1.92233124
  N  0.57830880  0.36415353  0.21969649
  C -0.58125125  0.41183130  0.09066757
  C -1.96914320  0.50221126 -0.05317099
  C -2.80791709 -0.41049902  0.59884507
  C -4.17559760 -0.31901717  0.43157735
  C -4.71478517  0.67208894 -0.37380525
  C -3.88737943  1.57884313 -1.02128867
  C -2.51792278  1.50184021 -0.86777724
  H  4.14886138 -1.80422687 -0.20217458
  H  4.40913049 -0.05317850 -0.20599805
  H  4.32341426 -0.96373823 -1.74070513
  H -2.37975017 -1.17891020  1.22326220
  H -4.82441627 -1.02162383  0.93147788
  H -5.78477227  0.74241193 -0.50227801
  H -4.31600383  2.34707467 -1.64993735
  H -1.86620334  2.20077273 -1.37021803
