20
opt_min/./Reactant_2515_0_opt.xyz
  C  4.63303658  0.76362984  0.42739118
  O  3.32741613  0.22706388  0.28178279
  C  2.33847629  1.13101806  0.09840674
  O  2.48648812  2.32760337  0.01797745
  C  1.08615902  0.50112006 -0.01773796
  N -0.00391077  0.05506199 -0.05361007
  C -1.22364575 -0.35774825 -0.02013862
  C -1.40313799 -1.84075999  0.13729630
  C -2.24423883  0.66507287 -0.19485073
  C -3.69931580  0.26864488 -0.11370902
  O -1.93560878  1.82733124 -0.39991681
  H  4.82832784  0.99392486  1.47707816
  H  5.32327735 -0.00249288  0.08137101
  H  4.73997465  1.67512362 -0.16347475
  H -0.73020266 -2.21480927  0.90606224
  H -1.16748175 -2.35324389 -0.79735244
  H -2.41826442 -2.09643946  0.41746632
  H -4.17536760  0.51594095 -1.05912043
  H -3.86898732 -0.77716534  0.11413462
  H -4.16761438  0.88171611  0.65470650
