18
opt_min/./Reactant_4199_0_opt.xyz
  C  2.79901299  0.50865200 -0.64422402
  N  1.40975546  0.39874617 -0.25689500
  C  0.84215773 -0.82598950 -0.08235937
  O  1.49648450 -1.84650744 -0.21809718
  C -0.58377603 -0.94271988  0.29977384
  C -0.99126572 -2.28959539  0.41545668
  N -1.34914748 -3.37671474  0.51466755
  N -1.53940784 -0.02886715  0.53542082
  C -1.30361669  1.40234925  0.47533578
  N -2.74913566 -0.28084131  0.84364225
  H  2.89535372  0.64360444 -1.72397675
  H  3.30136507 -0.41487590 -0.36034498
  H  3.25750943  1.35143042 -0.12913271
  H  0.89125137  1.25211112 -0.17596246
  H -2.24942735  1.87441782  0.74203502
  H -0.54470877  1.70974360  1.19495654
  H -1.03072846  1.70972342 -0.53545008
  H -2.94344670 -1.28230434  0.88758128
