19
opt_min/./Reactant_591_0_opt.xyz
  C -2.23774200 -0.74661600  0.75788500
  C -1.38974854  0.29977775  0.11349748
  N -1.98943061  1.32928412 -0.41293316
  O -3.22289457  1.57982127 -0.43780339
  C  0.06183527  0.19917326  0.05693638
  C  0.68732006 -1.04802991  0.11508258
  C  2.06342591 -1.15403673  0.05530410
  C  2.85015877 -0.01956770 -0.05405008
  C  2.24678910  1.22667959 -0.08871042
  C  0.87247265  1.34085082 -0.02858318
  H -2.13354305 -1.71261700  0.26855452
  H -1.96614487 -0.86277405  1.80840830
  H -3.27484493 -0.42140707  0.69216573
  H -1.38070891  2.01411493 -0.89121767
  H  0.09138759 -1.94343931  0.19117835
  H  2.52631233 -2.12912489  0.09482392
  H  3.92481245 -0.10676281 -0.10072758
  H  2.85366925  2.11824559 -0.15450023
  H  0.42954757  2.32585107 -0.01034403
