11
opt_min/./Reactant_1029_1_opt.xyz
  C -1.91750909  0.36149462  1.37082196
  N -0.77687961  0.12947920  1.26907108
  C  0.47388209 -0.10437331  1.11992191
  C  1.12195830 -0.14976421 -0.16230252
  C  0.23439986  0.12958487 -1.36157170
  O  2.31125941 -0.38989008 -0.27405853
  H -2.93110470  0.59099676  1.46869544
  H  1.05786499 -0.29721585  2.00392016
  H -0.30556375  1.06579189 -1.23850097
  H  0.84773046  0.17985078 -2.25578063
  H -0.49131777 -0.67359719 -1.47285531
