32
opt_min/./Reactant_1918_0_opt.xyz
  C  4.09105700 -0.32051800 -1.45554100
  N  3.38876635  0.38879051 -0.41619407
  C  2.12330245  0.85131415 -0.60247533
  O  1.55983353  0.82384572 -1.68407722
  C  1.56160883  1.55191210  0.55911149
  N  0.25343223  1.65882559  0.73960420
  C -0.71073128  0.86065392  0.25439597
  C -0.38290232 -0.53194841 -0.06442193
  O  0.71026540 -1.02297463  0.19334052
  N -1.41340778 -1.28965799 -0.52896626
  C -1.25942654 -2.69119736 -0.81992541
  C -2.09197280  1.33669182  0.39843154
  C -2.54352880  1.85969530  1.61292723
  C -3.83978539  2.31937059  1.74622021
  C -4.71158007  2.27166885  0.67085619
  C -4.27306297  1.77060809 -0.54355496
  C -2.97660484  1.31044863 -0.68139225
  H  4.44504861 -1.28600050 -1.09394776
  H  3.39141771 -0.47219835 -2.27700010
  H  4.94297564  0.26302054 -1.81782276
  H  3.74119471  0.31852713  0.52430354
  H  2.20131075  2.16772557  1.17055517
  H -0.08231810  2.44833703  1.29581167
  H -2.31231641 -0.86640959 -0.69428538
  H -0.24844044 -2.97376303 -0.53091377
  H -1.39389233 -2.88546531 -1.88717168
  H -1.98153132 -3.28454828 -0.25366142
  H -1.88222559  1.87723764  2.46909632
  H -4.17460570  2.70917900  2.69657921
  H -5.72537503  2.62704758  0.77830542
  H -4.94271200  1.74602894 -1.39078412
  H -2.62601987  0.96359341 -1.64312455
