30
opt_min/./Reactant_4647_1_opt.xyz
  C  3.62165900  2.27761400 -1.20018400
  N  2.68094794  1.23796234 -0.87460096
  C  3.08445961 -0.02035174 -0.53637959
  O  4.26278068 -0.35130749 -0.52436606
  C  2.01285743 -0.97081860 -0.23901885
  C  2.45056710 -2.35013911  0.15055011
  O  0.79408015 -0.47883662 -0.21320612
  C -0.40742948 -1.00921092 -0.27387133
  C -0.65188134 -2.45511136 -0.57744414
  C -1.48942251 -0.08971224 -0.03560489
  C -1.23323248  1.26021955  0.26746059
  C -2.26225589  2.14746959  0.49066014
  C -3.58213606  1.72595002  0.43166110
  C -3.85453098  0.39692398  0.15016360
  C -2.83145705 -0.50009589 -0.07893075
  H  3.26475076  2.85789897 -2.05092254
  H  3.78529122  2.94924371 -0.35178854
  H  4.56569911  1.79453882 -1.44948593
  H  1.70005707  1.46106980 -0.87400704
  H  1.62832410 -3.00881508  0.40088872
  H  3.06419909 -2.79660322 -0.63066609
  H  3.09237273 -2.25405461  1.02918625
  H -0.87698073 -3.04388132  0.31382176
  H  0.20798987 -2.88358471 -1.08438082
  H -1.50175401 -2.53144107 -1.25340777
  H -0.21165647  1.60197819  0.33606944
  H -2.03528074  3.17898681  0.71947910
  H -4.38712769  2.42221397  0.61065423
  H -4.87863903  0.05468951  0.11055211
  H -3.07942202 -1.52820582 -0.28738165
