10
opt_min/./Reactant_526_0_opt.xyz
  C -1.88338767  0.68042106  0.21313744
  O -0.51195563  0.44670209  0.49753815
  C  0.13762118 -0.31475088 -0.38746910
  O -0.35149369 -0.79476591 -1.37551722
  C  1.51788374 -0.48982678 -0.00643908
  C  2.67868476 -0.66423625  0.27083638
 Cl  4.23544858 -0.91189968  0.63689774
  H -2.26054960  1.30226455  1.02142390
  H -1.99320269  1.19588995 -0.74310143
  H -2.43148075 -0.26275600  0.17152199
