33
opt_min/./Reactant_2027_0_opt.xyz
  C -2.84229734  0.05473917  0.47107680
  C -2.42276827 -1.09142437 -0.41744563
  O -3.17993555 -1.96813782 -0.72652376
  C -0.95839409 -1.09587845 -0.87697135
  C -0.82729497 -1.55634557 -2.34515847
  C  0.33631226 -0.97626534 -3.10313976
  O -1.58309556 -2.34760064 -2.83167589
  C -0.21986179  0.09847405 -0.54766345
  C  0.66122687  0.73148789 -0.03029442
  C  1.46243234  1.27758811  1.02535504
  C  1.34947089  2.79384230  1.19785179
 Cl  3.19778855  0.84279614  0.70101177
  C  0.98044252  0.48881099  2.25470696
  C  1.00290521 -1.05344109  2.18655921
  C -0.02168643 -1.98026684  1.47450203
  C -0.19898656 -2.17689040 -0.04621094
  H -2.02445999  0.73444823  0.68607057
  H -3.64935319  0.59689195 -0.02000408
  H -3.24544579 -0.35447902  1.39566970
  H -0.05550086 -0.37445299 -3.92239010
  H  0.90422141 -1.79168488 -3.54777427
  H  0.98059036 -0.36410024 -2.48162491
  H  0.91846956  3.24529334  0.30733957
  H  2.32638908  3.23823999  1.36690931
  H  0.71534466  3.03042153  2.04934372
  H -0.02695865  0.83043168  2.50406870
  H  1.64083622  0.75676466  3.08504335
  H  2.00678696 -1.36909321  1.89411552
  H  0.87659524 -1.34205288  3.23550044
  H -0.99943689 -1.85953748  1.94678889
  H  0.34171518 -2.96919271  1.77763157
  H -0.76858368 -3.10253648 -0.17544138
  H  0.78832883 -2.31769688 -0.49476547
