28
opt_min/./Reactant_4672_1_opt.xyz
  C -0.53737200  2.28642500 -1.93051800
  C  0.52099354  1.62963341 -1.05101825
  O  1.65836775  2.09094486 -1.05111811
  C  0.18274754  0.39660537 -0.40793333
  O -1.05957652 -0.13694356 -0.35126690
  C -2.16427050  0.43958446 -0.01292875
  C -3.38261422 -0.42222226 -0.08109443
  C -2.27686669  1.83124201  0.48610433
  C  1.21688107 -0.57469653 -0.02821825
  C  0.99728063 -1.94603914 -0.17952963
  C  1.95485764 -2.85945052  0.21143850
  C  3.15170717 -2.42717036  0.75936614
  C  3.37722575 -1.06953126  0.91374763
  C  2.42343640 -0.14702091  0.52878842
  H -1.34540346  1.61187583 -2.20387072
  H -0.94146705  3.16992646 -1.43966723
  H -0.03141867  2.62222818 -2.83365470
  H -3.20550389 -1.27579947 -0.73007355
  H -3.63679046 -0.79840528  0.91231679
  H -4.23537025  0.14459538 -0.44891623
  H -1.30022934  2.17265021  0.83335297
  H -2.63449386  2.53317832 -0.26863800
  H -2.99218624  1.84888507  1.30812971
  H  0.06847380 -2.28975722 -0.61218124
  H  1.77020829 -3.91692010  0.08178133
  H  3.90123497 -3.14371469  1.06081592
  H  4.30749662 -0.72480508  1.34268134
  H  2.60793463  0.90707503  0.64362970
