24
opt_min/./Reactant_1715_0_opt.xyz
  C  4.69152400 -0.47702400  0.52610500
  N  3.32633970 -0.04994246  0.34098005
  C  3.01775713  1.25178590  0.17408051
  O  3.83299635  2.15396605  0.16003181
  C  1.55907027  1.51380342  0.01016211
  O  0.79325903  0.50364475  0.04527472
  C -0.52007315  0.29426725 -0.05329480
  C -1.40547122  1.41602023 -0.32407798
  C -2.86467926  1.16733968 -0.61457757
  O -0.95106277  2.54959129 -0.36130387
  C -0.75306938 -1.15099121  0.13103167
  C -2.14972418 -1.68637849  0.28421675
  O  0.21396532 -1.88855686  0.21176047
  H  5.17797860  0.16638209  1.26116147
  H  4.70517214 -1.50744948  0.86755936
  H  5.24937321 -0.39310534 -0.40975740
  H  2.59374003 -0.74502385  0.33961964
  H  1.22613872  2.53478723 -0.13370703
  H -2.99552916  0.37943513 -1.34841277
  H -3.38580363  0.89363841  0.29903030
  H -3.29057761  2.09423557 -0.99053843
  H -2.65694966 -1.69358129 -0.67709972
  H -2.08050922 -2.71038554  0.64334275
  H -2.72603537 -1.09183619  0.98535363
