14
opt_min/./Reactant_3933_1_opt.xyz
  C -2.54735100  0.17190899  0.06301597
  C -1.63799290 -0.99236841  0.32089855
  O -1.98473624 -2.09970570  0.63864198
  C -0.20120332 -0.65306740  0.16988639
  O  0.78497432 -1.50175458  0.32888731
  C  2.01710336 -0.82022236  0.10082576
  O  3.07651033 -1.35523266  0.17800990
  C  1.56325668  0.51919199 -0.20377829
  C  2.31037546  1.65321965 -0.51469213
  N  2.93537495  2.58258115 -0.76708526
  O  0.22274690  0.53711295 -0.14014950
  H -2.22342636  1.05666597  0.60412646
  H -3.55937156 -0.10130080  0.35393284
  H -2.54383255  0.40486729 -1.00228582
