34
opt_min/./Reactant_5806_1_opt.xyz
  C -1.65786500  3.49809800 -0.71228700
  N -1.31972879  2.17454731 -0.24893026
  C -0.42741515  1.39227387 -0.89516261
  O  0.19159019  1.73940601 -1.88249343
  C -0.24684463  0.02690501 -0.31637217
  O  0.91299996 -0.57635954 -0.35364463
  C  2.10306860 -0.06526724 -0.57648501
  C  2.45083732  1.37177133 -0.46906465
  C  1.89031591  2.06143941  0.76786599
  O  3.24183437  1.91562251 -1.19317111
  C  3.17302683 -1.03701723 -0.82749116
  C  2.69604165 -2.43681873 -1.14589365
  O  4.34615580 -0.73190528 -0.81421553
  C -1.36171551 -0.78922363  0.11787409
  C -2.68163962 -0.50499017 -0.25705525
  C -3.72036310 -1.30121910  0.18061654
  C -3.47537780 -2.39621361  0.99550810
  C -2.17291129 -2.69709863  1.36259834
  C -1.12812664 -1.90517057  0.93388808
  H -2.71617592  3.55802346 -0.97294454
  H -1.05250635  3.69768249 -1.59561740
  H -1.43768872  4.24397557  0.05336929
  H -1.79682285  1.82113667  0.56531038
  H  1.22326036  1.42735453  1.34726410
  H  2.74602780  2.33735420  1.38293755
  H  1.38301166  2.98041051  0.48416054
  H  2.15650601 -2.42584677 -2.09134172
  H  2.02076394 -2.79860977 -0.37393682
  H  3.55392736 -3.09758754 -1.22935476
  H -2.88436370  0.32122789 -0.92117162
  H -4.73080457 -1.07064716 -0.12270742
  H -4.29338496 -3.01196471  1.33631903
  H -1.97308615 -3.55168507  1.99180514
  H -0.11705631 -2.13553076  1.23492950
