22
opt_min/./Reactant_109_1_opt.xyz
  C  0.95510300  2.70475700  0.23082300
  C -0.30742293  1.89113194  0.07582391
  O -1.37652018  2.41528203 -0.15505515
  C -0.14113933  0.43119827  0.25453532
  C  1.25619114 -0.03357093  0.55016223
  C  2.01645167 -0.53452680 -0.65750874
  O  1.74115361  0.00705929  1.65429086
  C -1.16783401 -0.44415799  0.20761819
  C -2.57101814 -0.05054606 -0.09561871
  C -0.93821045 -1.90411264  0.45268335
  H  1.31134168  2.61597974  1.25621854
  H  0.74745356  3.74988361  0.01456543
  H  1.73837770  2.33967337 -0.42980420
  H  3.08777539 -0.46298936 -0.48096405
  H  1.73660508  0.02929590 -1.54384436
  H  1.77086655 -1.58025562 -0.82975510
  H -2.61452014  0.62737720 -0.94561436
  H -3.18246682 -0.92829043 -0.29354024
  H -2.99385276  0.49358263  0.74905373
  H -0.84825503 -2.43683337 -0.49486081
  H -1.78484658 -2.33035157  0.98808422
  H -0.03573793 -2.07386784  1.03463116
