30
opt_min/./Reactant_1398_1_opt.xyz
  C  2.55433600 -2.70929800  0.83689200
  N  1.77339211 -1.50533824  0.71855524
  C  2.24738397 -0.39263258  0.10558169
  O  3.34668345 -0.33944677 -0.41346487
  C  1.32484192  0.75166714  0.10232741
  C -0.00408118  0.89383939  0.20494757
  C -1.09964423 -0.05697739  0.27239586
  C -1.09638788 -1.19439133 -0.53792366
  C -2.14850325 -2.08865363 -0.49042890
  C -3.21396286 -1.86762399  0.36799219
  C -3.22630290 -0.74183534  1.17450475
  C -2.18207037  0.16263648  1.12426312
  C -0.22153003  2.42126090  0.11109327
  C  0.08122162  2.75606683 -1.35000807
  C  1.39126933  2.61038189 -1.46248326
  C  1.85474933  2.18778197 -0.06862141
  O  0.94487097  2.90148027  0.75497079
  H  1.99371285 -3.56482426  0.45645476
  H  3.45851853 -2.57125133  0.24631881
  H  2.83174881 -2.89893948  1.87680326
  H  0.87174797 -1.47746310  1.16600149
  H -0.27128315 -1.35475773 -1.21625610
  H -2.14034231 -2.96103953 -1.12713349
  H -4.03454624 -2.56862397  0.40570996
  H -4.05477093 -0.56568427  1.84509278
  H -2.18756816  1.03373881  1.76236888
  H -1.13075403  2.82528824  0.54038866
  H -0.66533206  3.01162830 -2.07405198
  H  2.04472767  2.71610497 -2.30300985
  H  2.89180900  2.35163018  0.19529941
