19
opt_min/./Reactant_3383_1_opt.xyz
  C  0.00567403 -0.01242699 -3.38999200
  N  0.10902302 -0.39438002 -2.28315620
  C  0.21587849 -0.83610219 -1.07924072
  C  0.68616676 -2.26208262 -0.95458393
  C -0.06404262  0.04183976  0.02596805
  C -0.51767387  1.35652351 -0.19742805
  C -0.79618013  2.20648216  0.84954288
  C -0.63469285  1.78645537  2.16107424
  C -0.18497880  0.50048537  2.40325544
  C  0.09822709 -0.35873134  1.36075706
  H -0.10447587  0.33058188 -4.36851419
  H  0.44989700 -2.65722370  0.02634484
  H  1.76727467 -2.33509042 -1.09590799
  H  0.20602534 -2.89396579 -1.69987092
  H -0.65358880  1.70476494 -1.21191526
  H -1.14299040  3.21024577  0.64224409
  H -0.85507733  2.45670312  2.97786457
  H -0.04910566  0.15838748  3.42192326
  H  0.45597314 -1.34777374  1.60230805
