27
opt_min/./Reactant_584_1_opt.xyz
  C  4.39749600 -0.15521300 -0.22186000
  O  2.98961990  0.03674087 -0.21087737
  C  2.28405107 -0.83627616 -0.96050636
  O  2.80855446 -1.69422595 -1.63147541
  C  0.83295264 -0.67331975 -0.91187114
  N  0.13091746  0.30989557 -0.39107192
  C  0.75796556  1.50015664  0.15203589
  C -1.18575479  0.07384718 -0.06437393
  C -2.20709837  1.08256554 -0.22524999
  C -2.01590659  2.01729060 -1.41309928
  O -3.22372373  1.15436340  0.44323116
  C -1.38795885 -1.21360481  0.58460587
  C -2.69016683 -1.41902088  1.30336741
  O -0.51065824 -2.06699326  0.57628482
  H  4.65060845 -1.11616906  0.22942165
  H  4.77339782 -0.13855214 -1.24620791
  H  4.81817516  0.66177977  0.35796411
  H  0.30860897 -1.44745117 -1.44884320
  H  1.38496214  1.98593376 -0.59429424
  H -0.01146500  2.18249557  0.50383905
  H  1.39621130  1.22496951  0.99229842
  H -0.98227948  2.23260207 -1.65303553
  H -2.46810136  1.53073402 -2.27638530
  H -2.56265365  2.93817920 -1.22833338
  H -2.68558103 -2.40447819  1.76013603
  H -2.83739462 -0.65089591  2.05705646
  H -3.51378670 -1.33110950  0.59907008
