30
opt_min/./Reactant_2702_1_opt.xyz
 Cl -3.42412651  2.43412594  1.11261596
  C -2.60257867  0.84962693  0.93020020
 Cl -2.83629711 -0.07958022  2.45013580
  C -1.21092975  0.99209657  0.65834483
  C -0.18323611  0.77979309  0.07657111
  C  0.80934553  0.23385593 -0.79491294
 Br  0.76643536  1.32962124 -2.45631787
  C  2.20516728  0.17645006 -0.22662761
  C  2.36857286  0.13970394  1.15364003
  C  3.63366165  0.04753577  1.70372003
  C  4.74797312 -0.01385471  0.88460302
  C  4.59036505  0.01420935 -0.48897914
  C  3.32573553  0.10768591 -1.04326405
  C  0.24609223 -1.16846019 -1.10191682
  C -1.20656664 -1.27972470 -1.60636442
  C -2.47582615 -1.21786298 -0.71776765
  C -3.18525695  0.07685648 -0.26335740
  H  1.50042847  0.19113697  1.79534898
  H  3.74696392  0.02759979  2.77759155
  H  5.73551681 -0.08054516  1.31630269
  H  5.45303393 -0.03254335 -1.13670397
  H  3.21750783  0.13602066 -2.11761296
  H  0.36990711 -1.77433277 -0.19975339
  H  0.87220786 -1.60796386 -1.88588143
  H -1.34375224 -0.61903187 -2.46815094
  H -1.24346445 -2.30843415 -1.98812759
  H -2.35913600 -1.88984870  0.13722060
  H -3.22947818 -1.66626568 -1.37710859
  H -4.19967954 -0.22041474  0.01596719
  H -3.25797852  0.76325835 -1.10877797
