26
opt_min/./Reactant_5678_0_opt.xyz
  C  0.71601900  1.41228200  0.33446500
  O  1.02052066  2.54485558  0.65430508
  C -0.56689780  1.13148725 -0.35591293
  O -1.23225655  2.28027052 -0.59905463
  C -2.61646207  2.29154048 -0.87806554
  C -0.94146117 -0.14047578 -0.69271507
  O -2.09982346 -0.30674581 -1.40030596
  C -2.70964064 -1.57459163 -1.54527673
  C -0.06130132 -1.28096871 -0.37987319
  O -0.34796984 -2.43040551 -0.68135684
  C  1.21615849 -0.99423178  0.31557951
  C  2.06957891 -2.17907126  0.62631706
  C  1.59750133  0.26016302  0.62066685
  C  2.90072877  0.57007399  1.27865565
  H -2.90236448  3.34174567 -0.84703228
  H -2.83276651  1.87975502 -1.86488007
  H -3.18085409  1.73885371 -0.12390321
  H -3.67989732 -1.36172751 -1.99286450
  H -2.13431771 -2.22469858 -2.20697991
  H -2.85007704 -2.07672682 -0.58659530
  H  2.35947382 -2.18085256  1.67408741
  H  1.52777597 -3.09153269  0.39506243
  H  2.97983558 -2.15317522  0.02939383
  H  2.96061217  0.09160102  2.25504152
  H  2.99617006  1.64413092  1.40461572
  H  3.72890429  0.20016146  0.67830325
