19
opt_min/./Reactant_800_1_opt.xyz
  C  3.58793300  0.06363600 -0.24855400
  O  2.20337383  0.34471136 -0.41266144
  C  1.33824418 -0.61385345 -0.04684691
  O  1.65780486 -1.68352839  0.41037818
  C -0.04730100 -0.18880891 -0.27022753
  C -0.56283379  0.97354382 -0.67266346
  C -2.07637495  0.75458459 -0.64087118
  C -2.42283822  0.67376422  0.85176962
  C -1.91713389 -0.48139524  1.25232430
  C -1.27178796 -1.07973219 -0.00278908
  O -2.15626332 -0.61254005 -1.00801033
  H  3.72672432 -0.72227420  0.49593114
  H  4.00609351 -0.26216717 -1.20294867
  H  4.06839495  0.98627820  0.07226094
  H -0.07617613  1.88953731 -0.93682062
  H -2.69174583  1.38947756 -1.26955214
  H -2.94335501  1.42650279  1.40710391
  H -1.90147598 -0.94560674  2.21615586
  H -1.11921191 -2.15206283 -0.03710208
