25
opt_min/./Reactant_4384_1_opt.xyz
  C -3.39581459 -0.05009486 -2.60197742
  O -2.36162130 -0.55755314 -1.76824086
  C -1.51738903  0.32284170 -1.22076858
  O -1.53917787  1.51600102 -1.40136202
  C -0.53143556 -0.36024292 -0.34739660
  O -0.82219352 -1.59759381 -0.09903409
  C -0.10859403 -2.53634126  0.49509435
  C  1.22988087 -2.44246030  0.90049403
  N  2.32899213 -2.45188102  1.24139022
  C -0.72754479 -3.78498492  0.68012872
  N -1.19715828 -4.82113829  0.83899795
  C  0.61471277  0.38520735  0.15131721
  C  1.02173744  0.28649713  1.48527318
  C  2.09731915  1.02205017  1.94132342
  C  2.78614150  1.85956167  1.07977512
  C  2.37557866  1.98247152 -0.23902643
  C  1.29580981  1.25958030 -0.70267386
  H -3.27350442  1.02601284 -2.73576391
  H -4.35484444 -0.26397594 -2.12944832
  H -3.33419783 -0.56247121 -3.56144315
  H  0.46566023 -0.32486606  2.18127640
  H  2.39710327  0.93765968  2.97432284
  H  3.63484267  2.42207199  1.43742598
  H  2.90182870  2.64472080 -0.90946039
  H  0.97836834  1.35339656 -1.72881886
