41
opt_min/./Reactant_5237_1_opt.xyz
  C  1.46545200 -3.01152500 -1.45916800
  N  1.18454427 -1.62661874 -1.17259253
  C  1.86356825 -0.93238410 -0.22748857
  O  2.81846466 -1.44624258  0.34772453
  C  1.45257749  0.48124333 -0.05767877
  C  2.44393241  1.50490739  0.37134868
  O  2.21004421  2.71076384  0.37271181
  N  3.61579290  1.00787499  0.80485961
  C  4.67783944  1.85322534  1.27997660
  N  0.15774264  0.81849875 -0.22188625
  C -0.19705260  2.17495822 -0.59377774
  C -0.84485804 -0.05429080  0.00666292
  C -0.71680087 -1.14654172  0.97502137
  O -1.44311229 -2.11656005  1.00052567
  O  0.23916209 -0.92835055  1.90192223
  C  0.38710536 -1.93812792  2.88445213
  C -2.09732409  0.01601350 -0.74567746
  C -3.32336419 -0.26813042 -0.14228920
  C -4.49035185 -0.25647684 -0.88169525
  C -4.46219288  0.03886861 -2.23451013
  C -3.25143340  0.31824169 -2.84789890
  C -2.08199849  0.30560725 -2.11523347
  H  0.54345499 -3.59303171 -1.42795209
  H  2.15629523 -3.37560800 -0.70021091
  H  1.93047630 -3.11826325 -2.44170327
  H  0.40803607 -1.21144913 -1.66079143
  H  3.73160520 -0.00141463  0.82434128
  H  4.32671367  2.88414292  1.25494060
  H  4.95014588  1.58423519  2.30199856
  H  5.55932760  1.75621090  0.64183153
  H  0.18811685  2.85651834  0.16748677
  H -1.27640908  2.26887213 -0.66867780
  H  0.28013291  2.45071558 -1.53316357
  H  1.10847458 -1.55301099  3.60005489
  H -0.56999436 -2.14634385  3.36731568
  H  0.76067407 -2.85631871  2.42639163
  H -3.35497975 -0.49694849  0.91087586
  H -5.42991662 -0.47548869 -0.39674375
  H -5.37544460  0.04715726 -2.80981958
  H -3.21654817  0.53815774 -3.90474980
  H -1.14338687  0.50975513 -2.61320475
