14
opt_min/./Reactant_2246_0_opt.xyz
  C  2.19399000 -0.40168000 -0.53395700
  O  1.39509401  0.71116068 -0.15754662
  C  0.39822083  0.47508661  0.72955647
  O -0.26829618 -0.70728522  0.69355077
  C -1.21887350 -0.82245143 -0.36405023
  C  0.08595741  1.41249803  1.62784814
 Br -1.39168931  1.22827709  2.77170813
 Br  1.08557947  3.00133939  1.76226139
  H  2.89097360 -0.01796343 -1.27714764
  H  2.74355901 -0.78573550  0.32942339
  H  1.59311952 -1.20561534 -0.96332489
  H -1.61081250 -1.83630495 -0.29564336
  H -0.75380407 -0.66426440 -1.34119298
  H -2.03184300 -0.10360206 -0.23056409
