27
opt_min/./Reactant_1989_1_opt.xyz
  C  1.85940600  2.87337100  0.10752700
  O  0.90649524  1.87902370 -0.21912970
  C  1.05616718  0.66712950  0.34392779
  C  0.13009524 -0.29860475  0.50506311
  C -1.28565752 -0.32006630  0.21069166
  C -2.16031821 -1.14985000  0.91768523
  C -3.51172033 -1.14710557  0.63042796
  C -4.01466474 -0.32110862 -0.36432731
  C -3.15355019  0.51028516 -1.06460411
  C -1.80229313  0.51330546 -0.78144993
  C  0.94759951 -1.48530305  1.05587356
  C  1.80688486 -1.94903427 -0.11888663
  C  2.70974486 -0.99294992 -0.27502220
  C  2.38366132  0.02824646  0.81938342
  O  1.91246606 -0.81384200  1.85568261
  H  1.52270354  3.77043517 -0.40321849
  H  1.89685227  3.05575702  1.18213884
  H  2.85864598  2.61522222 -0.24897064
  H -1.77630996 -1.78204346  1.70559327
  H -4.18033036 -1.78669031  1.18341076
  H -5.07197676 -0.33473698 -0.57742426
  H -3.54476901  1.15436010 -1.83726020
  H -1.13074170  1.16116635 -1.32186343
  H  0.40981634 -2.24818507  1.61185748
  H  1.66390760 -2.84271329 -0.68796138
  H  3.50441575 -0.89660254 -0.98516109
  H  3.17541795  0.68576850  1.16431959
