21
opt_min/./Reactant_4254_1_opt.xyz
  C -3.30595950  1.04192555  0.69354746
  O -2.63290686  0.64574603 -0.49220358
  C -1.30068063  0.84995507 -0.50169288
  O -0.69385465  1.34920959  0.41873574
  C -0.74670679  0.48860475 -1.79148575
  N  0.54316067  0.49827186 -2.09391673
  C  1.64298121  0.52050358 -1.32912176
  C  2.84319400  0.86348441 -1.96236315
  N  3.80585712  1.16929565 -2.51110679
  C  1.74270529  0.10883595  0.08444890
  O  2.64855440  0.44100979  0.80432312
  O  0.78191413 -0.76306835  0.42000979
  C  0.78781445 -1.21733905  1.76581334
  H -4.36731534  1.00861181  0.46651984
  H -3.01173215  2.05278137  0.98239113
  H -3.06824861  0.35839511  1.51094302
  H -1.44789492  0.34606584 -2.59786421
  H  0.75366717  0.53012652 -3.09128416
  H  1.81168282 -1.26798658  2.14146363
  H  0.21124409 -0.52846499  2.38277216
  H  0.33031217 -2.20329470  1.76519685
