16
opt_min/./Reactant_2709_1_opt.xyz
 Cl -4.28478100 -0.72330300  0.67153800
  C -2.73672057 -0.08838287  0.27176503
 Cl -2.77686081  1.48818823 -0.39417189
  C -1.59931779 -0.77427895  0.44112000
 Cl -1.67986327 -2.38353819  1.06173296
  C -0.24990849 -0.28086040  0.14167819
  C  0.18181960  0.96287726  0.58964466
  C  1.46420644  1.39446567  0.29680848
  C  2.32143109  0.59816009 -0.44191096
  C  1.89600577 -0.64711705 -0.88502586
  C  0.62099923 -1.08507377 -0.59236591
  H -0.46891707  1.59134570  1.17434865
  H  1.78992856  2.35961311  0.65364809
  H  3.31718913  0.94211789 -0.67049713
  H  2.56728503 -1.26843735 -1.45636314
  H  0.27989779 -2.05424427 -0.93061099
