17
opt_min/./Reactant_3836_1_opt.xyz
  O  4.71291700  0.72396900  0.05001100
  C  3.78924459  0.02636474 -0.00355955
  N  3.23665068 -1.07808986 -0.08905186
  O  1.86750778 -1.15236885 -0.09302438
  C  1.30506001  0.05924556  0.00268509
  C -0.15326782  0.06589931  0.00535308
  C -0.81161768  1.29423979  0.10269465
  C -2.19172298  1.33357919  0.10778958
  C -2.91948287  0.15643528  0.01649186
  C -2.26703833 -1.06414570 -0.08022626
  C -0.88698645 -1.11820186 -0.08647763
  O  2.04182366  1.03281358  0.07814116
  H -0.22500157  2.19673736  0.17264585
  H -2.70315381  2.28071613  0.18284659
  H -3.99840124  0.18994962  0.02069536
  H -2.83890879 -1.97676606 -0.15099827
  H -0.37119472 -2.06163047 -0.16125399
