40
opt_min/./Reactant_5913_0_opt.xyz
  C -2.09892500  3.14312600  2.25770000
  N -1.86822218  1.78293038  1.84009594
  C -2.66830386  1.17282219  0.92554085
  O -3.69771791  1.65898050  0.52515146
  C -2.23200647 -0.21343140  0.56295091
  C -3.35537362 -1.12976392  0.29724132
  O -4.38138651 -1.15932466  0.92468810
  O -3.09601805 -1.93696076 -0.75909282
  C -4.14123260 -2.79551307 -1.19025662
  N -0.95888194 -0.59128709  0.45548891
  C -0.61345241 -1.99959660  0.60876086
  C  0.06037333  0.26186817  0.22570857
  C -0.17287941  1.47823438 -0.53315029
  O -1.18937676  1.75503583 -1.13032804
  O  0.92357816  2.27352150 -0.55278544
  C  0.80314057  3.44027162 -1.34836613
  C  1.43739571 -0.08718782  0.60641616
  C  1.75197632 -0.32339496  1.94603508
  C  3.04870151 -0.61790815  2.32190430
  C  4.05267914 -0.67808371  1.37000233
  C  3.75283769 -0.43837173  0.03942351
  C  2.45663592 -0.14515219 -0.34064043
  H -2.20066179  3.19716979  3.34274151
  H -3.02502716  3.47064714  1.78915555
  H -1.28029202  3.79283824  1.93870169
  H -0.99972732  1.35826490  2.12225221
  H -4.99393537 -2.71024075 -0.51440434
  H -4.43551792 -2.50338665 -2.19818131
  H -3.76351533 -3.81885477 -1.19672268
  H -0.18462764 -2.37403793 -0.32028344
  H  0.12536881 -2.11199181  1.40039737
  H -1.49322644 -2.58013174  0.86427761
  H  1.68962539  4.03593544 -1.14554305
  H  0.75274757  3.17811652 -2.40702640
  H -0.10322003  3.98950005 -1.08397145
  H  0.97947675 -0.25598056  2.70144336
  H  3.27786626 -0.79187045  3.36301961
  H  5.06525101 -0.90569587  1.66674609
  H  4.53214268 -0.48282561 -0.70615617
  H  2.22373278  0.03546825 -1.37870261
