31
opt_min/./Reactant_3060_1_opt.xyz
  N -2.07115251 -2.86657367 -1.90234058
  C -1.45554796 -2.07067566 -1.36171675
  C -0.68080455 -1.02272896 -0.72714620
  C -1.23082291  0.31677313 -1.18971934
  C -0.41276553  1.26930681 -1.78046425
  C -0.93625762  2.49036135 -2.16808404
  C -2.27941716  2.76479676 -1.97637244
  C -3.10126983  1.81057297 -1.40102081
  C -2.58043923  0.59067062 -1.00974084
  C  0.73725382 -1.17906481 -0.97024919
  C  1.91823350 -1.31514174 -0.79135627
  C  3.15716868 -1.18529000 -0.09457278
 Br  4.55890731 -0.25140070 -1.14959163
 Br  3.88482883 -2.97199881  0.37217975
  C  2.83997840 -0.38622652  1.17527708
  C  1.60414283 -0.90704151  1.93651535
  C  0.25313691 -0.25065090  1.56266257
  C -0.74942886 -1.16218071  0.82919785
  H  0.63500804  1.05713139 -1.93987052
  H -0.29272224  3.22764018 -2.62384726
  H -2.68550587  3.71761615 -2.28058851
  H -4.15204555  2.01297568 -1.25833605
  H -3.23102796 -0.15576697 -0.57548237
  H  2.67534253  0.65279413  0.87649358
  H  3.71576594 -0.40480664  1.82954936
  H  1.79427964 -0.71634441  2.99410402
  H  1.52846911 -1.98972719  1.82377828
  H  0.43219200  0.64945337  0.97143523
  H -0.23176376  0.07189791  2.48526550
  H -1.76715957 -0.92962637  1.14765575
  H -0.55119022 -2.20587552  1.08439015
