16
opt_min/./Reactant_329_0_opt.xyz
  C -2.19918600  0.25278300  0.14434400
  C -0.75803356  0.29086462 -0.19800831
  C  0.11809858  1.28175664 -0.28558496
  C  1.44636843  0.60905093 -0.65251247
  C  1.85340117 -0.15714146  0.61103598
  C  0.98409834 -1.15047577  0.69905715
  C  0.06795817 -0.97228117 -0.51781866
  O  0.98462197 -0.45703907 -1.46874430
  H -2.39411298 -0.50828123  0.89638548
  H -2.78456115  0.01330147 -0.74239759
  H -2.52015487  1.22001675  0.52453216
  H -0.01854207  2.33040527 -0.12143329
  H  2.20139078  1.20796009 -1.15236451
  H  2.65472095  0.12168776  1.26355538
  H  0.88698161 -1.91699829  1.43961417
  H -0.46250869 -1.84329661 -0.89097366
