15
opt_min/./Reactant_4467_1_opt.xyz
  C  2.71199400  0.48777500  0.39698900
  N  1.32431035  0.85577918  0.48786983
  O  0.55647708 -0.20620094  0.19286446
  C -0.72588517 -0.14861693  0.17281536
  C -1.44605786 -1.42139875 -0.13156623
  C -1.48268225  1.10357394  0.46489325
  H  3.26792993  1.21504618  0.98383122
  H  2.90490808 -0.51908241  0.78438609
  H  3.07099415  0.52482980 -0.63914222
  H -1.62071653 -1.99502822  0.78110310
  H -0.86540744 -2.04772159 -0.80553963
  H -2.40642765 -1.20120276 -0.58689962
  H -1.91665384  1.50586578 -0.45064188
  H -0.79691073  1.83651445  0.88165967
  H -2.29083165  0.90520852  1.16526275
