11
opt_min/./Reactant_650_0_opt.xyz
  C -0.17620700 -1.13904801  0.71479598
  C -0.23972368  0.15831070 -0.04989286
  C  1.01096168  0.76672182 -0.63167687
  N -1.34257137  0.74403122 -0.20269609
  N -2.34558782  1.26587255 -0.33847837
  H -1.11742374 -1.67461554  0.63998347
  H  0.61665954 -1.75880892  0.30914377
  H  0.03164973 -0.95856198  1.77029913
  H  1.86752841  0.48300745 -0.02717467
  H  1.18154840  0.40614292 -1.64807131
  H  0.94277472  1.84925448 -0.65895350
