23
opt_min/./Reactant_1409_0_opt.xyz
  C -5.08316338 -0.43344267  0.76784579
  N -4.03765043  0.49827160  0.43993148
  C -2.72713612  0.11625001  0.37236482
  O -2.36501925 -1.01693917  0.65783802
  C -1.82436326  1.17169071 -0.03795805
  N -0.56442698  0.92851460 -0.13116474
  C  0.55792149  0.58520573 -0.17767567
  C  1.87862617  0.18909470 -0.20842921
  C  2.89616931  1.07258835 -0.60378246
  C  4.20642957  0.64520217 -0.62038000
  C  4.53048976 -0.65237931 -0.24996772
  C  3.52740720 -1.52910869  0.13983891
  C  2.21070611 -1.12480922  0.16367670
  H -5.68362451 -0.69137787 -0.10986720
  H -5.73591610 -0.01561078  1.53562386
  H -4.60525472 -1.33515800  1.14518281
  H -4.30614255  1.41603945  0.13026242
  H -2.16365169  2.16584758 -0.27379391
  H  2.64064875  2.08189341 -0.89203909
  H  4.98465843  1.32945888 -0.92486541
  H  5.55903701 -0.97798777 -0.26540834
  H  3.77619584 -2.53959840  0.42758345
  H  1.42417077 -1.79968957  0.46520920
