37
opt_min/./Reactant_1168_1_opt.xyz
  C -2.29053819  2.92833782 -2.46298726
  O -1.84190732  1.85032232 -1.65186665
  C -2.74669990  0.95035677 -1.25567907
  O -3.91328767  0.98634031 -1.53903166
  C -2.08404237 -0.08636901 -0.35738586
  C -2.91781978 -1.37644509 -0.30545567
  C -3.04007366 -2.08317616 -1.62635091
  O -3.37311466 -1.81167549  0.71730528
  C -0.75459059 -0.44186724 -0.89839930
  C  0.44206050 -0.47393494 -0.68201193
  C  1.78598702 -0.21712413 -0.11350483
  C  2.29566171  1.09786803 -0.72187803
  C  2.74211494 -1.35623401 -0.48375679
  C  1.81348046 -0.09594763  1.48246812
  C  0.74217738  0.73350363  2.27991767
  C -0.46805666  0.45884901  1.40186318
  C -1.95697337  0.58027328  1.11989648
  H -1.94391813  3.85551962 -2.00788278
  H -3.38015985  2.91853944 -2.52661838
  H -1.85834911  2.82052429 -3.45840778
  H -2.19762016 -2.76779604 -1.72533493
  H -3.95688115 -2.66788488 -1.64022698
  H -3.02557456 -1.38854477 -2.46031513
  H  3.29093104  1.32243665 -0.34357751
  H  2.34867125  1.02336704 -1.80623565
  H  1.63398067  1.92393246 -0.47170514
  H  2.38125106 -2.30288769 -0.08569051
  H  2.82099669 -1.44648350 -1.56481312
  H  3.73385974 -1.16904667 -0.07714124
  H  2.80338606  0.30193888  1.71361290
  H  1.76602817 -1.11705309  1.86111816
  H  0.67735622  0.34147523  3.29628733
  H  1.01285030  1.78774803  2.33530741
  H -0.36308020 -0.62094310  1.29300720
  H -0.10581832  0.99661063  0.52793356
  H -2.57441535 -0.02555301  1.78359997
  H -2.33820645  1.59967957  1.10357988
