25
opt_min/./Reactant_5743_1_opt.xyz
  C -2.57106600 -2.22261200  0.25681900
  O -1.70556121 -1.10030599  0.26429053
  C -2.26779650  0.10062055  0.44927782
  O -3.45831535  0.28282905  0.60898222
  C -1.30512767  1.20041946  0.43636680
  C -1.82209468  2.59171316  0.60062204
  O -0.01816133  1.10559822  0.29293635
  N  0.62301283 -0.05003921  0.14145162
  C  1.97494721  0.07507299 -0.01913432
  C  2.68253056  1.28597977 -0.09605251
  C  4.04846293  1.27815797 -0.27871050
  C  4.73775482  0.07933339 -0.38663379
  C  4.04601585 -1.12262241 -0.31280260
  C  2.68020639 -1.13170357 -0.13274212
  H -2.18530714 -2.91766304 -0.48684918
  H -3.58852081 -1.91230673  0.00743705
  H -2.56602185 -2.69183686  1.24349201
  H -2.37525163  2.89530230 -0.28965843
  H -2.51640059  2.62975992  1.43822701
  H -0.99799464  3.28072655  0.76241073
  H  2.14709024  2.22117956 -0.01721239
  H  4.58819458  2.21382033 -0.34033853
  H  5.80834886  0.08298296 -0.52903565
  H  4.58265517 -2.05659199 -0.39680868
  H  2.12660647 -2.05628480 -0.07458848
