34
opt_min/./Reactant_5567_0_opt.xyz
  C -3.16901800 -1.92187600  0.84434000
  C -3.01798701 -0.42341882  0.70473981
  O -3.87806162  0.32380739  1.14732770
  C -1.84375879  0.12449732  0.05471834
  C -1.59722050  1.46278521  0.00114630
  C -2.37725881  2.61405378  0.50410500
  O -0.41481265  1.72741095 -0.62100380
  N -0.76608499 -0.52294251 -0.57361543
  C -0.48673781 -1.91634202 -0.73200801
  C  0.16881927  0.49131074 -1.04034578
  C  0.25515233  0.49565695 -2.57477693
  C  1.52337838  0.33378128 -0.35104847
  C  1.52557307  0.08480768  1.01769516
  C  2.71476041 -0.04729195  1.71003118
  C  3.92159910  0.07318023  1.04286920
  C  3.92819078  0.33141228 -0.31626371
  C  2.73753898  0.46567743 -1.01040959
  H -2.26187740 -2.38015110  1.22371145
  H -3.41113090 -2.35746869 -0.12281980
  H -3.99175076 -2.12023496  1.52691446
  H -3.36091873  2.63293330  0.03793959
  H -2.54101475  2.51675231  1.57647088
  H -1.84047382  3.53353042  0.28814544
  H -1.34168966 -2.44585028 -1.15447359
  H -0.19735991 -2.39654290  0.21174975
  H  0.35020393 -2.02045277 -1.42019094
  H  0.76920054  1.39152006 -2.90926357
  H  0.77147672 -0.38454439 -2.94427110
  H -0.75724242  0.51225877 -2.97319835
  H  0.58599528  0.00040352  1.54382191
  H  2.69847097 -0.24220424  2.77229777
  H  4.85224088 -0.02826918  1.58131345
  H  4.86591372  0.43310808 -0.84276347
  H  2.76822594  0.66882192 -2.06866285
