20
opt_min/./Reactant_266_0_opt.xyz
  C -3.70066300 -0.09451000  0.51115700
  N -2.30465795 -0.43446169  0.61813024
  C -1.34077803  0.33655242  0.08037269
  O -1.53548024  1.35227868 -0.56475498
  C  0.01627370 -0.18824120  0.33615241
  O  0.21029068 -1.31980218  1.01540576
  C  1.60772825 -1.59676047  1.05977774
  O  2.03239868 -2.56666790  1.62014103
  C  2.18651949 -0.50777679  0.33683604
  C  3.52834799 -0.26854054  0.06237952
  N  4.63140597 -0.05278021 -0.17839379
  N  1.17094849  0.30785626 -0.07651792
  C  1.35943014  1.52793341 -0.81694061
  H -4.05941887  0.39057794  1.42412395
  H -3.81464166  0.60697412 -0.31544831
  H -4.28971071 -0.99091896  0.32803388
  H -2.04083504 -1.24928281  1.15173188
  H  1.41561477  2.37458396 -0.12868037
  H  2.28756458  1.46112127 -1.38145056
  H  0.50299800  1.68883694 -1.47149356
