24
opt_min/./Reactant_491_1_opt.xyz
  C  3.21291323  0.57912207 -0.21017616
  O  2.75574646 -0.75313849 -0.22064077
  C  1.37025026 -0.92160053 -0.19854028
 Cl  1.09277647 -2.49973662 -1.02928658
  C  0.54877846  0.09129329 -0.81665979
  C -0.29956239  0.94087145 -0.88231612
  C -1.56470950  1.58661409 -0.66742210
  C -2.35861631  0.57657516  0.19388946
  C -1.63769904  0.04483904  1.44843730
  C -0.73018068 -1.20831112  1.32969731
  C  0.79312165 -1.00643587  1.23551255
  H  2.82231536  1.14082893 -1.06555476
  H  4.29727732  0.51783224 -0.27318431
  H  2.92946513  1.09715170  0.71257961
  H -2.09490487  1.79381825 -1.59814072
  H -1.42759475  2.52385149 -0.12281378
  H -2.64217818 -0.27123277 -0.43240920
  H -3.27256850  1.08187640  0.51797784
  H -1.08577654  0.85227938  1.93463752
  H -2.44053113 -0.24447772  2.13102269
  H -1.07008804 -1.83463294  0.50956427
  H -0.88405854 -1.77077078  2.25424025
  H  1.31231795 -1.81754256  1.74952014
  H  1.06684615 -0.06864239  1.72991851
