36
opt_min/./Reactant_5882_0_opt.xyz
  C  2.37486000 -1.87058900  2.87882200
  O  2.22150825 -1.27284163  1.60178154
  C  0.99836519 -1.28901647  1.07443775
  O  0.02331748 -1.74351144  1.64778915
  C  0.95225818 -0.76469912 -0.28293239
  N -0.23345050 -0.59049426 -0.91941938
  C -1.47124598 -0.49563980 -0.49449426
  C -1.79467171 -0.33278147  0.96068236
  O -2.67972652 -0.88816411  1.55219792
  O -1.05526401  0.66348337  1.46872979
  C -1.24093554  0.90987040  2.85553882
  C -2.55632467 -0.41547710 -1.46646308
  C -3.84801545 -0.83170835 -1.12601891
  C -4.87015163 -0.77500046 -2.05409677
  C -4.63467859 -0.29364610 -3.33096106
  C -3.36364428  0.13879382 -3.67617623
  C -2.33289685  0.07918251 -2.76002602
  C  2.14173340 -0.66959994 -1.10548293
  O  3.27936275 -0.89453206 -0.77789358
  O  1.80661234 -0.29487789 -2.38893592
  C  2.87103210 -0.18522734 -3.32092938
  H  2.60422684 -2.93214757  2.76418173
  H  3.20550097 -1.36173089  3.36259959
  H  1.45735501 -1.76271071  3.46143241
  H -0.11029700 -0.53586246 -1.93366062
  H -2.20480533  1.39360142  3.02774798
  H -0.42646121  1.56230203  3.16057593
  H -1.21265781 -0.03347897  3.40319004
  H -4.03243665 -1.21301862 -0.13519285
  H -5.85845799 -1.10981857 -1.77742192
  H -5.43617555 -0.24802125 -4.05244595
  H -3.17642822  0.53093712 -4.66477420
  H -1.36150598  0.45764747 -3.04665653
  H  2.94154407  0.85218831 -3.65064632
  H  3.80569253 -0.48879770 -2.84595639
  H  2.65222666 -0.83311659 -4.17028513
