36
opt_min/./Reactant_2720_0_opt.xyz
  C -3.45102900  0.38337200  2.54460200
  N -2.95349315  0.27364511  1.19572816
  C -1.61506477  0.15564293  0.95409408
  O -0.81731672  0.12086583  1.87879889
  C -1.23253953  0.14691537 -0.46213441
  C -2.27717942  0.37707481 -1.51390289
  N  0.07366303  0.09656299 -0.76569340
  C  0.54051261  0.57796601 -2.06286820
  C  1.01498274 -0.41634567  0.07088868
  C  0.84466514 -1.69180284  0.73724800
  C -0.36587931 -2.54739704  0.39616938
  O  1.70141441 -2.15793568  1.47014830
  C  2.28426518  0.29532239  0.17381952
  C  2.27272327  1.69699622  0.15675334
  C  3.43886687  2.41747940  0.30877801
  C  4.64831568  1.76351014  0.48389048
  C  4.67177959  0.37908047  0.51180838
  C  3.50953495 -0.35057771  0.35471610
  H -3.65353535  1.42419546  2.81389120
  H -2.67546804  0.00399264  3.21019972
  H -4.36249625 -0.20139140  2.65865125
  H -3.62419176  0.32430851  0.45184565
  H -2.99033677 -0.45045622 -1.53710640
  H -1.85284888  0.46613984 -2.50743947
  H -2.82763775  1.29861031 -1.31709154
  H  0.10541808 -0.03208435 -2.85560659
  H  1.62102937  0.46686375 -2.10723785
  H  0.28379528  1.62364675 -2.23161521
  H -0.87800319 -2.25131761 -0.51435081
  H -1.06098097 -2.49600151  1.23117048
  H -0.02333083 -3.57645058  0.30753320
  H  1.33187759  2.22041921  0.06471941
  H  3.40391236  3.49802670  0.30231534
  H  5.55977942  2.32946131  0.60591094
  H  5.60915688 -0.14020404  0.65127531
  H  3.54080163 -1.42709747  0.37610932
