26
opt_min/./Reactant_2069_1_opt.xyz
  C -2.00344260  0.25204078  0.34276199
  C -0.91806385 -0.37830953 -0.54009480
  C -1.55077568 -0.98444816 -1.79641836
  C  0.08867672  0.60204786 -0.85775517
  C  1.16131914  1.14118962 -0.80009288
  C  2.42519624  1.51038690 -0.26865185
 Cl  3.75679890  0.71152047 -1.18065235
 Br  2.74605802  3.47859087 -0.30811713
  C  2.42895917  1.04805727  1.19087777
  C  2.09670024 -0.43124445  1.46390281
  C  0.66157570 -1.00950727  1.49790454
  C -0.10225306 -1.44351443  0.23069045
  H -1.57393330  0.98500620  1.02090990
  H -2.49714182 -0.52006471  0.92906250
  H -2.74757153  0.74883155 -0.27438756
  H -0.81505939 -1.56184095 -2.35231088
  H -1.93193538 -0.19584717 -2.44042807
  H -2.37437098 -1.64251051 -1.52747659
  H  1.74132620  1.68582995  1.75268847
  H  3.43621115  1.22448251  1.58045283
  H  2.43604842 -0.56184964  2.49805573
  H  2.73006549 -1.06927105  0.84416658
  H  0.02897072 -0.38115028  2.12647390
  H  0.80322063 -1.94989465  2.04234299
  H  0.60989346 -1.91042241 -0.45476414
  H -0.80743605 -2.22296956  0.53562256
