29
opt_min/./Reactant_2585_0_opt.xyz
  C  1.38601089  3.39826409 -0.66681011
  N  1.19252090  2.00789759 -0.32842452
  C -0.03876663  1.51779639  0.01780022
  O -1.00233109  2.25110228  0.14011769
  C -0.08995768  0.05205177  0.15744078
  N  0.90947426 -0.66911400  0.69147097
  C  1.92113427 -0.39375374  1.53435900
  C  2.07737940  0.86083669  2.33546380
  C  2.78808978 -1.43916533  1.81822480
  N  3.55501607 -2.27683426  2.02886988
  C -1.20396911 -0.66923652 -0.42922984
  C -2.00914234 -0.07737795 -1.41126532
  C -3.06105767 -0.76937610 -1.97453108
  C -3.33619731 -2.07131533 -1.58281928
  C -2.55577262 -2.66819848 -0.60649761
  C -1.50738529 -1.97973743 -0.03053055
  H  0.46459337  3.92270882 -0.42355554
  H  2.21011126  3.81817864 -0.08708868
  H  1.59964428  3.51662375 -1.73057728
  H  1.92505714  1.36714929 -0.59239103
  H  0.85922050 -1.65809877  0.44966913
  H  1.77881003  1.74654325  1.78239258
  H  3.11335203  0.96310571  2.64680122
  H  1.45649350  0.80319598  3.23249179
  H -1.80720292  0.93214160 -1.72852384
  H -3.66800213 -0.29117304 -2.72818715
  H -4.15683708 -2.61132753 -2.02858398
  H -2.77296123 -3.67480206 -0.27960632
  H -0.94971457 -2.46032093  0.76240945
