22
opt_min/./Reactant_544_0_opt.xyz
  C  2.44757799  1.52675245 -0.82365121
  N  1.27946706  0.90854974 -0.24300551
  C  1.33254478 -0.36963707  0.19277874
  O  2.37978807 -1.00510665  0.17144247
  C  0.12146063 -0.98078683  0.76024460
  C  0.29355216 -2.39946678  1.21927007
  N -1.09315091 -0.47766317  0.96846084
  C -1.82862266  0.62177725  0.71743668
  C -3.21466969  0.62629093  1.30763793
  C -1.48817989  1.73843656 -0.01691085
  N -1.33857423  2.71193373 -0.62863860
  H  2.29985427  2.60275954 -0.84707887
  H  3.31853275  1.28010543 -0.21647335
  H  2.62739737  1.15817510 -1.83747540
  H  0.40729581  1.40062954 -0.34078325
  H -0.24556754 -2.59777203  2.14590865
  H -0.06134492 -3.09531361  0.45614514
  H  1.35175881 -2.59306257  1.37162562
  H -1.67753201 -1.15362829  1.46217262
  H -3.18209597  0.58009162  2.39825924
  H -3.80027819 -0.22067730  0.94312110
  H -3.73047954  1.54031317  1.02553815
