16
opt_min/./Reactant_4183_1_opt.xyz
  N  3.80395263 -0.75509661  4.19731595
  C  3.12602734 -0.73397876  3.25995831
  C  2.33735264 -0.70339882  2.18292750
  N  1.64965729 -0.66284525  1.22550081
  N  1.18944892 -0.75340084  0.11295365
  C  0.09135570 -0.12530992 -0.41189322
  C -0.93347833  0.39883248  0.38338209
  C -2.02512131  0.99868864 -0.20984407
  C -2.11156140  1.08005004 -1.59106423
  C -1.10013047  0.56032922 -2.38288531
  C -0.00264930 -0.04303757 -1.80175701
  H -0.85741659  0.33102993  1.46065660
  H -2.81372507  1.40220083  0.40725439
  H -2.96929418  1.54871808 -2.05022752
  H -1.16660074  0.62618081 -3.45834722
  H  0.79269340 -0.45266728 -2.40531155
