26
opt_min/./Reactant_524_1_opt.xyz
  C  4.48308800 -1.51727200 -0.37913600
  O  3.63294239 -0.44622008 -0.00613490
  C  2.29041901 -0.70301039  0.01897219
  O  1.81638051 -1.77799863 -0.26119211
  C  1.59557512  0.49685869  0.41450998
  N  0.27522101  0.58056347  0.52049907
  C -0.27853019  1.86256251  0.97908502
  N -0.48815699 -0.40874665  0.31619713
  C -1.86162177 -0.32526145  0.29017779
  C -2.54219262  0.38174504 -0.70499179
  C -3.92178565  0.33358641 -0.77286322
  C -4.64515844 -0.40711788  0.14524210
  C -3.97583753 -1.12545544  1.12475906
  C -2.59880146 -1.09503504  1.19461661
  H  3.88355875 -2.40748981 -0.58239959
  H  5.17664478 -1.71136743  0.44013018
  H  5.03730350 -1.22676038 -1.27259949
  H  2.18900882  1.36346548  0.63891183
  H  0.51311725  2.59354591  1.10944381
  H -0.79042230  1.69897223  1.92836356
  H -1.00563131  2.23292738  0.25923098
  H -1.98472326  0.93498178 -1.44939289
  H -4.43373932  0.87936012 -1.55259695
  H -5.72291059 -0.43598099  0.09062755
  H -4.53376850 -1.71644580  1.83628741
  H -2.06557215 -1.65744777  1.94571114
