23
opt_min/./Reactant_4193_1_opt.xyz
  C  4.91868000 -0.36567600  0.07071200
  O  3.85187997  0.47012573  0.48595179
  C  2.59173453 -0.01957960  0.31114758
  O  2.35877577 -1.09837589 -0.17662175
  C  1.63974261  0.95631926  0.79092683
  N  0.32720269  0.78208324  0.76302248
  N -0.30029911 -0.25409065  0.37232633
  C -1.67114829 -0.24240122  0.33695177
  C -2.30183426 -1.49241608  0.32245238
  C -3.67616412 -1.58007328  0.26840701
  C -4.45051013 -0.42978784  0.21349594
  C -3.83635678  0.81184459  0.19981079
  C -2.46063381  0.91463344  0.26011331
  H  5.66600674  0.26837680 -0.40362075
  H  5.35160882 -0.86348137  0.94117740
  H  4.55007987 -1.11712470 -0.63074060
  H  2.01359042  1.87807690  1.19957662
  H -0.21962397  1.58885696  1.12175209
  H -1.68254641 -2.37360234  0.36477124
  H -4.15379389 -2.54866070  0.26526860
  H -5.52660387 -0.50112213  0.16679711
  H -4.43555005  1.70864982  0.13228170
  H -2.00458892  1.89526652  0.20120844
