43
opt_min/./Reactant_2832_0_opt.xyz
  C  0.28642257 -1.31949043 -3.54217480
  N  0.18781882 -0.74494633 -2.21949792
  C -0.81157761 -1.06923262 -1.38253769
  O -1.66547746 -1.88559781 -1.64235679
  C -0.81607782 -0.28425125 -0.04189134
  C -1.88102643  0.77374424 -0.25607037
  C -1.53843570  1.86713181 -1.05157978
  C -2.45127999  2.86343630 -1.33253037
  C -3.73790679  2.78564059 -0.82390226
  C -4.09029722  1.70135473 -0.04349446
  C -3.17251566  0.70187833  0.23984532
  C  0.51759376  0.29701522  0.20713773
  C  1.56144671  0.17790575  0.82399402
  C  2.56152109 -0.23377535  1.83827568
  C  3.94514533 -0.20138013  1.15964538
  F  3.95578595 -1.02952990  0.10081941
  F  4.25908568  1.00755872  0.68767753
  F  4.94475076 -0.58882452  1.95396355
  C  2.54999694  0.79782400  2.98304124
  F  1.41896433  0.72992354  3.69500131
  F  2.64092035  2.05458817  2.54266640
  F  3.55267418  0.60631458  3.84600341
  C  2.41914805 -1.70755886  2.46648681
  C  1.01157676 -2.27605331  2.86815055
  C  0.18428544 -1.61211882  1.77494221
  C -1.16777189 -1.34460390  1.13158933
  H  1.29314932 -1.17750172 -3.92432237
  H  0.05843001 -2.38407653 -3.48811249
  H -0.43114183 -0.85158484 -4.22093408
  H  0.88614793 -0.08055787 -1.92322129
  H -0.53332415  1.94452154 -1.44379208
  H -2.16226774  3.70190892 -1.94856938
  H -4.45759184  3.56096019 -1.03873765
  H -5.09134811  1.62109973  0.35358419
  H -3.50235615 -0.14332762  0.82198015
  H  2.82440603 -2.37778458  1.70570362
  H  3.09912741 -1.72483985  3.32223428
  H  0.72525037 -1.95940442  3.86971451
  H  1.05541505 -3.36353649  2.84196144
  H  0.34825031 -0.60187537  2.13067106
  H  0.77853320 -1.86836683  0.89535241
  H -1.85387258 -0.89086598  1.84250141
  H -1.64445466 -2.19243712  0.64073777
