16
opt_min/./Reactant_4717_1_opt.xyz
  C  2.84967300  1.20316801 -0.19227298
  N  1.47600875  0.76333549 -0.17100691
  C  1.10205587 -0.34728325  0.50952263
  O  1.84808658 -1.03019654  1.17095433
  C -0.34604094 -0.64416172  0.38938877
  O -1.16794620  0.11285192 -0.35150878
  C -2.37646221 -0.38021233 -0.27990896
  C -3.47194606  0.18374876 -0.94671033
  N -4.36352216  0.65349746 -1.49699414
  O -2.43770671 -1.44721007  0.47638872
  C -1.09481775 -1.71148636  0.98324920
  O -0.88831256 -2.63455402  1.69887746
  H  2.91171811  2.26447065  0.04468368
  H  3.30862980  1.02099128 -1.16755975
  H  3.38679033  0.62034386  0.55696255
  H  0.81026782  1.27509859 -0.72847066
