40
opt_min/./Reactant_2939_1_opt.xyz
  F  3.72380286  0.85483676 -2.22234298
  C  3.22759122  1.14444071 -0.96509887
  C  1.77649406  1.12448201 -0.90453172
  C  0.75285481  0.71854191 -0.42129986
  C -0.21781403 -0.05786103  0.32494887
  C -1.11860579 -0.89705819 -0.56343160
  C -2.04590131 -1.76434058  0.00169841
  C -2.87715825 -2.52830671 -0.79527189
  C -2.79849306 -2.43404916 -2.17495465
  C -1.88575130 -1.56528851 -2.74673892
  C -1.05375074 -0.80224554 -1.94678308
  C -1.11696841  0.86870228  1.12972883
  C -1.56146940  0.57763697  2.41234871
  C -2.41102406  1.44619253  3.07564713
  C -2.83400002  2.61587678  2.47091396
  C -2.39852476  2.91249026  1.18992662
  C -1.54947140  2.04600477  0.52896899
  C  0.70094531 -0.94210921  1.21647918
  C  1.72587027 -1.85395336  0.51211080
  C  2.82413885 -1.29016923 -0.40488840
  C  3.57889153  0.00636922  0.00666607
  H  3.65998752  2.11169647 -0.67811543
  H -2.13123328 -1.83647913  1.07649424
  H -3.59134993 -3.19837461 -0.33961314
  H -3.44662691 -3.03099268 -2.79922192
  H -1.81823697 -1.47900302 -3.82128829
  H -0.34181783 -0.12818179 -2.40154238
  H -1.24459081 -0.32401258  2.91398534
  H -2.74516694  1.20585907  4.07490792
  H -3.49575881  3.29182464  2.99113708
  H -2.72072677  3.82183722  0.70422568
  H -1.21297139  2.28088830 -0.47144945
  H  0.06641024 -1.61877373  1.79119359
  H  1.21028212 -0.28504837  1.92394135
  H  1.16388070 -2.57446888 -0.08719822
  H  2.21288984 -2.41308384  1.31541920
  H  3.61196084 -2.04406127 -0.49539470
  H  2.42883963 -1.14925474 -1.40803453
  H  4.65259991 -0.18311608  0.00492842
  H  3.26932829  0.34463431  0.99475422
