28
opt_min/./Reactant_1327_1_opt.xyz
  C  1.34867600  1.83017400  2.84585300
  O  0.67431455  0.94156496  1.95914805
  C  0.62011695  1.27107962  0.67589079
  O  1.06172775  2.27964782  0.19215708
  C -0.02504839  0.17928880 -0.12739147
  C  0.98200770 -0.67351011 -0.83908032
  O  0.74204901 -1.31145935 -1.82951293
  O  2.17000969 -0.60152712 -0.24674721
  C  3.22181572 -1.35909799 -0.83633454
  C -1.32537443 -0.08878359 -0.29782301
  C -2.48869522  0.67297117  0.25677134
  C -2.21322148  2.00606715  0.88852143
  O -3.60605326  0.22351236  0.16723965
  C -1.74312969 -1.35075448 -1.04622476
  C -2.33764262 -1.08911824 -2.39450351
  O -1.64612108 -2.41986394 -0.51276481
  H  1.64485160  2.73459845  2.31103584
  H  0.66768213  2.07497661  3.66060064
  H  2.22871541  1.32072404  3.23846866
  H  4.15006440 -0.96265333 -0.43224476
  H  3.19463825 -1.25895508 -1.92262833
  H  3.10933591 -2.41237548 -0.57064950
  H -1.82659364  1.83878060  1.89348601
  H -3.14699446  2.55995305  0.97497714
  H -1.49276250  2.58568697  0.31960388
  H -2.54482389 -2.02800151 -2.90073051
  H -1.65076143 -0.49135493 -2.98852411
  H -3.26356253 -0.53192932 -2.25667346
