21
opt_min/./Reactant_3105_1_opt.xyz
  N  4.06238256  1.37489693 -0.53527046
  C  3.25686659  0.70848666 -0.99259436
  C  2.21411760 -0.11793851 -1.56111538
 Br  2.88749196 -0.84891375 -3.31218934
  C  0.99809765  0.63433872 -1.69275100
  C -0.13639754  0.99059616 -1.52021798
  C -1.38073560  1.13543180 -0.84075034
 Br -1.97194190  3.01372494 -0.67182227
 Br -2.80102903  0.14755530 -1.81645359
  C -1.17428513  0.51552065  0.54995797
  C -0.47280077 -0.85575289  0.52626063
  C  1.07232310 -0.86772122  0.64456781
  C  1.86631755 -1.28888040 -0.60688447
  H -0.58335972  1.22500452  1.13713398
  H -2.15361299  0.41266325  1.02256899
  H -0.86665811 -1.40918338  1.37970262
  H -0.77881330 -1.40655797 -0.36435358
  H  1.32567369 -1.60256284  1.41012779
  H  1.43454175  0.09627672  1.00512709
  H  2.80575083 -1.75036709 -0.29455379
  H  1.29517986 -2.02597992 -1.17723117
