21
opt_min/./Reactant_3889_1_opt.xyz
  C -1.83950208 -3.23772620 -1.24824548
  N -0.55358892 -2.84029935 -0.78884980
  N -0.44103219 -1.62017990 -0.44647335
  C  0.62970451 -1.02847208  0.07619669
  C  1.79027821 -1.76681222  0.33975028
  N  2.77456512 -2.31921628  0.55919714
  C  0.61705597  0.39615120  0.38582768
  C -0.27764451  1.28084205 -0.22750306
  C -0.27704697  2.62153696  0.10453288
  C  0.61939424  3.10905051  1.04165634
  C  1.52531620  2.24711292  1.63595792
  C  1.52957830  0.90462792  1.31506012
  H -2.31469556 -3.88593000 -0.50443084
  H -1.71506114 -3.81878589 -2.16220590
  H -2.50938020 -2.38283707 -1.43756950
  H -1.25556338 -0.98401266 -0.55640778
  H -0.95769223  0.93648202 -0.99593933
  H -0.97373159  3.29128750 -0.37779489
  H  0.61582369  4.15804998  1.29656279
  H  2.23345574  2.62437848  2.35882431
  H  2.23243916  0.23142074  1.78184345
