34
opt_min/./Reactant_2997_1_opt.xyz
  C  3.18580255  2.32054699 -1.04031643
  O  1.85065700  1.85055404 -1.05668459
  C  1.31087899  1.45427839  0.14688522
  F  1.27649528  2.56426006  1.00744644
  C -0.01084726  0.91218468 -0.07259269
  C -0.87131902  0.07689418 -0.10050622
  C -1.52748479 -1.19897739 -0.11066765
  C -2.31330887 -1.47834735  1.19195584
  C -2.95544954 -0.28340132  1.83749991
  O -2.41199460 -2.59285674  1.62494406
  C -2.54739384 -1.38274745 -1.24936426
  C -3.38064659 -0.17251721 -1.56619505
  O -2.66151972 -2.43314242 -1.81758897
  C -0.37459064 -2.22620667 -0.25814648
  C  0.83887892 -2.03732657  0.67197805
  C  1.98015342 -1.07092360  0.25960580
  C  2.05129417  0.32741730  0.90505003
  H  3.34426350  3.03730317 -0.23108070
  H  3.90301957  1.49812121 -0.95569324
  H  3.32688257  2.81985304 -1.99582934
  H -3.96476385 -0.16798626  1.44546552
  H -3.03685174 -0.46050422  2.90727562
  H -2.39818773  0.62848744  1.64562511
  H -3.65297195 -0.19410149 -2.61875349
  H -2.85869628  0.74986163 -1.32985262
  H -4.30231053 -0.21840880 -0.98843275
  H -0.81657297 -3.20259632 -0.04763101
  H -0.03581834 -2.23075122 -1.29565585
  H  0.51379783 -1.81720591  1.68825365
  H  1.29986635 -3.02681281  0.69777691
  H  2.02402514 -0.98821586 -0.82601371
  H  2.90202012 -1.56130180  0.58007552
  H  1.64628061  0.29663922  1.91808036
  H  3.09887312  0.63021643  0.98224769
