14
opt_min/./Reactant_65_0_opt.xyz
  C  2.46165700 -0.11748300 -0.45480200
  O  1.84114432 -0.78646450  0.64483449
  C  0.51694060 -0.96476436  0.56534942
  F  0.14214081 -2.22709293  0.22674770
  C -0.44145294 -0.07303189  0.82921353
  F -0.05362845  1.19927347  1.11143901
  O -1.74920631 -0.31401152  0.88812493
  C -2.61364864  0.71184380  0.40747803
  H  3.52302460 -0.09165253 -0.22034364
  H  2.08126216  0.90205339 -0.55414906
  H  2.29786032 -0.67329021 -1.38216212
  H -3.62253639  0.36272695  0.61177342
  H -2.48276753  0.85461204 -0.66908325
  H -2.42977669  1.65191803  0.93229852
