18
opt_min/./Reactant_1059_1_opt.xyz
  N  3.66185852  4.49791762  1.24011851
  C  3.09539069  3.65343339  0.68342382
  C  2.43150389  2.68908740  0.04949640
  N  1.86571906  1.79967993 -0.48869532
  C  1.25348338  0.81106310 -1.03233426
  C  1.53296981  0.51323698 -2.37542452
  N  1.71481233  0.24369545 -3.47642146
  C  0.27832169  0.01123178 -0.29462621
  C -0.12628796 -1.23032117 -0.78596398
  C -1.05245669 -1.97829348 -0.08555478
  C -1.57746109 -1.50218489  1.10438176
  C -1.18000892 -0.27095888  1.59572361
  C -0.25796641  0.49057426  0.90295368
  H  0.29031782 -1.60130090 -1.70994270
  H -1.36840407 -2.93621777 -0.47011523
  H -2.29936790 -2.09170321  1.64885344
  H -1.58857914  0.10008686  2.52392770
  H  0.03600147  1.45489053  1.28772903
