23
opt_min/./Reactant_1620_0_opt.xyz
  C -1.72005977  2.85419415  0.83359795
  O -1.41529321  1.49284348  1.09529403
  C -0.84579437  0.80141695  0.08578927
  O -0.56957976  1.29632818 -0.98614949
  C -0.67253068 -0.60259881  0.42214888
  C -1.44127478 -1.21584309  1.55137501
  N -0.05407468 -1.45908629 -0.38774746
  C  0.87107114 -1.37674058 -1.36371193
  C  0.98977881 -2.56235241 -2.11662639
  N  1.04673249 -3.55274968 -2.69607741
  C  1.91601466 -0.37647907 -1.62836828
  C  2.17531271  0.67463880 -0.58559592
  O  2.61613628 -0.49144517 -2.61319209
  H -0.98206364  3.28624742  0.15523552
  H -2.70912759  2.93214680  0.37696641
  H -1.70808126  3.36593744  1.79288721
  H -2.05761756 -0.46830909  2.03802906
  H -0.75847796 -1.63008866  2.29490320
  H -2.08040671 -2.02530926  1.19474542
  H -0.34379082 -2.42829838 -0.22901408
  H  3.21815767  0.97338141 -0.64655561
  H  1.93196460  0.32571612  0.41647567
  H  1.55249982  1.53839141 -0.81396588
