23
opt_min/./Reactant_1406_1_opt.xyz
  C  3.53910100 -0.17916600 -0.68794900
  O  2.24070620 -0.54293607 -0.24930041
  C  1.31120885  0.43785815 -0.25118002
  O  1.56021763  1.56661679 -0.61416291
  C  0.03947265 -0.06747153  0.22728874
  C -1.19655359  0.46000338  0.39089425
  O -1.81370132  1.61149749  0.23462280
  C -1.11138094  2.73906691 -0.27582244
  C -2.05969316 -0.71640042  0.89953841
  C -2.20129516 -1.63070267 -0.31968477
  C -0.99764766 -2.15986565 -0.47652310
  C -0.15462166 -1.54415561  0.63787564
  O -1.11577321 -1.42041053  1.67450168
  H  3.77664740  0.83714894 -0.36695819
  H  4.22860045 -0.89610588 -0.24788539
  H  3.59203650 -0.22675979 -1.77848604
  H -1.87884606  3.44104883 -0.59916180
  H -0.49553171  3.18701105  0.50568626
  H -0.46977179  2.46308483 -1.11021869
  H -2.95415712 -0.45164174  1.45175320
  H -3.09745912 -1.74771599 -0.89384935
  H -0.63635064 -2.84064069 -1.21948850
  H  0.73542522 -2.07142190  0.95915888
