15
opt_min/./Reactant_2613_1_opt.xyz
  C  1.50981718  1.04832585  0.28638941
  C  0.75494396 -0.13959824 -0.21525062
  C  1.51320964 -1.22613310 -0.66349169
  N  2.18515569 -2.08417233 -1.03316857
  N -0.56678528 -0.21839242 -0.20694707
  C -1.22929251 -1.41699238 -0.69777965
  N -1.43252949  0.65457890  0.19173778
  C -1.25388701  1.83326599  0.68578044
  N -1.31548448  2.88284950  1.16584141
  H  1.75735266  0.92880813  1.34463115
  H  2.44424757  1.15463158 -0.26572739
  H  0.93153590  1.96353713  0.17791888
  H -0.50310702 -2.15481034 -1.03055390
  H -1.88796188 -1.13972604 -1.52299884
  H -1.84480590 -1.83301210  0.10172121
