20
opt_min/./Reactant_1676_1_opt.xyz
  N  5.31127200  1.05446600 -0.72644700
  C  4.29266023  0.52169612 -0.67970678
  C  3.05545333 -0.10045826 -0.61488125
  N  1.90223285  0.52992690 -0.21243099
  C  0.87821647 -0.31432946 -0.25124656
  C -0.49389766 -0.06063218  0.08751733
  C -1.42422133 -1.10178082 -0.02502613
  C -2.74818176 -0.88415300  0.29418270
  C -3.16957288  0.36372946  0.72826471
  C -2.25264973  1.39829074  0.84155786
  C -0.92455507  1.19789352  0.52640774
  O  1.29747964 -1.50128526 -0.66784204
  C  2.69950703 -1.45028091 -0.92651814
  O  3.29606943 -2.41402872 -1.31477546
  H  1.85517059  1.49774462  0.06983586
  H -1.08498839 -2.06755105 -0.36352779
  H -3.45902027 -1.69185919  0.20475373
  H -4.20537566  0.53174809  0.97736354
  H -2.57807444  2.37123622  1.17939069
  H -0.22715606  2.01651427  0.62152676
