28
opt_min/./Reactant_1768_1_opt.xyz
  C  3.71150437 -0.53703831 -1.29780848
  C  2.63506447 -0.66327404 -0.25791478
  O  2.33222179 -1.71265569  0.24110383
  C  1.85926500  0.63059018  0.07726534
  C  2.62643511  1.83052300 -0.16908206
  N  3.18518693  2.81408277 -0.33080908
  C  0.65862338  0.62786439 -0.74017053
  C -0.53032811  0.71213798 -0.87317030
  C -1.95586790  0.52671798 -0.69726720
  C -2.58138156  1.78599802 -0.33060367
  N -3.07167113  2.76537639 -0.01287305
  C -2.60099058 -0.00029339 -1.88827913
  N -3.10424632 -0.41842537 -2.82350396
  C -2.05133384 -0.50977113  0.46294310
  C -1.29373958 -0.22228151  1.77486137
  C  0.24366731 -0.34959043  1.96081891
  C  1.29844590  0.69079961  1.52581138
  H  3.82965269  0.47570111 -1.67078902
  H  4.65063344 -0.87566224 -0.86147807
  H  3.48175080 -1.20995816 -2.12302352
  H -3.10913019 -0.60924375  0.72369041
  H -1.71115960 -1.47096420  0.06517876
  H -1.66939171  0.68667681  2.24840526
  H -1.62016447 -1.07078638  2.39341703
  H  0.34254816 -0.34016902  3.05050890
  H  0.55921650 -1.33617595  1.62173179
  H  0.91423398  1.70110995  1.69673563
  H  2.15903971  0.55537175  2.18967495
