18
opt_min/./Reactant_2069_0_opt.xyz
  C  2.77806100  1.27428800  0.45554100
  C  2.73904768 -0.22840683  0.51497038
  O  3.69233741 -0.94257791  0.68579035
  C  1.37344087 -0.78141771  0.33829775
  O  1.09121179 -2.05605958  0.32243351
  C -0.33331275 -2.20061619  0.11988122
  O -0.84417221 -3.26829642  0.06275252
  C -0.76303996 -0.82616401  0.02988171
  C -2.09733731 -0.26910695 -0.18359717
  C -2.13013543  1.24030569 -0.24224338
  O -3.07626262 -0.96497304 -0.30080284
  O  0.31973606 -0.04092837  0.17451996
  H  2.68985525  1.57955253 -0.58727456
  H  1.95922684  1.71775204  1.01509972
  H  3.73115841  1.62430633  0.84509969
  H -1.38093902  1.68848156  0.40297624
  H -3.12293276  1.58484574  0.03983121
  H -1.94838061  1.54716643 -1.27275045
