33
opt_min/./Reactant_1994_1_opt.xyz
  C  4.51408350  0.94793957  0.49253677
  O  3.39638342  0.58867921 -0.30785077
  C  2.72386187 -0.50349101  0.04692674
  O  2.98191073 -1.19888268  0.99085556
  C  1.56836269 -0.74673055 -0.92736960
  C  2.12103192 -0.94603658 -2.25017728
  N  2.53883852 -1.10082204 -3.30257084
  C  0.61690147  0.35227822 -0.94260149
  C -0.40961365  0.93286389 -0.71540476
  C -1.79810028  1.05434267 -0.30056279
  C -1.98116900  2.10617836  0.80894966
  C -2.67741068  1.38371634 -1.50903915
  C -2.04287791 -0.38787230  0.22772565
  C -0.97194667 -0.85858171  1.24791753
  C  0.01170319 -1.96981511  0.83140486
  C  0.69937124 -1.98325393 -0.54562850
  H  5.39369653  0.38582394  0.17353861
  H  4.31179944  0.73652309  1.54404012
  H  4.67671791  2.01211402  0.33863071
  H -2.28599576  1.63675965  1.74040302
  H -1.06042789  2.65464004  0.99139199
  H -2.74651438  2.82683524  0.53124920
  H -2.60494821  0.60240760 -2.26268116
  H -2.36166314  2.32305609 -1.95680207
  H -3.71877674  1.47491019 -1.20668753
  H -2.02911098 -1.06129011 -0.63252072
  H -3.03966683 -0.46691456  0.66455994
  H -1.53152664 -1.22400929  2.10849742
  H -0.39782772  0.00620044  1.57503006
  H -0.50925576 -2.92987735  0.89063323
  H  0.80179160 -1.98557247  1.58475235
  H -0.03884643 -2.10545539 -1.34195913
  H  1.36206692 -2.85457039 -0.55266852
