27
opt_min/./Reactant_1824_1_opt.xyz
 Cl -0.56385600  2.28089300  1.62210800
  C -0.94993470  1.07512791  0.47334718
  C -0.15617158  0.15654970 -0.09700637
  C  1.25802370 -0.11853067  0.10027571
  C  2.04678838 -0.55490524 -0.96579645
  C  3.39346474 -0.80697172 -0.78779587
  C  3.97449781 -0.63691554  0.45867794
  C  3.20068607 -0.21431969  1.52606932
  C  1.85408743  0.04385051  1.35050972
  C -1.07725956 -0.64665389 -1.00293985
  C -1.93459245 -1.49787663 -0.03382252
  C -2.85247065 -0.44492296  0.61691075
  C -2.36229899  0.87527368 -0.01266113
  C -2.07991829  0.41788838 -1.44795462
  H  1.60646572 -0.67455479 -1.94418292
  H  3.99361342 -1.13597221 -1.62306460
  H  5.02694707 -0.83579188  0.59510320
  H  3.64649734 -0.08737049  2.50130712
  H  1.25385082  0.35430158  2.19179600
  H -0.59027384 -1.22647437 -1.78348950
  H -2.49833612 -2.26300424 -0.56349690
  H -1.29811100 -1.99264559  0.69922264
  H -3.89455249 -0.60528666  0.34107315
  H -2.78391556 -0.43784274  1.70220638
  H -3.02270340  1.72840962  0.13263457
  H -2.95356588  0.01096971 -1.95397745
  H -1.62850911  1.19507693 -2.06125713
