21
opt_min/./Reactant_1573_0_opt.xyz
  C  2.69050026 -0.42164703  2.27604153
  O  1.53170997  0.13477579  1.68079605
  C  1.01904112 -0.52184315  0.60949732
  O  1.52448503 -1.54641801  0.18382560
  C -0.13553732  0.16271730  0.07338085
  C -0.57640040  1.44925234  0.69287617
  N -0.79727474 -0.30671508 -0.99420380
  C -0.51030671 -1.64368194 -1.48236017
  C -1.73963922  0.35468676 -1.66832910
  C -2.11011963  1.68578789 -1.57697775
  N -2.47433488  2.77953923 -1.63659769
  H  2.76812022 -1.48223400  2.02842917
  H  3.57580879  0.10202276  1.90838087
  H  2.59875542 -0.28428038  3.35171579
  H -0.14998112  1.54101790  1.68617768
  H -0.26284331  2.31330023  0.10679441
  H -1.66368726  1.47432158  0.76785488
  H -1.24463872 -1.93653318 -2.22889603
  H  0.48591948 -1.67706925 -1.92233731
  H -0.52405969 -2.35516850 -0.65876872
  H -2.26319588 -0.19099822 -2.43988217
