25
opt_min/./Reactant_3964_1_opt.xyz
  C  5.24108300  1.12362000  0.44162000
  O  4.18768355  0.17757203  0.51930488
  C  2.95508242  0.63357809  0.21891810
  O  2.68050651  1.78508684 -0.03193215
  N  2.09411422 -0.43214144  0.19651700
  O  0.81067044 -0.00312045  0.11655885
  C -0.13965530 -0.83989955 -0.09894426
  C  0.16054263 -2.28065778 -0.31176282
  C -1.47603045 -0.28666394 -0.08990443
  C -1.65253331  1.10056298  0.03524833
  C -2.91703098  1.65069596  0.04787545
  C -4.03383281  0.83370277 -0.06054780
  C -3.87405375 -0.53792297 -0.18033661
  C -2.61283757 -1.10075094 -0.19638118
  H  5.81842480  0.94826826 -0.46804536
  H  5.87653842  0.97680098  1.31416673
  H  4.83625361  2.13684087  0.43694822
  H  0.10777046 -2.81126206  0.63880951
  H  1.18383186 -2.36104171 -0.67274610
  H -0.52489806 -2.74137233 -1.01256860
  H -0.79447280  1.74818988  0.11306986
  H -3.04280191  2.71927131  0.14084895
  H -5.02753451  1.25598673 -0.05209586
  H -4.74307455 -1.17530463 -0.26136941
  H -2.52569433 -2.17098115 -0.28076862
