31
opt_min/./Reactant_4580_1_opt.xyz
  C -0.56988548  0.21612735 -4.09670524
  O -0.24843604  0.52636248 -2.75423644
  C -0.93833832 -0.12928461 -1.78793239
  O -1.81178844 -0.94597127 -2.04361443
  C -0.48406758  0.26728423 -0.48686242
  C  0.57801207  1.17121903 -0.41561149
  N  1.39615044  1.97828704 -0.34080983
  N -1.02047441 -0.22089357  0.69326793
  C -2.42887224 -0.56483872  0.69527888
  C -0.33896073 -0.26601530  1.81780846
  C -1.04478902 -0.46099163  3.12143064
  C  1.12197632 -0.19371294  1.83941478
  C  1.87019004 -1.01927222  0.99448434
  C  3.24737138 -1.01766131  1.05600542
  C  3.90668164 -0.18380449  1.94565425
  C  3.17598570  0.63969168  2.78367977
  C  1.79506926  0.62916452  2.74139364
  H -1.54931718 -0.26452555 -4.14747424
  H -0.57276219  1.14956882 -4.65674107
  H  0.18928118 -0.45664853 -4.50351456
  H -2.61449636 -1.40866542  1.35567202
  H -2.71922041 -0.84028638 -0.31731108
  H -3.02436804  0.28959905  1.02044679
  H -0.35879165 -0.27059239  3.94073892
  H -1.90298161  0.20327429  3.21560464
  H -1.40088894 -1.48796331  3.22452861
  H  1.36112933 -1.67374035  0.30156489
  H  3.81326873 -1.66550039  0.40350541
  H  4.98534907 -0.17386597  1.97918155
  H  3.68046654  1.29863489  3.47443147
  H  1.23506863  1.29429306  3.38160783
