18
opt_min/./Reactant_147_0_opt.xyz
  C  3.81419300  1.28835200  0.38972200
  O  2.44301990  1.02594184  0.12847712
  C  1.78447866  0.33723617  1.09771919
  O  2.29583976 -0.04828616  2.10724591
  N  0.44930369  0.14862883  0.79907547
  N  0.05406948  0.35490049 -0.38666744
  N -1.10974903  0.24313087 -0.84256273
  C -2.22322301  0.20038970  0.00591071
  O -2.43705064  0.98126798  0.88945857
  O -3.05623513 -0.74256419 -0.42800424
  C -4.30651633 -0.84222791  0.24168893
  H  4.21790484  1.71909913 -0.52264459
  H  4.33422860  0.36390640  0.64623400
  H  3.91019407  1.99064097  1.21930438
  H  0.75617253  0.58997190 -1.12089357
  H -4.21904137 -1.53065421  1.08426390
  H -5.01754401 -1.22934602 -0.48462331
  H -4.62009471  0.13669288  0.60796506
