30
opt_min/./Reactant_5332_0_opt.xyz
  C  0.04559400  3.75832300  0.40458500
  N -0.13584530  2.34831534  0.62926734
  C  0.58608562  1.41832256 -0.02414169
  O  1.49636685  1.71388310 -0.78888747
  C  0.21257729  0.01431475  0.30352340
  C -1.20792516 -0.22983770  0.63619563
  O -1.84319205  0.45620612  1.42693749
  N -1.79264947 -1.24525947 -0.04790928
  C -3.18405186 -1.58885973  0.11608799
  N  1.08894979 -1.00186080  0.19775619
  C  0.75653189 -2.25145562  0.87102553
  C  2.29132659 -0.91051233 -0.36488089
  C  3.30507960 -1.92865429 -0.39401315
  C  4.57580289 -1.47083324 -1.07743219
  O  3.20016583 -3.06531548  0.05459885
  H  0.89483591  3.88517920 -0.26508717
  H  0.24638718  4.26684938  1.34870676
  H -0.84474456  4.19555496 -0.05325874
  H -0.89079157  2.03987180  1.23223604
  H -1.28694675 -1.73268678 -0.76926975
  H -3.58116764 -0.98099775  0.92673095
  H -3.74574953 -1.38016376 -0.79648704
  H -3.28515297 -2.64597195  0.36604431
  H  1.60766407 -2.55751098  1.47785720
  H -0.11902279 -2.12713652  1.50230974
  H  0.58897188 -3.04861732  0.14668228
  H  2.51903717  0.02693936 -0.84676107
  H  5.01787668 -0.65103348 -0.51503745
  H  5.28154123 -2.29530838 -1.12622086
  H  4.35753731 -1.11422466 -2.08074337
