26
opt_min/./Reactant_1931_0_opt.xyz
  C -0.22101500 -2.01067300  0.75202200
  N -0.88642840 -1.09076488  0.08633736
  C -2.18360235 -1.49002679 -0.43713029
  C -0.39571131  0.14353440 -0.17088626
  C -1.15893195  1.32716811 -0.48319032
  C -2.62922845  1.42776380 -0.09076484
  O -0.61680275  2.30966932 -0.97886951
  C  1.07152332  0.32840959 -0.11037316
  C  1.62664428  1.39618380  0.58870564
  C  2.99512403  1.59272199  0.59640076
  C  3.82837559  0.72862721 -0.09393085
  C  3.28498229 -0.33182649 -0.80169619
  C  1.91936298 -0.53125824 -0.81055224
  H  0.72096641 -1.77477715  1.20616781
  H -0.60150877 -3.01130867  0.81312686
  H -2.32600206 -1.06756408 -1.43159630
  H -2.22387689 -2.57459134 -0.50941974
  H -2.99024880 -1.16490817  0.21335387
  H -2.80338423  0.95930742  0.87653567
  H -3.28959800  0.99686594 -0.83654331
  H -2.86623486  2.48551799 -0.01402425
  H  0.97953982  2.07637743  1.12103319
  H  3.41754128  2.42289433  1.14355702
  H  4.89723152  0.88446896 -0.08641822
  H  3.92798798 -1.00082220 -1.35549465
  H  1.49803414 -1.35162094 -1.37627248
