19
opt_min/./Reactant_1447_1_opt.xyz
  C  3.58252300 -0.02497500 -0.45460700
  O  2.19979738 -0.35491600 -0.46664968
  C  1.43156398  0.20877381  0.47384769
  O  1.82716051  0.96791055  1.32378110
  C  0.03245684 -0.20370888  0.33103448
  C -0.60702478 -0.93877661 -0.58787443
 Br  0.02272275 -1.73647317 -2.12797481
  C -2.08127359 -0.93373856 -0.16215477
  C -2.54343811  0.50438534 -0.43044228
  C -1.92477124  1.23013900  0.48671237
  C -1.09271680  0.22290432  1.28990487
  O -1.93344084 -0.91974089  1.24209786
  H  3.72009749  1.00689346 -0.12618274
  H  3.93926374 -0.15887003 -1.47377108
  H  4.11726257 -0.69225474  0.22324382
  H -2.70247258 -1.75043532 -0.51448523
  H -3.20463327  0.80124986 -1.21794840
  H -1.93147776  2.28428707  0.66918637
  H -0.79572020  0.48661824  2.29765329
