32
opt_min/./Reactant_2248_1_opt.xyz
  C -2.37336141  3.31537387  0.33939978
  O -1.88747779  1.98778946  0.50222178
  C -1.25268898  1.42887132 -0.51908048
  O -1.01447135  1.96749289 -1.56584977
  C -0.81169376  0.00509875 -0.16512811
  C -1.95892184 -0.73267564  0.52953331
  O -3.12370499 -0.56520371  0.28798258
  O -1.49418273 -1.62278941  1.40245980
  C -2.45489894 -2.39467094  2.11001193
  C  0.37073109  0.10251837  0.64147739
  C  1.50622673  0.12874005  1.02281715
  C  2.92648489  0.20681810  0.85069533
 Cl  3.63732421  1.57683195  1.77868318
  C  3.11822189  0.42047019 -0.65458217
  C  2.39756322 -0.56223125 -1.60593662
  C  0.95084083 -0.36597193 -2.13174112
  C -0.35041616 -0.78648832 -1.40901338
  H -1.84355868  3.96622658  1.03631766
  H -3.43920453  3.30507619  0.56726252
  H -2.20583180  3.64953962 -0.68572612
  H -2.84113020 -1.81912822  2.95441541
  H -1.93481706 -3.28124978  2.46663630
  H -3.28213289 -2.66434704  1.45055146
  H  3.42090746 -0.69637378  1.22227508
  H  2.82528317  1.43873232 -0.91841428
  H  4.18743245  0.32780914 -0.86883171
  H  2.53876837 -1.59062716 -1.26758149
  H  2.97240940 -0.43790387 -2.53213155
  H  0.84176193  0.66567745 -2.47075260
  H  0.93258652 -1.00970718 -3.01834800
  H -0.27955762 -1.84487045 -1.14323983
  H -1.13558271 -0.68719633 -2.16554108
