18
opt_min/./Reactant_1589_1_opt.xyz
  C -1.64220355  2.67682564 -1.20188260
  N -1.08473740  1.69424779 -0.91067927
  C -0.53164884  0.52502425 -0.81291211
  C -0.71696052 -0.31495330 -2.00565209
  C -0.12475858 -1.69110536 -1.95350947
  O -1.32717494  0.10744218 -2.97193165
  C  0.20512379  0.15481985  0.40186533
  O  0.80842256 -0.89402505  0.53305983
  N  0.18595881  1.10425025  1.38327913
  C  0.82787474  0.88846149  2.65498538
  H -2.12612715  3.56412654 -1.46304292
  H -0.45120533 -2.25049272 -2.82643208
  H  0.96093964 -1.61444883 -1.94815427
  H -0.41145245 -2.19899649 -1.03734663
  H -0.38119858  1.92794999  1.27017099
  H  1.43285082 -0.01126630  2.56256690
  H  0.09564577  0.74165005  3.45463483
  H  1.46544234  1.73833408  2.90617657
