25
opt_min/./Reactant_4744_0_opt.xyz
  C  5.24108300  1.12362000  0.44162000
  O  4.18768356  0.17757202  0.51930486
  C  2.95508242  0.63357809  0.21891810
  O  2.68050651  1.78508685 -0.03193210
  N  2.09411423 -0.43214145  0.19651699
  O  0.81067045 -0.00312045  0.11655884
  C -0.13965529 -0.83989955 -0.09894426
  C  0.16054263 -2.28065779 -0.31176282
  C -1.47603045 -0.28666394 -0.08990443
  C -1.65253331  1.10056298  0.03524833
  C -2.91703097  1.65069596  0.04787544
  C -4.03383279  0.83370277 -0.06054780
  C -3.87405374 -0.53792296 -0.18033660
  C -2.61283756 -1.10075094 -0.19638118
  H  5.81842479  0.94826829 -0.46804537
  H  5.87653843  0.97680096  1.31416672
  H  4.83625360  2.13684086  0.43694825
  H  0.10777046 -2.81126206  0.63880951
  H  1.18383186 -2.36104172 -0.67274610
  H -0.52489806 -2.74137234 -1.01256860
  H -0.79447279  1.74818988  0.11306984
  H -3.04280190  2.71927132  0.14084894
  H -5.02753450  1.25598673 -0.05209587
  H -4.74307455 -1.17530463 -0.26136940
  H -2.52569433 -2.17098115 -0.28076861
