29
opt_min/./Reactant_5918_1_opt.xyz
  C -0.57018568 -2.86263784 -2.05272851
  N -0.48781306 -1.93926037 -0.94335776
  C -0.75299692 -0.63157377 -1.10847091
  O -0.99671467 -0.10222698 -2.16882980
  C -0.64781271  0.20057029  0.15388175
  O  0.45765954  0.72720138  0.55302907
  C  1.67595986  0.59429910  0.08137811
  C  2.03513094 -0.18864196 -1.01461575
  N  2.41897619 -0.80592114 -1.91048102
  C  2.67883299  1.39591459  0.83333517
  O  2.33126437  2.09794859  1.76594721
  N  3.94808218  1.27838762  0.39250359
  C  5.04325833  1.99014909  1.00306227
  C -1.88722000  0.55810769  0.88889320
  O -2.92399577 -0.04543948  0.69220433
  N -1.73645763  1.56105224  1.77758264
  C -2.82723114  2.01901550  2.60031797
  H -1.60497148 -3.16181037 -2.23457571
  H -0.18906057 -2.36004341 -2.93968746
  H  0.03621183 -3.73832200 -1.83831295
  H -0.43648125 -2.32671623 -0.01371211
  H  4.14541791  0.68337843 -0.39667907
  H  4.62239497  2.72027460  1.69149898
  H  5.69087883  1.30717610  1.55758462
  H  5.63116882  2.50155689  0.24126435
  H -0.83373409  1.98996585  1.90952499
  H -2.70875493  1.67936822  3.63193325
  H -3.74824887  1.60551295  2.19369908
  H -2.87516933  3.10759356  2.58702156
