30
opt_min/./Reactant_4194_1_opt.xyz
  C  4.10328800 -1.27519100 -1.56301300
  O  2.83983794 -0.89121515 -1.05606605
  C  2.88706012 -0.02435989  0.01595715
  O  3.96407917  0.35871015  0.44293858
  C  1.63685196  0.31835517  0.62014656
  C  1.78857324  1.01069817  1.94829390
  N  0.40125959  0.02325299  0.14825802
  C  0.20348454 -0.02601942 -1.29292320
  C -0.66391737 -0.03979234  0.92675725
  C -2.05157292 -0.18495318  0.49980414
  C -2.98473034  0.77383198  0.89949052
  C -4.31772386  0.65011696  0.55737271
  C -4.75060540 -0.44246535 -0.17518418
  C -3.84248833 -1.41980034 -0.54814857
  C -2.50782445 -1.29860436 -0.21100449
  H  3.90481329 -1.87802692 -2.44634466
  H  4.69515810 -0.39412426 -1.82077051
  H  4.65168830 -1.85780176 -0.81889861
  H  2.60012100  1.73119714  1.85717442
  H  2.06505504  0.31915677  2.74594702
  H  0.88106489  1.53786369  2.23435349
  H  1.06743327 -0.47167795 -1.77193456
  H  0.08161783  0.99582116 -1.65873794
  H -0.68761378 -0.59207945 -1.54272045
  H -0.50863903  0.07864262  1.98744030
  H -2.65044262  1.62729755  1.47126811
  H -5.02307101  1.40884225  0.86383580
  H -5.79221697 -0.54045302 -0.44275039
  H -4.17787491 -2.28865946 -1.09599782
  H -1.81798439 -2.09047414 -0.46693814
