26
opt_min/./Reactant_5134_0_opt.xyz
  C  2.45382795 -0.27273218  2.57558800
  C  3.38303149 -0.26419508  1.37873303
  O  4.58479925 -0.40374223  1.49006388
  C  2.74367171 -0.03552767  0.08628665
  C  3.56339725 -0.08227709 -1.04728802
  N  4.30738409 -0.16344403 -1.92243929
  O  1.42295068  0.15226538  0.09720884
  C  0.60149250  0.41322123 -0.86851377
  C  1.05872763  0.58035393 -2.27666452
  C -0.78720646  0.54016432 -0.48461859
  C -1.13506127  0.75148965  0.85910244
  C -2.45651419  0.86118827  1.23657658
  C -3.46623176  0.75990625  0.29086906
  C -3.13803302  0.54369081 -1.03864016
  C -1.81840060  0.43468545 -1.42818346
  H  1.51670443 -0.77677817  2.35711405
  H  2.24784260  0.75628111  2.86909607
  H  2.95689247 -0.76634238  3.40303503
  H  1.27021820 -0.38613155 -2.73854816
  H  0.31447070  1.10143560 -2.87127764
  H  1.98437326  1.15632325 -2.29654853
  H -0.35710179  0.84408731  1.60138579
  H -2.70275815  1.02956600  2.27428894
  H -4.49941498  0.84560125  0.58911576
  H -3.91871829  0.45579301 -1.77929567
  H -1.59026325  0.23946258 -2.46401109
