36
opt_min/./Reactant_2634_1_opt.xyz
  F  1.28135400  2.23474800  0.18566300
  C  0.90817816  0.94350887 -0.04723761
  C -0.39846466  0.63427355 -0.03205138
  C -0.85450021 -0.76850205 -0.10424084
  C -0.36282571 -1.72534730  0.77898564
  C -0.82448900 -3.02756146  0.72075115
  C -1.77853004 -3.38655100 -0.21698839
  C -2.27713007 -2.43783856 -1.09203028
  C -1.82425867 -1.13230449 -1.03349632
  C -1.46311232  1.63896908  0.10855596
  C -1.40475869  2.86867616 -0.54592527
  C -2.42843287  3.78510572 -0.40619871
  C -3.52458618  3.49535673  0.38900210
  C -3.59460101  2.27480414  1.04175122
  C -2.57717658  1.35226820  0.90001102
  C  2.04769981  0.05649250 -0.25942109
  C  3.23383208  0.29384730  0.43557997
  C  4.32927193 -0.52957036  0.25485617
  C  4.25988833 -1.59432929 -0.62536238
  C  3.09345969 -1.82118079 -1.33820726
  C  1.99382385 -1.00178999 -1.16483431
  H  0.37667991 -1.43705622  1.51176892
  H -0.44185832 -3.76438181  1.41209496
  H -2.13730454 -4.40488301 -0.26360571
  H -3.02415004 -2.71412908 -1.82077534
  H -2.21466924 -0.39022532 -1.71494611
  H -0.56186847  3.09859091 -1.18003668
  H -2.37165426  4.73307890 -0.92301685
  H -4.32170421  4.21353083  0.49996735
  H -4.44832772  2.04239829  1.66377184
  H -2.63346612  0.40377068  1.41533556
  H  3.28938788  1.12359105  1.12348709
  H  5.23979425 -0.33929887  0.80251213
  H  5.11602507 -2.24108476 -0.76278590
  H  3.03988980 -2.63925237 -2.04145779
  H  1.09903017 -1.16967774 -1.74190938
