29
opt_min/./Reactant_2838_1_opt.xyz
  C -2.63454154  0.49939221 -0.16379435
  C -1.50196460  0.01448446  0.75079966
  C -1.97265895 -0.19811335  2.19268519
  C -0.36414308  0.89074919  0.67058890
  C  0.73682431  1.25649004  0.36798530
  C  2.02303077  1.35050361 -0.25615290
  F  2.30283726  2.63636283 -0.71013796
  C  3.15002909  1.00811694  0.73738063
  F  2.93569850  1.51034773  1.95904075
  F  4.33739300  1.46661837  0.32464939
  F  3.28913718 -0.32043304  0.89153034
  C  1.97819229  0.40742596 -1.47318076
  C  1.33957853 -0.99250309 -1.36860155
  C -0.15936160 -1.32017129 -1.14270478
  C -0.87633239 -1.30831267  0.22343670
  H -3.37659173  1.05646792  0.40363331
  H -3.13001684 -0.34694803 -0.63640160
  H -2.24866114  1.15279099 -0.94342159
  H -1.12333934 -0.20916670  2.87323845
  H -2.64566063  0.59945258  2.50072379
  H -2.50262039 -1.14576610  2.27988448
  H  1.46463967  0.97208589 -2.25625176
  H  3.01136473  0.25037276 -1.79789204
  H  1.51409307 -1.38299407 -2.37906741
  H  1.93266581 -1.61415715 -0.69159471
  H -0.76302795 -0.79844200 -1.88963662
  H -0.18512708 -2.38474825 -1.41082317
  H -0.18990159 -1.69413062  0.98019662
  H -1.70187237 -2.02267324  0.13672141
