25
opt_min/./Reactant_1009_1_opt.xyz
  C  3.06922250  0.38192828  1.23519337
  O  2.37347974 -0.29044074  0.20937217
  C  1.31272686 -1.12868554  0.64940215
  C  1.80539697 -2.19192301  1.51878774
  N  2.20321352 -3.00289685  2.21921474
  C  0.28579858 -0.31442407  1.28830581
  C -0.63531795  0.46159936  1.25584463
  C -1.52715695  1.38353852  0.61429054
 Cl -3.20861201  0.78167859  0.58768377
 Cl -1.51894618  3.00271843  1.38246506
  C -0.92065333  1.46188288 -0.79637337
  C -1.01659796  0.16778949 -1.62725955
  C -0.73140770 -1.25667665 -1.08921866
  C  0.65962184 -1.73726258 -0.63290901
  H  3.57206232 -0.32049793  1.90893529
  H  3.81175655  0.99800515  0.73248409
  H  2.39472151  1.01932444  1.81796251
  H  0.12533176  1.74363450 -0.66659103
  H -1.41934763  2.25296677 -1.36152787
  H -2.04877696  0.10459075 -1.98298418
  H -0.38395624  0.33101829 -2.50256566
  H -1.47491358 -1.52891410 -0.34215782
  H -0.91118352 -1.83968719 -2.00032712
  H  1.39282395 -1.59217487 -1.42723901
  H  0.54930009 -2.81127880 -0.46002178
