38
opt_min/./Reactant_2894_0_opt.xyz
  C  1.03982300 -3.78003700  1.71788900
  O  1.19743308 -2.47172250  1.19212182
  C  0.08216004 -1.77642624  0.93889559
  O -1.02917918 -2.20278378  1.12493345
  C  0.41987010 -0.41941567  0.41985677
  C -0.54202434  0.36517899 -0.10798612
  C -0.23924152  1.77904276 -0.47663481
  O  0.75973252  2.38240416 -0.17709571
  O -1.24589442  2.30117803 -1.18733439
  C -1.13016455  3.65341464 -1.60298872
  C -1.92258761 -0.08714115 -0.35608232
  C -2.98315657  0.43764785  0.37379228
  C -4.27678992  0.02881682  0.11290222
  C -4.52796422 -0.89581935 -0.88684320
  C -3.47732459 -1.41602798 -1.62228318
  C -2.18031428 -1.01634924 -1.35781083
  C  1.83336149 -0.01751990  0.53461578
  C  2.40639114  0.22107401  1.77829175
  C  3.74032623  0.56904112  1.87494862
  C  4.51749530  0.66881472  0.73391476
  C  3.95335304  0.42469428 -0.50719035
  C  2.61774804  0.08527634 -0.60901694
  H  0.07612857 -4.19517745  1.41658261
  H  1.08924624 -3.74619796  2.80812514
  H  1.86212708 -4.37689429  1.32928602
  H -1.93531459  4.22631984 -1.14165219
  H -1.23036689  3.68597387 -2.68724615
  H -0.16328080  4.05831181 -1.29812419
  H -2.79006669  1.15300795  1.16016509
  H -5.09948606  0.42876885  0.68755185
  H -5.54023249 -1.21233380 -1.09124602
  H -3.65710739 -2.13844280 -2.40465862
  H -1.35782884 -1.42289934 -1.92818383
  H  1.79526826  0.14943528  2.66650682
  H  4.17802068  0.76381577  2.84322067
  H  5.56078780  0.93832775  0.80690560
  H  4.55877189  0.50308303 -1.39847172
  H  2.17777773 -0.10170890 -1.57823745
