10
opt_min/./Reactant_4180_1_opt.xyz
  O  0.57070800 -1.07194100 -1.68502200
  C  1.45738462 -0.23841810 -1.08665415
  O  2.54641023 -0.16250773 -1.57180821
  C  0.99564985  0.49635030  0.10568097
  C -0.24536800  0.33774926  0.56591493
  C -1.18651172 -0.57725810 -0.10709289
  O -0.73540846 -1.23968653 -1.19962126
  O -2.31443201 -0.78498576  0.22937554
  H  1.72339237  1.15175553  0.55918925
  H -0.63137737  0.85129008  1.43299425
