26
opt_min/./Reactant_4894_0_opt.xyz
  C  0.71601900  1.41228200  0.33446500
  O  1.02052065  2.54485558  0.65430510
  C -0.56689779  1.13148725 -0.35591294
  O -1.23225654  2.28027052 -0.59905464
  C -2.61646207  2.29154050 -0.87806554
  C -0.94146116 -0.14047578 -0.69271509
  O -2.09982346 -0.30674581 -1.40030595
  C -2.70964064 -1.57459163 -1.54527673
  C -0.06130132 -1.28096871 -0.37987319
  O -0.34796984 -2.43040552 -0.68135686
  C  1.21615850 -0.99423178  0.31557951
  C  2.06957892 -2.17907126  0.62631707
  C  1.59750133  0.26016302  0.62066686
  C  2.90072876  0.57007400  1.27865565
  H -2.90236447  3.34174569 -0.84703226
  H -2.83276652  1.87975505 -1.86488006
  H -3.18085408  1.73885371 -0.12390321
  H -3.67989732 -1.36172751 -1.99286447
  H -2.13431771 -2.22469858 -2.20697992
  H -2.85007702 -2.07672683 -0.58659530
  H  2.35947381 -2.18085255  1.67408741
  H  1.52777598 -3.09153269  0.39506244
  H  2.97983557 -2.15317523  0.02939384
  H  2.96061217  0.09160104  2.25504152
  H  2.99617005  1.64413093  1.40461572
  H  3.72890429  0.20016147  0.67830324
