23
opt_min/./Reactant_282_1_opt.xyz
  C  3.44624900 -1.73232500 -0.39502000
  N  2.36668626 -0.79006124 -0.23666563
  C  1.08717603 -1.22256184 -0.21530236
  O  0.82089771 -2.40310358 -0.30519160
  C  0.01632303 -0.16167106 -0.07004935
  C -1.34364685 -0.72069822  0.02299586
  O -1.64018379 -1.86715248 -0.17317185
  O -2.30856409  0.17433942  0.41335179
  C -3.61078870 -0.36075031  0.58579102
  N  0.29362718  1.14382118 -0.02452894
  C -0.77781897  2.14170592 -0.04728910
  N  1.49771761  1.58917554  0.00694818
  H  4.35966459 -1.31088097  0.01841958
  H  3.60819403 -1.97319063 -1.44995191
  H  3.19050129 -2.65463737  0.12653675
  H  2.56167046  0.19933022 -0.15984555
  H -4.16144209 -0.30844246 -0.35528956
  H -3.54886871 -1.40244018  0.90541835
  H -4.09898736  0.24881655  1.34252046
  H -1.46654551  1.94433796 -0.86641452
  H -0.34031614  3.13042392 -0.18319449
  H -1.33863062  2.12461685  0.88478307
  H  1.52931762  2.60409842 -0.00449594
