25
opt_min/./Reactant_4648_1_opt.xyz
  C -2.80071400 -2.02610800  0.57635700
  O -1.64961375 -1.22433484  0.34582532
  C -1.85750791  0.08066115  0.09199156
  O -2.95502635  0.59136553  0.03357208
  C -0.57645224  0.74238822 -0.15751261
  C  0.66824966 -0.05458774 -0.04039575
  C  1.11762552 -0.46417492  1.20924020
  C  2.28060119 -1.20519328  1.31849495
  C  3.00052517 -1.54037564  0.18389241
  C  2.55674830 -1.12952195 -1.06080305
  C  1.39504452 -0.38754629 -1.17532020
  N -0.47526185  2.01126792 -0.49302927
  C -1.65817478  2.84818421 -0.63116032
  O  0.62201939  2.56119003 -0.70590187
  H -3.06587296 -2.55357712 -0.34077133
  H -2.54573931 -2.74247705  1.35367567
  H -3.63738350 -1.39887725  0.88920927
  H  0.55781407 -0.19714067  2.09188857
  H  2.62713243 -1.51869243  2.29104999
  H  3.90807627 -2.11800714  0.27156691
  H  3.11631307 -1.38517336 -1.94730885
  H  1.05264394 -0.06143097 -2.14635936
  H -2.20180057  2.90017468  0.30922157
  H -2.32954287  2.43672110 -1.38182795
  H -1.31543568  3.83834125 -0.92676393
