31
opt_min/./Reactant_1999_0_opt.xyz
  C  4.82571000  0.54889000 -1.76579400
  O  3.61733010  0.16991170 -1.12695800
  C  3.75398646 -0.56240493 -0.00525690
  O  4.82180012 -0.89494879  0.45794332
  C  2.45692089 -0.91268607  0.58621116
  C  2.45201478 -1.79016381  1.78159092
  O  1.42395456 -0.37301908  0.01470628
  C  0.13741278 -0.66077895  0.21243086
  C -0.31470660 -2.01397885  0.40218818
  C -1.81066536 -2.24256326  0.39536116
  O  0.47133951 -2.95653837  0.41632487
  C -0.75623853  0.45694934 -0.16764311
  C -0.75122232  0.97201943 -1.45907179
  C -1.57621084  2.03153026 -1.79101098
  C -2.41106463  2.58779381 -0.83649471
  C -2.41281272  2.08759288  0.45498371
  C -1.58829638  1.02958159  0.79208992
  H  4.55449537  1.28786741 -2.51548743
  H  5.29188808 -0.31889034 -2.23780586
  H  5.52431609  0.97023185 -1.04023864
  H  2.65164863 -2.82813495  1.51594680
  H  3.25281204 -1.45812002  2.44311246
  H  1.49605139 -1.74437290  2.29519723
  H -2.37030781 -1.34848375  0.64386543
  H -2.04301881 -3.04065181  1.09671626
  H -2.10432130 -2.57853600 -0.59767752
  H -0.09574435  0.53673831 -2.19848774
  H -1.56907443  2.42204936 -2.79763852
  H -3.05675878  3.41321721 -1.09658987
  H -3.05455981  2.52580250  1.20506460
  H -1.58231364  0.64726211  1.80279501
