35
opt_min/./Reactant_2109_1_opt.xyz
  C -2.72728900  3.69080500  1.05297900
  O -1.58760267  2.87520633  0.83614847
  C -1.84149109  1.54262461  0.74006382
  O -2.97663187  1.11848265  0.82729218
  C -0.69206135  0.68259689  0.49874846
  C -1.05506275 -0.73027718  0.27216041
  C -0.44381403 -1.72586525  1.03687892
  C -0.82498867 -3.04615348  0.90208601
  C -1.81447638 -3.39784494 -0.00176865
  C -2.42497493 -2.41805375 -0.76652299
  C -2.05188883 -1.09402361 -0.63159396
  N  0.60304099  1.02225807  0.62782274
  C  0.96607772  2.22852529  1.35414402
  C  1.59622280  0.29116708  0.06783197
  C  1.31769545 -0.48528277 -1.18225497
  C  2.88330563  0.15052482  0.71024866
  C  3.92074892 -0.66525498 -0.03236298
  O  3.13456459  0.58277715  1.83286175
  H -2.34803816  4.68871169  1.25722432
  H -3.36640147  3.69650944  0.16760083
  H -3.30640852  3.31488959  1.89817194
  H  0.32103397 -1.45582717  1.75125067
  H -0.35097673 -3.80294295  1.51001682
  H -2.10917314 -4.43107039 -0.10732227
  H -3.19802789 -2.68732463 -1.47095591
  H -2.53375855 -0.33579985 -1.22846806
  H  2.04285988  2.34256145  1.36762367
  H  0.60690229  2.17262898  2.38040708
  H  0.51479607  3.09089388  0.87064677
  H  2.11832461 -0.30556118 -1.89842774
  H  1.25394779 -1.56118991 -1.01611427
  H  0.38363462 -0.15690265 -1.62941730
  H  4.84511815 -0.64171080  0.53864392
  H  3.59070088 -1.69704818 -0.12788560
  H  4.10060101 -0.26429847 -1.02601178
