11
opt_min/./Reactant_1375_1_opt.xyz
  C  2.04567700  0.33131700 -0.06398900
  N  0.61554273  0.27267740 -0.01718433
  O  0.16137120 -0.67844989 -0.79785512
  N -1.07885677 -0.93384266 -0.88674006
  C -1.92716371 -0.13165891 -0.07123874
  H  2.33001897  1.38149759 -0.12554663
  H  2.45677521 -0.08365398  0.86045762
  H  2.45449276 -0.22378562 -0.91217154
  H -2.94800325 -0.46819205 -0.22297843
  H -1.82292610  0.92531023 -0.34185831
  H -1.63147061 -0.21543896  0.98114327
