13
opt_min/./Reactant_1118_0_opt.xyz
  C  0.03003997  0.13982501  2.27026000
  O  0.11353970  0.52689346  0.90243942
  C -0.08957649 -0.40511978 -0.01321057
  O -0.33539367 -1.57172299  0.19076518
  C  0.02041172  0.12266127 -1.39563470
  C  0.31150235  1.47504723 -1.64563269
  N  0.55343740  2.57990447 -1.82848397
  N -0.17307111 -0.76919411 -2.34084955
  O -0.14846851 -0.63714958 -3.56330301
  H  0.81989178  0.67072691  2.79861359
  H  0.15662113 -0.94080129  2.36531254
  H -0.94514459  0.43246476  2.66306134
  H -0.37418127 -1.71725910 -1.94542042
