13
opt_min/./Reactant_298_0_opt.xyz
  C -2.15825100  0.12407800 -0.29827900
  C -0.71914079 -0.14151151 -0.03303784
  N  0.19630952  0.73447192 -0.36307292
  N  1.48494131  0.73874888 -0.28275944
  C  2.06877755 -0.44355835  0.27278981
  H -2.37323272  1.19252583 -0.24813503
  H -2.77489458 -0.39031747  0.43613238
  H -2.45818137 -0.23168841 -1.28929710
  H -0.41521882 -1.08672576  0.37876251
  H -0.15316751  1.61085665 -0.75705207
  H  3.14662192 -0.29073749  0.28268789
  H  1.73066339 -0.62532613  1.30256437
  H  1.83994787 -1.34204752 -0.31927182
