10
opt_min/./Reactant_3477_1_opt.xyz
  O  2.88813888 -0.84774209  0.48997431
  C  2.68168213 -0.14623540 -0.38985771
  O  2.49208409  0.54765242 -1.27844167
  C -0.31411636 -0.29709522  0.46454290
  C -0.73309159  0.41968602 -0.39372702
  C -3.79768654  0.43156962  0.24994124
  O -3.66459631 -0.25930619  1.15125734
  O -3.94721056  1.13750526 -0.63823882
  H  0.04781624 -0.92552268  1.22418994
  H -1.09292573  1.05056234 -1.15242144
