13
opt_min/./Reactant_4956_1_opt.xyz
  C -2.68170993  0.01047986 -0.87745263
  N -1.40017548  0.44489451 -0.38013788
  C -0.38319647 -0.42014781 -0.17785563
  O -0.41621646 -1.61318629 -0.39073943
  C  0.81423012  0.19876557  0.33683451
  N  1.89339207  0.21413612  0.79990161
  N  2.91193651  0.62234127  1.32836046
  C  4.03620695  0.03086512  1.58154656
  N  5.07589458 -0.36301846  1.87660133
  H -3.47596914  0.28417463 -0.18159718
  H -2.89033373  0.45666879 -1.85191629
  H -2.64507786 -1.07330566 -0.98271180
  H -1.27675867  1.42273488 -0.16826141
