32
opt_min/./Reactant_3142_0_opt.xyz
  C -3.37815903 -3.49039900  0.28158296
  O -2.93377357 -2.14976618  0.17752714
  C -1.59976356 -1.97063104 -0.01004454
  O -0.81988412 -2.89896660 -0.12027064
  C -1.20443588 -0.58023498 -0.01715273
  N  0.08919809 -0.39770710 -0.04849164
  C  1.25289942 -0.28286157 -0.09178892
  C  2.64518142 -0.12867845 -0.16966407
  C  3.28506283 -0.14960077 -1.41499729
  C  4.65631223 -0.00250515 -1.48224679
  C  5.40076533  0.16548645 -0.32502279
  C  4.77178246  0.18605282  0.91109445
  C  3.40160544  0.04063223  0.99533643
  C -2.05434799  0.60317507  0.06439972
  C -1.53138457  1.79857249  0.56780511
  C -2.30429575  2.94162688  0.62072401
  C -3.61399651  2.92077120  0.17436431
  C -4.14122318  1.74418980 -0.33185289
  C -3.37193136  0.59836387 -0.39363503
  H -2.67322839 -4.15809513 -0.21858725
  H -3.45353893 -3.77176478  1.33600253
  H -4.35992088 -3.54255143 -0.18657358
  H  2.69743895 -0.28253818 -2.30961196
  H  5.15016273 -0.01625468 -2.44309780
  H  6.47284544  0.27932414 -0.38417821
  H  5.35463563  0.31148978  1.81109156
  H  2.90371987  0.05108071  1.95362309
  H -0.51107759  1.82709662  0.92674524
  H -1.88235929  3.85519226  1.01529303
  H -4.21903973  3.81534919  0.21801355
  H -5.16006265  1.72151610 -0.69091239
  H -3.79161891 -0.30516438 -0.80307833
