23
opt_min/./Reactant_364_1_opt.xyz
  C -2.37138103  2.52739005 -0.61786965
  O -1.19119825  1.76584193 -0.41017865
  C -1.38573103  0.45322285 -0.24098252
  O -2.48596090 -0.04072862 -0.26642750
  C -0.12794620 -0.31103785 -0.02656826
  C  1.20231699  0.32317783  0.01353644
  O  2.24139035 -0.27445914  0.20927604
  O  1.15889400  1.63961856 -0.18531722
  C  2.38989582  2.34876285 -0.16480827
  N -0.24279359 -1.64031070  0.13991867
  C  0.92656873 -2.48106264  0.36791746
  N -1.38814988 -2.19967240  0.09999623
  C -1.64763252 -3.45427290  0.24169084
  N -2.01503356 -4.54280924  0.36390731
  H -2.04543205  3.55780732 -0.72830269
  H -2.89096537  2.18745630 -1.51617710
  H -3.04641276  2.42393979  0.23429723
  H  3.22871766  1.65747177 -0.26511842
  H  2.37030834  3.05239321 -0.99518194
  H  2.47042724  2.89112951  0.77861861
  H  0.59244176 -3.51361294  0.47683942
  H  1.62258785 -2.40034600 -0.46594319
  H  1.45406998 -2.16376184  1.26643520
