27
opt_min/./Reactant_583_1_opt.xyz
  C  4.39749600 -0.15521300 -0.22186000
  O  2.98961990  0.03674088 -0.21087738
  C  2.28405108 -0.83627614 -0.96050639
  O  2.80855447 -1.69422594 -1.63147541
  C  0.83295264 -0.67331975 -0.91187116
  N  0.13091746  0.30989557 -0.39107193
  C  0.75796556  1.50015665  0.15203587
  C -1.18575479  0.07384718 -0.06437394
  C -2.20709838  1.08256553 -0.22524999
  C -2.01590660  2.01729060 -1.41309927
  O -3.22372372  1.15436339  0.44323118
  C -1.38795884 -1.21360481  0.58460585
  C -2.69016680 -1.41902088  1.30336741
  O -0.51065823 -2.06699324  0.57628481
  H  4.65060844 -1.11616906  0.22942165
  H  4.77339784 -0.13855214 -1.24620791
  H  4.81817516  0.66177976  0.35796412
  H  0.30860898 -1.44745117 -1.44884321
  H  1.38496213  1.98593377 -0.59429426
  H -0.01146501  2.18249557  0.50383903
  H  1.39621131  1.22496953  0.99229840
  H -0.98227950  2.23260208 -1.65303553
  H -2.46810138  1.53073403 -2.27638529
  H -2.56265366  2.93817920 -1.22833336
  H -2.68558099 -2.40447819  1.76013605
  H -2.83739459 -0.65089591  2.05705646
  H -3.51378670 -1.33110951  0.59907009
