18
opt_min/./Reactant_4013_0_opt.xyz
  C  4.20446915 -0.03270091 -0.53298800
  O  2.85062788  0.29601550 -0.28118561
  C  1.95183336 -0.71778931 -0.43698963
  O  2.23038036 -1.84698464 -0.80443419
  C  0.65987354 -0.34350095 -0.11849564
  N -0.50055812 -0.14473203  0.07164434
  C -1.73450691  0.03301717  0.30287426
  C -2.69946499 -1.08609627  0.05739117
  C -2.22685171  1.39335966  0.69341317
  H  4.75513243 -0.02718275  0.41028987
  H  4.61541183  0.72130629 -1.20479383
  H  4.26928923 -1.02224152 -0.99135508
  H -3.12569593 -1.01414088 -0.94558603
  H -2.19887134 -2.04729135  0.14382052
  H -3.51540443 -1.03891935  0.77501734
  H -3.12200889  1.30551903  1.30390535
  H -1.46463156  1.92979596  1.25416029
  H -2.47504981  1.98306988 -0.19137071
