24
opt_min/./Reactant_1313_1_opt.xyz
  C  3.01541300  1.78248700 -0.04150800
  O  1.71696947  1.21345944 -0.11622668
  C  1.48081813  0.12456452  0.63868679
  O  2.33468491 -0.40836376  1.31520218
  C  0.11012105 -0.37254073  0.51869758
  O -0.17050246 -1.62096030  1.06222316
  C  0.65087789 -2.69167095  0.62285460
  C -0.92213363  0.36470805  0.01065022
  O -0.71162262  1.64384889 -0.34158692
  C -1.83269023  2.41325008 -0.74003204
  O -2.20885292 -0.00708411 -0.12740703
  C -2.58610394 -1.37327607 -0.12859710
  H  2.91835319  2.81095188  0.30556049
  H  3.45533753  1.76901824 -1.03913522
  H  3.63424331  1.20726931  0.65025168
  H  0.23706552 -3.58341819  1.08824818
  H  0.61526578 -2.79507590 -0.46707344
  H  1.68389639 -2.55531235  0.94295259
  H -1.43351917  3.40097327 -0.95708731
  H -2.57599824  2.47497038  0.05740439
  H -2.30336562  1.99665598 -1.63390425
  H -3.62430648 -1.37410151 -0.45586100
  H -2.50213814 -1.80867852  0.86578037
  H -1.97633641 -1.94492336 -0.83084119
