29
opt_min/./Reactant_5381_1_opt.xyz
  C  1.66237975  1.88194999 -1.99609058
  C  1.37020312  0.79768334 -0.99917245
  N  0.14102840  0.43019241 -0.85887277
  C -0.99237240  0.13790366 -0.69228692
  C -2.30801539 -0.17795262 -0.46849542
  C -2.65436163 -1.23256585  0.40244979
  C -3.97711909 -1.54354425  0.61765685
  C -4.98791977 -0.83230409 -0.01526832
  C -4.65456991  0.20602606 -0.87248020
  C -3.34110692  0.54092388 -1.10722758
  C  2.39159746  0.20014642 -0.17833589
  C  2.10349232 -0.92544850  0.61135939
  C  3.06804975 -1.49024017  1.41728414
  C  4.34707004 -0.95699484  1.46480656
  C  4.64582739  0.15219365  0.69119142
  C  3.68882979  0.72662277 -0.11970173
  H  1.76738790  2.85337576 -1.50598370
  H  2.59775811  1.66832932 -2.51137195
  H  0.86135296  1.95316721 -2.72745981
  H -1.86903376 -1.78452511  0.89668209
  H -4.22693605 -2.35518227  1.28574641
  H -6.02172067 -1.08583542  0.15941938
  H -5.43693340  0.76676552 -1.36448411
  H -3.08301944  1.34985682 -1.77324765
  H  1.11314392 -1.35657913  0.57951577
  H  2.82482741 -2.35769681  2.01462302
  H  5.10012743 -1.40081846  2.09814507
  H  5.63804922  0.57991547  0.72429065
  H  3.93883128  1.59893889 -0.70287454
