10
opt_min/./Reactant_3332_1_opt.xyz
  C -1.67921387  1.38614119 -0.33670084
  C -0.68635264  0.42435824  0.03335135
  N  0.14048810 -0.33903049  0.35232336
  C  1.06744786 -1.18477384  0.66702659
  C  2.15155242 -1.39557958 -0.16769880
  N  3.06001078 -1.57601972 -0.85501489
  H -1.57935659  1.58521545 -1.40405943
  H -1.56490262  2.32675868  0.20915460
  H -2.67716127  0.98265839 -0.15548641
  H  0.97693452 -1.73029756  1.59123424
