36
opt_min/./Reactant_2840_0_opt.xyz
  C  3.13224240  2.36711113  1.40037427
  N  2.25434885  1.45664416  0.70288629
  C  2.72873577  0.49423748 -0.10357879
  O  3.89779831  0.28289191 -0.30923127
  C  1.61989444 -0.40405922 -0.72685684
  C  2.10090729 -0.87513335 -2.10897194
  F  2.51669194  0.14742228 -2.86071760
  F  1.11259699 -1.47307317 -2.79962714
  F  3.09229299 -1.76364391 -2.04323903
  C  0.35187471  0.27074083 -0.86608152
  C -0.81154129  0.46261668 -0.64279124
  C -2.11255274  0.38819882 -0.00479050
  C -3.15502085 -0.12769820 -1.01408458
  F -4.40958374 -0.03508664 -0.55973170
  F -2.96273828 -1.41656106 -1.30986982
  F -3.10347707  0.54556383 -2.16514148
  C -2.50376837  1.80684298  0.45714038
  F -2.32436898  2.71251951 -0.50846539
  F -1.72486271  2.19943774  1.48276477
  F -3.76305433  1.92054089  0.87622061
  C -1.87856271 -0.54875493  1.19911252
  C -1.25612762 -1.95064011  0.96821016
  C -0.08601149 -2.25292380  0.00762983
  C  1.29991081 -1.59777005  0.22151075
  H  2.78710070  3.39282698  1.27340303
  H  3.16431342  2.12750832  2.46542902
  H  4.13193400  2.26188279  0.98088352
  H  1.25937545  1.60871242  0.77532520
  H -1.24927271  0.00067683  1.90225322
  H -2.84214578 -0.72774302  1.69122458
  H -0.96755360 -2.28001946  1.96988124
  H -2.05881304 -2.60534850  0.62130789
  H  0.06809753 -3.32821269  0.13216640
  H -0.41209450 -2.12016708 -1.02151168
  H  2.06539287 -2.35810379  0.06541865
  H  1.39564769 -1.26190972  1.25567178
