39
opt_min/./Reactant_2782_0_opt.xyz
  C  4.34985219  1.94525305  1.81358252
  O  3.43272205  1.36982361  0.89060291
  C  2.48817458  0.58048584  1.39194572
  O  2.35731230  0.31318543  2.55131925
  C  1.61222355  0.02884708  0.25712962
  C  2.46483164 -1.07989236 -0.37154320
  O  3.36868635 -0.87668561 -1.13509982
  O  2.09151874 -2.27490026  0.06717105
  C  2.84301754 -3.38751448 -0.40349314
  C  0.32565770 -0.42410404  0.71736409
  C -0.86234476 -0.37647013  0.86554336
  C -2.26084436 -0.09629190  0.59067231
  O -2.52940161  1.11585552  1.26829656
  C -3.86468694  1.54667580  1.43329096
  C -3.10303015 -1.30078143  1.08123914
  F -4.42595842 -1.08494027  1.15440648
  F -2.96211623 -2.34726754  0.24601536
  F -2.72292227 -1.72460997  2.28837516
  C -2.32949907  0.06610577 -0.94062860
  C -1.32352108  1.05790092 -1.56510155
  C  0.16306824  0.67781157 -1.79796723
  C  1.23809524  1.11591157 -0.77538712
  H  4.57778889  1.23821839  2.61317801
  H  5.24409561  2.18934431  1.24528879
  H  3.91883466  2.84917829  2.24829806
  H  2.37914327 -4.26791008  0.03222150
  H  2.81011625 -3.43071627 -1.49375033
  H  3.88347461 -3.30174533 -0.08455192
  H -4.45769842  1.43009748  0.52221774
  H -4.36184183  1.03135219  2.25964501
  H -3.78489381  2.60592208  1.67536021
  H -3.33176253  0.41383525 -1.20568685
  H -2.19599693 -0.90840410 -1.41427621
  H -1.72696819  1.20716233 -2.57100742
  H -1.37578754  2.01337574 -1.04254597
  H  0.41738965  1.23360186 -2.70320036
  H  0.24709814 -0.38653724 -2.00902404
  H  0.89440148  2.00551793 -0.24789973
  H  2.14383479  1.37502846 -1.32743271
