31
opt_min/./Reactant_1840_0_opt.xyz
  C  4.05693300  2.79071100  1.00502300
  N  3.28431242  1.79020202  0.31154528
  C  2.00586304  1.55085442  0.61720477
  O  1.38419822  2.12461613  1.51232779
  C  1.31908725  0.50178071 -0.17737582
  N  0.06394991  0.35845287  0.21148638
  N -0.82274451 -0.46993777 -0.20390851
  C -2.07983862 -0.46559509  0.35502454
  C -2.51390017  0.34392890  1.41190600
  C -3.80874802  0.23599415  1.87666755
  C -4.69462857 -0.66697462  1.31231807
  C -4.27218137 -1.47802528  0.26916076
  C -2.98177807 -1.38077617 -0.20398003
  C  1.93875746 -0.21960618 -1.29947073
  O  3.10909690 -0.03722372 -1.63690783
  N  1.12812928 -1.08710564 -1.93377100
  C  1.56241805 -1.85067457 -3.07558043
  H  3.82484447  2.75287808  2.07055560
  H  5.11665587  2.60417028  0.84662559
  H  3.81425786  3.79570601  0.64404508
  H  3.69952841  1.26523518 -0.45654979
  H -0.14656208  1.03897685  0.97470913
  H -1.85058110  1.05540869  1.88504534
  H -4.13215191  0.86581701  2.69331760
  H -5.70550091 -0.73999810  1.68311186
  H -4.95722948 -2.18768743 -0.17211871
  H -2.63927217 -2.00570277 -1.01468350
  H  0.17475044 -1.19958064 -1.59564970
  H  1.32806279 -2.90611131 -2.93479546
  H  1.07742145 -1.49367484 -3.98852168
  H  2.64114128 -1.72481605 -3.18105619
