13
opt_min/./Reactant_4053_1_opt.xyz
  C -2.12391901 -0.10109464 -0.79514399
  C -0.67704975 -0.02042551 -0.49357930
  N -0.11280327 -0.13947473  0.69380894
  C  1.26068286  0.01177476  0.57704845
  C  2.12496453 -0.05464627  1.65924397
  N  2.82455298 -0.10211537  2.57030955
  C  1.54022919  0.24614649 -0.79517486
  O  2.51871604  0.44032293 -1.45732950
  O  0.22877458  0.20847447 -1.41360657
  H -2.59619200  0.87501040 -0.67510588
  H -2.25534533 -0.42002708 -1.82671258
  H -2.60972074 -0.81090162 -0.12942935
  H -0.59384636 -0.32889869  1.56115756
