14
opt_min/./Reactant_3321_1_opt.xyz
  C -3.05742844  0.69840475  0.04862716
  N -2.26116781 -0.12540193 -0.24785664
  C -1.33557305 -1.01996706 -0.24968029
  C -1.71240084 -2.37221788 -0.25765076
  N -2.06251511 -3.46465693 -0.28155730
  C  0.10610503 -0.65528651 -0.32195095
  O  0.95637122 -1.45926011 -0.63774219
  N  0.37281618  0.63872768 -0.01113532
  C  1.71302981  1.16731646 -0.04591003
  H -3.74541839  1.36050355 -0.40910392
  H -0.37111503  1.25131560  0.28157764
  H  1.98015407  1.60916028  0.91584656
  H  1.81377173  1.92523465 -0.82622326
  H  2.38437010  0.33642951 -0.25508599
