23
opt_min/./Reactant_700_0_opt.xyz
  C -0.55459413  0.74388550 -2.37803784
  C  0.86604088  0.60049085 -1.84297080
  O  1.81708009  0.87731051 -2.56006200
  C  1.02339364  0.23679962 -0.46350107
  C  2.25700210  0.41724991  0.16126391
  N  3.25504460  0.49950843  0.73207242
  N -0.00069358 -0.26376462  0.34021460
  C -0.76998411 -1.37985727 -0.17430604
  C -0.19445199  0.15651153  1.57025374
  C -1.09486755 -0.59353561  2.49140496
  C  0.46152703  1.39286851  2.05456927
  H -0.86184223 -0.16107971 -2.89941156
  H -1.27029312  0.97164431 -1.59132070
  H -0.54825985  1.54947073 -3.10842345
  H -0.48011447 -1.57334739 -1.20210639
  H -1.83982057 -1.17312653 -0.12491233
  H -0.55942802 -2.27909661  0.40845231
  H -2.13803178 -0.51596183  2.17790906
  H -1.01140765 -0.19927765  3.49937210
  H -0.84166968 -1.65365783  2.51638725
  H  0.57830363  2.10159113  1.23232591
  H  1.46967783  1.19285623  2.42959369
  H -0.11993355  1.84527995  2.85361233
