21
opt_min/./Reactant_4886_0_opt.xyz
  C  2.65636154  0.20370729 -1.98649684
  N  1.86928389  0.39118417 -0.78701672
  C  1.20150350 -0.63790838 -0.23975857
  O  1.31390244 -1.79802925 -0.55674921
  C  0.30347039 -0.25520435  0.92602824
  C  0.82889010 -0.50093715  2.19117493
  N  1.30668985 -0.70016348  3.21970805
  N -0.95993287  0.10742423  0.75575305
  C -1.79628246  0.25632045  1.93633260
  C -1.55165695  0.30919127 -0.44053653
  C -0.89953213  0.18641537 -1.67344112
  N -0.46342817  0.17053627 -2.73772193
  C -2.89986565  0.67885406 -0.52266731
  N -4.00483878  0.98114632 -0.62251394
  H  3.37171919  1.01572986 -2.07881036
  H  2.00735697  0.17583511 -2.86536799
  H  3.17584524 -0.74967785 -1.90463529
  H  1.67751805  1.33793448 -0.49974915
  H -2.27809902 -0.69541543  2.16791496
  H -1.18990963  0.55394033  2.78985638
  H -2.56780382  1.00341276  1.75338632
