35
opt_min/./Reactant_2721_0_opt.xyz
  C -1.85318400  2.96870300  1.55807600
  O -1.58825133  1.69761006  0.98527664
  C -0.30609221  1.30617956  0.93963185
  O  0.61015437  1.92485080  1.41942455
  C -0.21494436 -0.03242872  0.32069423
  N  0.93306844 -0.57756831 -0.01397974
  C  2.11378099  0.05762907 -0.26317386
  C  2.04757617  1.36782924 -0.89688478
  C  3.35276000  2.01959772 -1.24608137
  O  0.97233564  1.86187419 -1.19908146
  C  3.31392845 -0.72945075 -0.10214398
  O  4.44997394 -0.41660741 -0.37676757
  O  3.00925043 -1.95192249  0.43872957
  C  4.10550723 -2.81471643  0.68698593
  C -1.44957248 -0.82230251  0.16165719
  C -2.11583351 -1.33815718  1.26944280
  C -3.27241538 -2.07673988  1.09904332
  C -3.77368046 -2.30141770 -0.17261890
  C -3.11431406 -1.78871218 -1.27677559
  C -1.95300086 -1.05416979 -1.11415509
  H -0.93371371  3.55478270  1.60739564
  H -2.25736725  2.83307102  2.56343653
  H -2.58837697  3.46222767  0.92449289
  H  0.91442135 -1.57999338 -0.21333377
  H  3.91144412  2.20560445 -0.33182167
  H  3.15655427  2.95509867 -1.76376197
  H  3.95660175  1.36209548 -1.86608641
  H  4.52017568 -2.61378341  1.67759637
  H  3.72163250 -3.83220377  0.64133071
  H  4.88433160 -2.66013936 -0.06285358
  H -1.72146710 -1.15850660  2.25821313
  H -3.78509063 -2.47808313  1.96040707
  H -4.67974695 -2.87446692 -0.30213724
  H -3.50590329 -1.95909240 -2.26821265
  H -1.43801884 -0.64280553 -1.96905262
