25
opt_min/./Reactant_4039_1_opt.xyz
  C  4.21842200 -0.74912500  1.89919300
  N  2.79123437 -0.57936666  1.80137929
  C  2.14299720 -0.56345286  0.60833105
  O  2.71635563 -0.73509086 -0.47021792
  C  0.71249575 -0.33923553  0.65720324
  N  0.13639433 -0.33367442 -0.53046587
  C -1.10920582 -0.15969734 -0.94486827
  C -1.34932846 -0.20961340 -2.42302040
  C -2.17296590  0.07717957  0.01803017
  O -2.00261571  0.07095286  1.23418996
  N -3.40799156  0.31536464 -0.51896635
  C -4.56183795  0.55965799  0.30666889
  H  4.72490977  0.21034596  2.05456334
  H  4.56737934 -1.17483435  0.95780096
  H  4.46306460 -1.42205439  2.72188616
  H  2.26360637 -0.42025392  2.64491651
  H  0.13575716 -0.20512585  1.55164966
  H  0.85300794 -0.49210413 -1.25973114
  H -2.08222415 -0.97608871 -2.68565269
  H -1.70523916  0.75175016 -2.80287674
  H -0.42052424 -0.44836087 -2.94190089
  H -3.53764770  0.32163035 -1.51614218
  H -4.21995604  0.57398571  1.34181445
  H -5.01926005  1.52233121  0.06143832
  H -5.30631615 -0.23347507  0.18544790
