38
opt_min/./Reactant_5513_1_opt.xyz
  C  5.37199300 -0.90467200  0.94138100
  N  3.93372602 -0.84436958  1.00365152
  C  3.24588907  0.18797745  0.41740466
  O  3.85584490  1.09940381 -0.13948167
  C  1.82167701  0.05836648  0.55118235
  N  0.90253246  0.92818267  0.10103222
  C  1.37692672  2.21958106 -0.35793236
  C -0.39828036  0.63071202  0.02384564
  C -0.86823242 -0.75342928  0.05213903
  C -0.21283586 -1.77000398 -0.64882051
  C -0.71472037 -3.05482146 -0.66692651
  C -1.87738408 -3.36600491  0.02203440
  C -2.53896138 -2.36969916  0.72114102
  C -2.04499207 -1.08012913  0.73323306
  C -1.42185339  1.67017562 -0.05802135
  C -1.36918186  2.81621741  0.74412570
  C -2.36870987  3.76644881  0.68066762
  C -3.44267514  3.59861157 -0.17887346
  C -3.51445597  2.46243239 -0.96903235
  C -2.51916764  1.50760441 -0.90798954
  H  5.71039199 -1.24123545 -0.04402531
  H  5.77663773  0.09369501  1.11128053
  H  5.74378817 -1.58772900  1.70113440
  H  3.43709070 -1.60595787  1.42910513
  H  1.43611569 -0.84351357  0.99964589
  H  1.81729303  2.78027940  0.46520367
  H  0.56745292  2.78472813 -0.81118206
  H  2.17309105  2.05666835 -1.08574651
  H  0.68928942 -1.54275426 -1.20039036
  H -0.19726873 -3.82087826 -1.22655983
  H -2.26171729 -4.37460129  0.01203494
  H -3.44545825 -2.59939828  1.26231006
  H -2.56526544 -0.30926344  1.28315099
  H -0.55405754  2.94252123  1.44167942
  H -2.31562535  4.64053025  1.31372709
  H -4.22074865  4.34553778 -0.22746748
  H -4.34972305  2.32261315 -1.63958010
  H -2.57553163  0.62540110 -1.52956512
