26
opt_min/./Reactant_2466_1_opt.xyz
  C  3.89600255 -1.44458172  0.79974092
  O  2.81884930 -1.12036482 -0.06858866
  C  1.58717234 -1.28933279  0.39212676
  O  1.30368969 -1.67591847  1.49265569
  C  0.54912635 -0.87776286 -0.65025007
 Br  1.10065842 -1.61898030 -2.38754451
  C -0.77674709 -1.30209019 -0.29624917
  C -1.91898196 -1.12045217  0.03312056
  C -3.14497729 -0.42923162  0.30160257
 Cl -4.54344888 -1.23012543 -0.50252487
 Cl -3.47109569 -0.34802882  2.05067187
  C -2.94270813  0.96802457 -0.29928628
  C -1.77079661  1.80706915  0.25791043
  C -0.33874853  1.26787665  0.46177059
  C  0.43269565  0.66637256 -0.73675422
  H  4.71915123 -1.77062538  0.16752561
  H  4.18299009 -0.55798021  1.36913841
  H  3.59659730 -2.23589715  1.48994649
  H -2.84659590  0.84544412 -1.38042346
  H -3.84450582  1.55935753 -0.11234414
  H -1.71196199  2.67934878 -0.39858973
  H -2.07566203  2.15535671  1.24810906
  H  0.22711346  2.14325301  0.79451896
  H -0.32636328  0.56398293  1.29323912
  H -0.05319222  0.94526988 -1.67244335
  H  1.44193883  1.08263908 -0.75958752
