31
opt_min/./Reactant_1609_1_opt.xyz
  C  0.45787700 -2.34435700 -2.31806800
  C -0.21515820 -1.02897204 -2.04638558
  O -0.20227706 -0.10679591 -2.82164757
  C -0.94933131 -0.94549236 -0.72965647
  C -1.89655825 -2.06351269 -0.46700534
  C -2.36396132 -2.29167181  0.94528626
  O -2.27051361 -2.77900783 -1.37028963
  C -0.77098528  0.14190436  0.04301598
  C -1.51346931  0.48415682  1.30035723
  C -0.62535104  0.50677523  2.52054519
  O -2.67504297  0.79595416  1.32037411
  C  0.21926548  1.18351453 -0.28877693
  C  1.54635834  0.84837427 -0.54308925
  C  2.46989977  1.83587148 -0.82860969
  C  2.08030016  3.16425093 -0.86839772
  C  0.76233646  3.50451597 -0.61138714
  C -0.16309822  2.52277793 -0.31194071
  H  0.92344671 -2.74550225 -1.42046157
  H  1.18764049 -2.22847567 -3.11403404
  H -0.30994591 -3.04767784 -2.64042308
  H -2.73440284 -3.31098214  1.02611639
  H -3.18870749 -1.61343346  1.15679417
  H -1.57539159 -2.12159334  1.67249646
  H  0.04737313 -0.34749681  2.53548812
  H -0.01610720  1.40912211  2.48125347
  H -1.23148671  0.52951997  3.42252614
  H  1.85255143 -0.18706158 -0.50475852
  H  3.49676440  1.56645216 -1.02609858
  H  2.80290944  3.93221348 -1.09966846
  H  0.45326319  4.53838670 -0.64520541
  H -1.19366476  2.78484768 -0.12310916
