18
opt_min/./Reactant_1247_0_opt.xyz
  C  3.03564000  0.09414800  0.06155500
  N  1.59996134  0.02097693  0.23397364
  C  0.87048428 -0.93802662 -0.38667270
  O  1.31210853 -1.74009200 -1.17150665
  C -0.58502863 -0.86860040 -0.04325492
  O -1.31242450 -1.90469246  0.28292820
  C -2.70575195 -1.37438200  0.43955969
  O -3.59028645 -2.09927163  0.75159756
  N -2.62641663 -0.07830368  0.16241737
  N -1.35454455  0.20569702 -0.11848104
  C -0.99885835  1.54657330 -0.49621177
  H  3.54412824 -0.00089384  1.01993911
  H  3.30894570  1.04518741 -0.39888631
  H  3.33695371 -0.72124223 -0.59366438
  H  1.19408287  0.55791520  0.98362280
  H -0.72763949  2.13127564  0.38464245
  H -0.16949667  1.53392581 -1.19988140
  H -1.87895092  1.99738281 -0.95269181
