26
opt_min/./Reactant_4126_0_opt.xyz
  C -1.81143700  2.98957400  1.05349800
  N -0.85431797  1.97557909  0.68357245
  C -1.24144878  0.68268660  0.48133196
  O -2.39840834  0.33245474  0.61718073
  C -0.15622957 -0.22022860  0.06750420
  O  1.01975169  0.37333458 -0.19321445
  C  2.20719470 -0.10387859 -0.29658067
  C  2.59341310 -1.51327915 -0.08185022
  C  3.26591094  0.90547133 -0.60790120
  C -0.43485042 -1.60638171 -0.24972894
  O  0.16158018 -2.23462439 -1.11524993
  O -1.45206824 -2.10515174  0.45874547
  C -1.97605248 -3.36112825  0.06385599
  H -1.92633839  3.04478352  2.14005979
  H -1.49177549  3.95821420  0.67353866
  H -2.77635515  2.72387162  0.62179137
  H  0.10303522  2.24583659  0.53971367
  H  2.26791367 -1.84214697  0.90861688
  H  3.66835012 -1.63271073 -0.17267985
  H  2.07479418 -2.16688004 -0.79529335
  H  3.76483940  0.64638203 -1.54175572
  H  2.83513549  1.89875324 -0.70614405
  H  4.01882957  0.91944384  0.17969861
  H -1.92406486 -4.04013541  0.91635157
  H -1.39921615 -3.76536569 -0.77085641
  H -3.01691634 -3.21970554 -0.23017204
