29
opt_min/./Reactant_742_1_opt.xyz
  C  4.05661200 -0.80471900 -0.35365200
  N  2.70736410 -0.89513697  0.14345614
  C  1.75891832  0.02112673 -0.15814661
  O  1.97187740  0.98676182 -0.87030319
  C  0.43468068 -0.22371107  0.44029430
  C -0.48490096  0.73330097  0.64914545
  C -0.32710884  2.20017728  0.49469687
  C -0.92132382  2.75069930 -0.77713283
  O  0.20910290  2.87887285  1.33256130
  C -1.76181642  0.04248681  1.08204503
  C -2.29805418 -0.67139813 -0.17997142
  C -1.23298542 -1.75159334 -0.44858717
  C -0.23635389 -1.55133391  0.71991755
  C -1.18211446 -1.14597163  1.85774518
  H  4.77041941 -0.87578920  0.46728934
  H  4.26263970 -1.59939800 -1.07552962
  H  4.16284682  0.15984714 -0.84472898
  H  2.48805201 -1.65906808  0.75893127
  H -0.43527048  2.27824934 -1.62507098
  H -0.77889576  3.82538808 -0.82088274
  H -1.98411411  2.51888162 -0.81263173
  H -2.48574213  0.67187256  1.59337851
  H -3.26622754 -1.11810826  0.04338458
  H -2.41862214  0.00975496 -1.01857243
  H -1.66334403 -2.75064111 -0.42441828
  H -0.73675407 -1.61223527 -1.40762604
  H  0.40906145 -2.40731385  0.90180331
  H -0.65174667 -0.84432405  2.75840181
  H -1.92316746 -1.90569196  2.10003540
