28
opt_min/./Reactant_2927_1_opt.xyz
  C -2.81590900  1.46591400  1.03579200
  N -1.86477362  0.47633106  0.59438923
  C -1.70285504  0.17645494 -0.71310558
  O -2.34712527  0.70430867 -1.60120573
  C -0.78951933 -0.96660317 -1.01536310
  C -1.05371584 -1.69481941 -2.29010252
  O  0.12907760 -1.47469760 -0.26921520
  C  0.75506247 -0.96735532  0.80871157
  C  1.37896038 -1.95761474  1.68490939
  C  1.14151691 -3.40044107  1.28317746
  O  1.98820168 -1.66283050  2.68899711
  C  1.03233101  0.45718700  0.95751184
  O  1.56567309  0.97860239  1.90265404
  O  0.68363731  1.14627505 -0.16663945
  C  1.04689585  2.51663028 -0.19295259
  H -2.34102798  2.14508228  1.74330523
  H -3.15109850  2.01627563  0.15872840
  H -3.67676808  0.99328294  1.51326255
  H -1.36918244 -0.03386735  1.31012214
  H -1.81404218 -1.15871499 -2.85012039
  H -0.14191002 -1.75838274 -2.88194166
  H -1.39121099 -2.71375762 -2.09815432
  H  1.24204071 -3.53556484  0.21065748
  H  1.85207830 -4.02968656  1.80995961
  H  0.13541124 -3.69405049  1.57918717
  H  0.42488086  2.98009791 -0.95404124
  H  0.87224951  2.96759110  0.78564690
  H  2.10390762  2.62264892 -0.44600403
