28
opt_min/./Reactant_5548_1_opt.xyz
  N -1.20338999 -1.66791701  3.76209800
  C -0.69887873 -1.16388716  2.85762883
  C -0.06542865 -0.57448090  1.75935633
  O -0.65327820 -0.80809069  0.59756387
  C -0.22559161 -0.54568545 -0.59678071
  C -1.02391031 -0.89288645 -1.72713045
  C -2.28882843 -1.48534090 -1.58468033
  C -3.03919358 -1.80458309 -2.69508844
  C -2.55278792 -1.54160435 -3.96877286
  C -1.30445923 -0.95619100 -4.12336676
  C -0.54370493 -0.63134666 -3.02091083
  C  1.14653266  0.19679802  1.98724062
  C  1.45604505  1.34146228  1.24348023
  C  2.60757927  2.05555345  1.51455136
  C  3.46635726  1.65483229  2.52418576
  C  3.15319668  0.53944874  3.28729822
  C  2.00677765 -0.18170792  3.02495150
  H  0.74883694 -0.09754149 -0.75198682
  H -2.66603286 -1.69040029 -0.59374257
  H -4.01003239 -2.26062592 -2.57407319
  H -3.14503010 -1.79207652 -4.83546281
  H -0.92496837 -0.75171614 -5.11400916
  H  0.42847485 -0.17682940 -3.14143232
  H  0.77669884  1.71095924  0.48929588
  H  2.83045460  2.93870784  0.93325216
  H  4.36728127  2.21447585  2.72465424
  H  3.80888220  0.23035251  4.08724108
  H  1.76199263 -1.04973040  3.61959109
