26
opt_min/./Reactant_5718_0_opt.xyz
  C  0.71601900  1.41228200  0.33446500
  O  1.02052065  2.54485557  0.65430507
  C -0.56689779  1.13148725 -0.35591293
  O -1.23225653  2.28027052 -0.59905462
  C -2.61646206  2.29154051 -0.87806557
  C -0.94146116 -0.14047577 -0.69271507
  O -2.09982347 -0.30674581 -1.40030593
  C -2.70964064 -1.57459163 -1.54527673
  C -0.06130132 -1.28096871 -0.37987319
  O -0.34796985 -2.43040553 -0.68135683
  C  1.21615850 -0.99423178  0.31557952
  C  2.06957892 -2.17907126  0.62631707
  C  1.59750133  0.26016302  0.62066685
  C  2.90072877  0.57007400  1.27865563
  H -2.90236447  3.34174569 -0.84703224
  H -2.83276648  1.87975513 -1.86488012
  H -3.18085411  1.73885368 -0.12390330
  H -3.67989735 -1.36172751 -1.99286444
  H -2.13431774 -2.22469857 -2.20697994
  H -2.85007700 -2.07672685 -0.58659530
  H  2.35947382 -2.18085256  1.67408742
  H  1.52777600 -3.09153269  0.39506243
  H  2.97983558 -2.15317520  0.02939384
  H  2.96061219  0.09160104  2.25504150
  H  2.99617006  1.64413095  1.40461570
  H  3.72890429  0.20016148  0.67830322
