19
opt_min/./Reactant_1776_0_opt.xyz
  C -1.33396814 -1.51786513  1.28989675
  C  0.12116654 -1.49434029  0.87766326
  O  0.84710171 -2.41365841  1.21309914
  C  0.70723866 -0.36323702  0.15696817
  C  2.19899209 -0.27256625  0.15877689
  N  0.08902474  0.59518957 -0.52003884
  C -1.35093285  0.64728207 -0.74422642
  N  0.83684391  1.52091594 -1.05037835
  C  0.39727308  2.50415983 -1.76064688
  N  0.15061385  3.42225321 -2.41840102
  H -1.45233701 -2.32621143  2.00721274
  H -1.63288873 -0.58488776  1.76043659
  H -1.98569634 -1.72471771  0.44531017
  H  2.57226312 -0.22183113 -0.86438685
  H  2.61826956 -1.13855794  0.66120448
  H  2.51767191  0.64216994  0.65785997
  H -1.55277600  1.43640610 -1.46970715
  H -1.71267472 -0.29685686 -1.14553886
  H -1.87705923  0.88310695  0.17900870
