28
opt_min/./Reactant_2151_1_opt.xyz
  C -1.48501773  2.29449088  1.69177433
  C -1.31262798  0.89427702  2.20072563
  O -1.87757618  0.44505561  3.15809583
  C -0.34767540  0.03618411  1.35666740
  C  0.45636622 -0.86309867  2.30858055
  F  0.99281451 -0.15484290  3.31440349
  F  1.49123090 -1.46975040  1.70023976
  F -0.27069242 -1.83853903  2.85741853
  C  0.56287820  0.77670215  0.51220904
  C  1.16816373  1.06980165 -0.47992736
  C  1.70931410  0.98052511 -1.81284308
  C  1.42462085 -0.47873178 -2.21776601
  C -0.03904512 -0.93380042 -2.03900949
  C -0.44727041 -1.61909934 -0.71104306
  C -1.19775679 -0.80668007  0.36450120
  H -2.27536639  2.79659886  2.24293808
  H -1.71149781  2.28139441  0.62796876
  H -0.54895024  2.83555353  1.82230015
  H  2.77634465  1.19816351 -1.85231353
  H  1.18171546  1.66732668 -2.47905972
  H  1.69072849 -0.58772280 -3.27106449
  H  2.06920867 -1.14165105 -1.63850402
  H -0.72362753 -0.11459634 -2.26479575
  H -0.19433537 -1.69576172 -2.80785411
  H  0.41456512 -2.13103981 -0.28650505
  H -1.16617353 -2.39420460 -0.99179704
  H -1.88645563 -0.12444569 -0.13933022
  H -1.79541895 -1.49916649  0.96245749
