23
opt_min/./Reactant_936_0_opt.xyz
  C -3.57755500 -0.53195800 -0.06956900
  N -2.47164236  0.35493249  0.03993164
  N -1.34016351 -0.19086644  0.14919327
  C -0.15502181  0.39227201  0.33391896
  C  1.05526379 -0.45994592  0.30419593
  O  1.98451504 -0.35493151  1.07349113
  N  1.02502855 -1.41887454 -0.67073590
  C  2.14332958 -2.31333464 -0.87511370
  C -0.07377611  1.81134205  0.68949418
  O -1.00476189  2.50157380  1.02781976
  O  1.19306322  2.25623977  0.60402846
  C  1.40335278  3.59963835  1.00469116
  H -3.28087330 -1.55008087 -0.37718994
  H -4.27714681 -0.11281726 -0.78927474
  H -4.09057662 -0.60132969  0.89305134
  H -1.28062803 -1.23250234  0.06534158
  H  0.36387278 -1.35879066 -1.42715584
  H  2.49973332 -2.26130164 -1.90322480
  H  1.85949575 -3.34339686 -0.64529946
  H  2.93970807 -2.00717055 -0.19831449
  H  1.01310388  4.28443809  0.24810084
  H  2.47862241  3.71927117  1.10900763
  H  0.89991529  3.79722213  1.95309369
