36
opt_min/./Reactant_5771_1_opt.xyz
  C  2.29604900  3.24838900 -0.58277400
  C  0.84426801  2.87680490 -0.32411277
  O  0.01173085  3.77854357 -0.20903370
  C  0.57020677  1.47671538 -0.23609608
  C  1.69479414  0.51371902 -0.27683764
  C  1.85189379 -0.34111398 -1.36632603
  C  2.91255072 -1.22542460 -1.41844445
  C  3.83058340 -1.27355552 -0.38184883
  C  3.68027279 -0.43347040  0.70840194
  C  2.61998038  0.45284894  0.76210092
  N -0.67842337  0.94473017 -0.11465967
  C -1.82509198  1.82779635 -0.19897203
  C -0.86411792 -0.33695156  0.15922698
  C -2.08086057 -1.09749794  0.06072291
  C -3.07035623 -0.86622153 -0.90678750
  C -4.19132362 -1.66829199 -0.97516740
  C -4.35936258 -2.72272821 -0.09139879
  C -3.37455115 -2.98690620  0.84772590
  C -2.24768392 -2.19526180  0.91717197
  H  2.31260008  4.21357008 -1.08327053
  H  2.81651072  2.50871924 -1.18229795
  H  2.81406918  3.35715287  0.36860270
  H  1.13849785 -0.30333096 -2.17777442
  H  3.02605751 -1.87727619 -2.27222205
  H  4.65956791 -1.96398501 -0.42471577
  H  4.39103640 -0.47010152  1.52108587
  H  2.49993956  1.10488355  1.61508000
  H -2.72532293  1.29722286  0.09622770
  H -1.66229697  2.67720741  0.46459798
  H -1.92858282  2.23092247 -1.20580007
  H  0.01389319 -0.88910646  0.46395792
  H -2.93689622 -0.08438515 -1.63912456
  H -4.93912208 -1.47595267 -1.73088479
  H -5.24143801 -3.34224535 -0.14557659
  H -3.48636801 -3.81834404  1.52830099
  H -1.48231819 -2.40650283  1.64963870
