25
opt_min/./Reactant_1283_0_opt.xyz
  C -3.15794100 -1.47634300  0.01725900
  N -1.85189791 -0.87160690 -0.11307753
  C -1.69270563  0.47496354  0.03377386
  O -2.61386013  1.21692929  0.32169954
  C -0.33821784  0.97712838 -0.29386901
  C -0.27743883  2.22939620 -1.11357943
  O  0.80939291  0.45390030  0.01996217
  C  1.14290510 -0.46217912  0.90795155
  C  0.19272999 -1.01590364  1.91688319
  C  2.53579520 -0.84154830  0.96865715
  C  3.47827684 -0.23150672 -0.04751929
  O  2.93624050 -1.63038598  1.81451729
  H -3.04918911 -2.55046011  0.14114980
  H -3.78056328 -1.26916633 -0.85701637
  H -3.65057637 -1.05121727  0.89059972
  H -1.12544691 -1.41575184 -0.54924249
  H -0.92378016  2.97902803 -0.66166683
  H -0.64131330  2.05008513 -2.12576850
  H  0.74264194  2.60008146 -1.16021730
  H -0.37201322 -1.87416243  1.55337394
  H -0.51339017 -0.24587606  2.22931649
  H  0.78051300 -1.34848905  2.77008322
  H  3.83874526 -1.01899555 -0.70630513
  H  4.34012749  0.17243176  0.47824441
  H  3.00725561  0.54728910 -0.63703764
