39
opt_min/./Reactant_5802_1_opt.xyz
  C -2.40758100 -2.94165900 -3.30852600
  O -1.46708063 -2.31619076 -2.45088982
  C -1.88205538 -1.12361031 -1.90502973
  O -2.95476811 -0.63617874 -2.17200399
  C -0.89029182 -0.57119949 -0.99997893
  N  0.22107356 -1.30380847 -0.81259125
  C  1.39144605 -1.05030969 -0.22686476
  C  2.36856127 -2.11198945 -0.04714430
  C  2.07228921 -3.49948160 -0.58927643
  O  3.41790707 -1.91241639  0.54267494
  C  1.75008609  0.30155656  0.22116942
  C  2.27985354  0.51716639  1.48991188
  C  2.61637541  1.79474582  1.89789273
  C  2.43649310  2.87028256  1.04682095
  C  1.93201410  2.66134754 -0.22747073
  C  1.59065327  1.38927687 -0.63891765
  C -1.16877007  0.68023667 -0.30944825
  C -1.69464673  1.77369909 -0.99929602
  C -1.94506416  2.96206647 -0.34210198
  C -1.67984516  3.08263375  1.01227501
  C -1.18839469  1.99319056  1.71251046
  C -0.93979754  0.80152262  1.06259984
  H -2.74547037 -2.24220167 -4.07521931
  H -1.89159146 -3.78600953 -3.76034657
  H -3.27601668 -3.28223675 -2.74166994
  H  0.12838821 -2.22089981 -1.25427786
  H  1.37815684 -3.54457493 -1.42284639
  H  3.01921042 -3.93691213 -0.90129869
  H  1.68514048 -4.11168700  0.22557745
  H  2.41769185 -0.31976132  2.15694577
  H  3.01678453  1.94962309  2.88859282
  H  2.69407058  3.86720622  1.37026688
  H  1.80139003  3.49304503 -0.90310993
  H  1.21240297  1.23712847 -1.63936868
  H -1.89664394  1.68665275 -2.05482802
  H -2.34422936  3.80171800 -0.89161711
  H -1.86551722  4.01560351  1.52184421
  H -0.99743989  2.07146404  2.77231332
  H -0.58495536 -0.04784539  1.62798618
