32
opt_min/./Reactant_5336_1_opt.xyz
  C -1.87092433 -3.08979142  2.91681538
  N -1.31374882 -2.04711000  2.09426693
  C -1.84709244 -0.80234105  2.03765166
  O -2.85160171 -0.49444799  2.67511999
  C -1.16880254  0.12331120  1.13210332
  O -0.03970897 -0.32289472  0.59076339
  C  0.64092750  0.18831607 -0.40286219
  C  0.16629352  1.18496032 -1.28015319
  N -0.16005838  1.83818413 -2.17101945
  C  1.93106349 -0.41848780 -0.67902479
  C  2.47857801 -1.35321259  0.20902886
  C  3.70016389 -1.93626992 -0.05575335
  C  4.40406884 -1.59565426 -1.20100023
  C  3.87769160 -0.66066408 -2.07998706
  C  2.65448837 -0.07391471 -1.82778425
  C -1.50338467  1.55443195  1.02320876
  O -0.68738908  2.33440978  0.53597572
  N -2.69376132  1.92050135  1.52359557
  C -3.08709132  3.30283464  1.60901587
  H -2.75389808 -2.68139644  3.40495350
  H -2.15656396 -3.94949967  2.30824998
  H -1.15434865 -3.40983889  3.67595185
  H -0.49565044 -2.26180028  1.54794735
  H  1.94835995 -1.60604278  1.11578048
  H  4.11032110 -2.65583991  0.63731926
  H  5.36097867 -2.05209139 -1.40287216
  H  4.42658594 -0.38750661 -2.96828828
  H  2.24589244  0.65031497 -2.51509440
  H -3.20612959  1.21711708  2.05007394
  H -3.08067220  3.64960645  2.64446885
  H -2.37761114  3.88998790  1.02743304
  H -4.08917645  3.42706923  1.19782043
