37
opt_min/./Reactant_5839_0_opt.xyz
  C  2.40772600 -0.11997600 -3.45322300
  C  2.71162653 -1.21206638 -2.44526588
  O  3.58043958 -2.03956539 -2.62865720
  C  1.85289157 -1.20550069 -1.26496724
  O  1.04257256 -0.14915264 -1.15769346
  C -0.05179421 -0.03322771 -0.46118069
  C -0.63692318  1.29062187 -0.44441962
  C -1.99400525  1.48301886 -0.15210067
  C -2.53801970  2.75105592 -0.15933267
  C -1.74998042  3.85135597 -0.46392925
  C -0.40904397  3.67392557 -0.76618340
  C  0.14497968  2.41100509 -0.75667203
  C -0.70453657 -1.15603349  0.21466234
  C -1.19357224 -1.01814248  1.51646282
  C -1.83781302 -2.07346515  2.13470237
  C -2.01165160 -3.27262874  1.46337953
  C -1.53823871 -3.41454080  0.16818001
  C -0.88475861 -2.36964436 -0.45370949
  C  2.06768285 -2.20521157 -0.21525283
  C  2.07704021 -1.67367357  1.20817463
  O  2.33218566 -3.36241432 -0.45627184
  H  1.38041271 -0.20026126 -3.80306283
  H  3.08611362 -0.22065926 -4.29562174
  H  2.53418362  0.85858638 -2.99523576
  H -2.62162699  0.62988348  0.05573328
  H -3.58547146  2.88313331  0.06621436
  H -2.18389928  4.83968353 -0.46686715
  H  0.20590604  4.52901020 -1.00458905
  H  1.19446856  2.28044844 -0.97318403
  H -1.03889848 -0.08861153  2.04449131
  H -2.20194342 -1.95859771  3.14495354
  H -2.51390030 -4.09538598  1.94916002
  H -1.67670187 -4.34497640 -0.36048769
  H -0.52848237 -2.49071778 -1.46545883
  H  1.14449113 -1.92016917  1.71496834
  H  2.22720256 -0.59675404  1.24611211
  H  2.88302715 -2.17010851  1.74376275
