21
opt_min/./Reactant_510_0_opt.xyz
  C -2.14140700  0.00293400  0.53843300
  N -0.94364653 -0.80296841  0.68331696
  C -1.03501276 -2.16253875  0.15700026
  C  0.04852698  0.01017213  0.03577755
  C  1.47879914 -0.19316335  0.14974628
  C  1.92735916 -1.23920565  1.14343901
  O  2.26996820  0.47107434 -0.49787295
  C -0.56067760  1.01284633 -0.64420439
  C  0.01302695  2.09006562 -1.47791172
  O -1.90798381  0.98734213 -0.46683313
  H -3.02463173 -0.58893504  0.28402736
  H -2.32947678  0.54062414  1.48312945
  H -1.87801530 -2.27644571 -0.53113474
  H -0.12570514 -2.42272009 -0.38069165
  H -1.16713702 -2.85746127  0.98803127
  H  2.09108942 -2.18283027  0.62515490
  H  1.17769014 -1.38448143  1.91448001
  H  2.87512377 -0.93162697  1.57810403
  H  0.69364457  2.69500977 -0.88070501
  H -0.78484060  2.70974678 -1.87674489
  H  0.60209815  1.66180872 -2.28693779
