26
opt_min/./Reactant_2060_0_opt.xyz
  C -2.00344260  0.25204078  0.34276199
  C -0.91806385 -0.37830953 -0.54009480
  C -1.55077569 -0.98444816 -1.79641836
  C  0.08867673  0.60204786 -0.85775517
  C  1.16131915  1.14118962 -0.80009288
  C  2.42519626  1.51038690 -0.26865184
 Cl  3.75679891  0.71152048 -1.18065234
 Br  2.74605804  3.47859087 -0.30811713
  C  2.42895919  1.04805727  1.19087778
  C  2.09670023 -0.43124445  1.46390281
  C  0.66157570 -1.00950726  1.49790453
  C -0.10225306 -1.44351442  0.23069044
  H -1.57393331  0.98500619  1.02090990
  H -2.49714182 -0.52006471  0.92906251
  H -2.74757152  0.74883155 -0.27438756
  H -0.81505940 -1.56184095 -2.35231088
  H -1.93193539 -0.19584718 -2.44042808
  H -2.37437099 -1.64251052 -1.52747659
  H  1.74132621  1.68582996  1.75268848
  H  3.43621116  1.22448250  1.58045282
  H  2.43604841 -0.56184964  2.49805574
  H  2.73006549 -1.06927105  0.84416658
  H  0.02897072 -0.38115027  2.12647388
  H  0.80322063 -1.94989464  2.04234298
  H  0.60989345 -1.91042240 -0.45476414
  H -0.80743606 -2.22296955  0.53562255
