31
opt_min/./Reactant_3104_0_opt.xyz
  C -4.38157900 -0.50880500  0.90709900
  C -2.88604105 -0.67452068  0.91101669
  O -2.34323694 -1.52567836  1.61667150
  C -2.05948366  0.17567288  0.06975319
  C -2.57115195  1.14076871 -0.93336958
  N -0.76700040 -0.10485466  0.20246685
  C  0.34990300  0.49000898 -0.25281385
  C  0.41928337  1.92569237 -0.40150082
  C  1.74344547  2.52958195 -0.82358736
  O -0.50452009  2.65786929 -0.06379693
  C  1.54200306 -0.38135230 -0.25486234
  C  1.94130022 -1.04377544  0.90440499
  C  3.03591413 -1.88765439  0.89017511
  C  3.74304185 -2.09285431 -0.28301144
  C  3.34350118 -1.45467039 -1.44494451
  C  2.25067271 -0.60779770 -1.43426345
  H -4.72622593 -0.47675619  1.93895068
  H -4.82977348 -1.38796983  0.44604099
  H -4.71098580  0.38355085  0.38955219
  H -1.84395275  1.24194756 -1.73729801
  H -3.51152089  0.79069791 -1.35297914
  H -2.71433728  2.13253136 -0.50377223
  H -0.63882511 -0.94968418  0.78221269
  H  2.23366373  2.92008200  0.06738909
  H  1.54553924  3.37204867 -1.48226568
  H  2.40782118  1.82403526 -1.30571185
  H  1.40520556 -0.87636460  1.82841899
  H  3.33998842 -2.38573758  1.79870351
  H  4.59768127 -2.75232700 -0.28911098
  H  3.88157280 -1.62325828 -2.36616687
  H  1.92422168 -0.13786089 -2.35092395
