21
opt_min/./Reactant_394_0_opt.xyz
  C -3.62681400 -0.06645500 -0.63487800
  C -2.86590862 -0.68979888  0.47853353
  N -1.54816056 -0.63002185  0.58482288
  C -0.63233620 -0.05026137 -0.19585012
  C  0.76678642 -0.17628153  0.02547644
  C  1.65407257  0.51685659 -0.81831228
  C  3.01665215  0.44159534 -0.64001337
  C  3.55292131 -0.32526503  0.38361439
  C  2.69880639 -1.02610687  1.22074943
  C  1.33343685 -0.95871563  1.04913189
  H -4.58084423 -0.57720329 -0.75920171
  H -3.07012018 -0.13754079 -1.56842666
  H -3.84062845  0.98997047 -0.44990877
  H -3.40124665 -1.14397488  1.29434979
  H -1.14836685 -1.10787347  1.38730123
  H -0.98367583  0.54750244 -1.01737760
  H  1.24564358  1.11769341 -1.61821257
  H  3.67479753  0.98575007 -1.30417424
  H  4.62217081 -0.37984243  0.52507967
  H  3.10669223 -1.63359587  2.01745102
  H  0.69898543 -1.53482771  1.71249478
