32
opt_min/./Reactant_1369_1_opt.xyz
  C -2.37336141  3.31537387  0.33939978
  O -1.88747777  1.98778947  0.50222180
  C -1.25268896  1.42887133 -0.51908045
  O -1.01447133  1.96749290 -1.56584975
  C -0.81169374  0.00509876 -0.16512808
  C -1.95892182 -0.73267562  0.52953335
  O -3.12370496 -0.56520369  0.28798264
  O -1.49418271 -1.62278942  1.40245981
  C -2.45489892 -2.39467096  2.11001193
  C  0.37073113  0.10251834  0.64147740
  C  1.50622677  0.12873999  1.02281715
  C  2.92648494  0.20681803  0.85069533
 Cl  3.63732428  1.57683182  1.77868323
  C  3.11822192  0.42047016 -0.65458216
  C  2.39756323 -0.56223123 -1.60593663
  C  0.95084082 -0.36597193 -2.13174111
  C -0.35041616 -0.78648831 -1.40901336
  H -1.84355869  3.96622659  1.03631765
  H -3.43920453  3.30507618  0.56726253
  H -2.20583181  3.64953961 -0.68572612
  H -2.84113015 -1.81912826  2.95441543
  H -1.93481704 -3.28124982  2.46663627
  H -3.28213287 -2.66434703  1.45055146
  H  3.42090750 -0.69637388  1.22227502
  H  2.82528321  1.43873232 -0.91841421
  H  4.18743247  0.32780910 -0.86883169
  H  2.53876840 -1.59062714 -1.26758155
  H  2.97240939 -0.43790382 -2.53213157
  H  0.84176192  0.66567744 -2.47075262
  H  0.93258651 -1.00970719 -3.01834798
  H -0.27955763 -1.84487044 -1.14323979
  H -1.13558272 -0.68719632 -2.16554104
