24
opt_min/./Reactant_2660_0_opt.xyz
  C  3.73568819 -0.48128415  1.47775329
  N  2.37388487 -0.35099726  1.01296341
  C  1.32554995 -0.79263746  1.73605132
  O  1.40360147 -1.38284824  2.78545174
  C  0.01410501 -0.47658735  1.03476741
  C -0.62547403  0.69157904  1.45283815
  N -1.11011042  1.65102989  1.86190862
  N -0.43178700 -1.26053547  0.07380035
  C  0.24835410 -2.52768666 -0.16498789
  N -1.47661121 -1.11123542 -0.66068862
  C -2.04486727  0.09796823 -0.93140199
  O -3.21620372  0.26952746 -1.11681633
  O -1.10147374  1.07283522 -1.11289770
  C -1.61620571  2.36212085 -1.40813576
  H  4.14500787  0.48983602  1.76041249
  H  3.72501144 -1.13095666  2.35077528
  H  4.35780206 -0.92410323  0.69969305
  H  2.21151186  0.21602917  0.19454397
  H  0.74769469 -2.87926980  0.73501922
  H -0.50371521 -3.24235477 -0.49025486
  H  0.97888924 -2.39696092 -0.96373499
  H -2.36560295  2.29480807 -2.19776135
  H -0.76749019  2.95736635 -1.73567123
  H -2.06100017  2.79039793 -0.50842014
