46
opt_min/./Reactant_3099_0_opt.xyz
  C  5.75788360 -0.22027373  0.40569500
  O  4.71154414 -0.25606272 -0.55391827
  C  3.52695172  0.23109459 -0.15643314
  O  3.33157297  0.68961938  0.93641918
  C  2.49915036  0.10895959 -1.26995606
  C  1.25277232  0.74474270 -0.89799183
  C  0.10015911  0.71024491 -0.56751802
  C -1.25270736  0.25729200 -0.29387784
  C -1.45188249 -0.01094392  1.18518196
  C -2.58383783 -0.69249213  1.62180296
  C -2.76550108 -0.96789052  2.96497673
  C -1.81911345 -0.56653604  3.89233545
  C -0.69433685  0.11701143  3.46761201
  C -0.51107726  0.39430376  2.12352287
  C -2.27152358  1.23047663 -0.86680206
  C -3.25692719  1.82669139 -0.09027690
  C -4.15102737  2.72360745 -0.65064755
  C -4.06878453  3.04812395 -1.99171229
  C -3.07253235  2.48248754 -2.76760860
  C -2.17864762  1.58844444 -2.20874454
  C -1.27046433 -1.08375167 -1.08321805
  C -0.28926531 -2.17451680 -0.59712181
  C  1.21269597 -1.92524975 -0.34300109
  C  2.10641532 -1.37811051 -1.47962796
  H  6.65777067 -0.54114868 -0.11341172
  H  5.53268966 -0.89340388  1.23577964
  H  5.87446429  0.79258633  0.79822293
  H  2.93303143  0.53525298 -2.18018005
  H -3.33420008 -1.00402071  0.90973809
  H -3.64993702 -1.49733462  3.28906691
  H -1.96125202 -0.78606996  4.94124496
  H  0.04941732  0.43803667  4.18271277
  H  0.37018723  0.92745487  1.79951601
  H -3.32958874  1.59899810  0.96150306
  H -4.91306554  3.17348928 -0.02973743
  H -4.76904412  3.74768168 -2.42602510
  H -2.98584145  2.74189924 -3.81290110
  H -1.38917157  1.17530160 -2.81972674
  H -2.26368765 -1.53624842 -1.01297191
  H -1.07900263 -0.87380400 -2.13675381
  H -0.37500521 -2.98644350 -1.32629198
  H -0.67346713 -2.54164556  0.36002833
  H  1.33113344 -1.29732966  0.54012158
  H  1.60366808 -2.91119670 -0.07072533
  H  3.01939116 -1.97435309 -1.52096883
  H  1.60717764 -1.48534138 -2.44303343
