23
opt_min/./Reactant_3715_1_opt.xyz
  C  4.20454500 -1.17101800 -1.15787900
  N  3.00347769 -0.52971456 -0.68641832
  C  2.98351761  0.78306355 -0.34932934
  O  3.96924817  1.50240896 -0.37298204
  C  1.67419769  1.28932120  0.07148491
  O  0.66043819  0.49054113  0.08531335
  C -0.57382708  0.70784144  0.44141525
  C -1.06650777  2.01431774  0.96551104
  C -1.43384548 -0.45158020  0.24939745
  O -1.05097007 -1.51415739 -0.19324101
  O -2.71026685 -0.20041582  0.61556180
  C -3.64411904 -1.25934872  0.46346928
  H  4.18941192 -2.22440462 -0.88740772
  H  4.30362723 -1.07715560 -2.24355047
  H  5.05981399 -0.67919206 -0.69442443
  H  2.14595088 -1.05880476 -0.66949893
  H  1.59914230  2.32995047  0.35628873
  H -1.94874527  1.84568990  1.57649452
  H -0.29952848  2.49892309  1.56860511
  H -1.34319199  2.68897881  0.15340874
  H -4.35965289 -0.98911625 -0.31463714
  H -3.12311181 -2.17752228  0.18489679
  H -4.16166645 -1.39123577  1.41365710
