18
opt_min/./Reactant_457_0_opt.xyz
  C -1.99441000  1.78007700  0.38196800
  N -2.08895369  0.36070931  0.25188647
  N -1.01461163 -0.26371600  0.08431209
  C -1.18061468 -1.70624665 -0.03639305
  N  0.13287323  0.32432136  0.07203868
  C  1.26929281 -0.31355652 -0.32021925
  O  1.35530346 -1.35213486 -0.94110469
  O  2.32719700  0.42801362  0.04731019
  C  3.59251449 -0.05492184 -0.36832713
  H -2.95447400  2.14149277  0.74188581
  H -1.18439813  2.05832895  1.06095280
  H -1.77553083  2.23254217 -0.58880022
  H -2.21560563 -1.93792550  0.20230194
  H -0.49575679 -2.21899011  0.63656195
  H -0.94205615 -2.01122968 -1.05560219
  H  4.32987092  0.43736305  0.26129573
  H  3.76542832  0.19514736 -1.41810053
  H  3.64578771 -1.14005632 -0.25062660
