21
opt_min/./Reactant_4400_0_opt.xyz
  C -2.14140700  0.00293400  0.53843300
  N -0.94364643 -0.80296776  0.68331650
  C -1.03501208 -2.16253852  0.15700119
  C  0.04852659  0.01017279  0.03577781
  C  1.47879881 -0.19316290  0.14974614
  C  1.92735819 -1.23920627  1.14343833
  O  2.26996839  0.47107460 -0.49787288
  C -0.56067842  1.01284723 -0.64420429
  C  0.01302718  2.09006614 -1.47791151
  O -1.90798486  0.98734274 -0.46683437
  H -3.02463152 -0.58893528  0.28402775
  H -2.32947593  0.54062506  1.48312900
  H -1.87801498 -2.27644658 -0.53113315
  H -0.12570458 -2.42271978 -0.38069091
  H -1.16713552 -2.85746032  0.98803293
  H  2.09108846 -2.18283043  0.62515345
  H  1.17768887 -1.38448257  1.91447886
  H  2.87512271 -0.93162798  1.57810375
  H  0.69364438  2.69501034 -0.88070439
  H -0.78483981  2.70974724 -1.87674578
  H  0.60209935  1.66180896 -2.28693673
