18
opt_min/./Reactant_2650_0_opt.xyz
  C -2.97399234  1.11121471  1.56047348
  N -1.62810744  0.60882931  1.43067898
  C -1.04846251  0.41417000  0.23785832
  O -1.55964720  0.65992383 -0.84697867
  C  0.33388099 -0.12964590  0.25448954
  C  0.99032467 -0.45567155  1.43799937
  N  1.44019274 -0.70083301  2.46868059
  N  0.83332448 -0.26804463 -0.97020195
  C  2.01199255 -0.70380464 -1.40787945
  C  3.03957665 -1.13429893 -0.55245241
  N  3.90086225 -1.49230730  0.11661549
  C  2.26311175 -0.73968748 -2.78941619
  N  2.47894139 -0.75485068 -3.91682894
  H -3.66244717  0.31323252  1.84709081
  H -3.00713229  1.89535967  2.31495064
  H -3.27549664  1.51103919  0.59447554
  H -1.12513157  0.35611373  2.26793027
  H  0.12407420  0.02453464 -1.66697849
