30
opt_min/./Reactant_1957_1_opt.xyz
  F -3.31896780  1.59519532  1.23447246
  C -2.45515442  1.30348986  0.21585551
  F -2.62038878  2.32425631 -0.67986628
  C -1.08329658  1.17424905  0.65542335
  C -0.07111789  0.54501191  0.81508502
  C  0.93134450 -0.46956576  0.55604269
  C  2.33745966  0.07333423  0.50391669
  C  2.83423158  0.72970571 -0.61618664
  C  4.12023489  1.23921994 -0.61475438
  C  4.92544245  1.10828241  0.50336321
  C  4.43361967  0.46501383  1.62634080
  C  3.14987326 -0.04902724  1.62516950
  C  0.40523281 -1.06733280 -0.77178063
  C -0.91794844 -1.84868147 -0.67050282
  C -2.14539700 -1.29766926  0.08586801
  C -2.84928758 -0.03860527 -0.45696981
  H  0.87340649 -1.22963298  1.34417823
  H  2.21525841  0.85090754 -1.49205861
  H  4.49684057  1.74674520 -1.49063079
  H  5.93036783  1.50092281  0.50755040
  H  5.05336796  0.35521136  2.50303924
  H  2.77282774 -0.55050294  2.50569852
  H  1.15818762 -1.75159422 -1.17141374
  H  0.27820701 -0.25059804 -1.48380187
  H -1.22785320 -2.06017207 -1.69905315
  H -0.70061527 -2.81544852 -0.20559054
  H -2.87931079 -2.10756892  0.03958686
  H -1.90817033 -1.14762984  1.13915772
  H -2.66166578  0.06864856 -1.52630039
  H -3.92416389 -0.14327453 -0.30322172
