27
opt_min/./Reactant_2460_1_opt.xyz
  C -4.10289600 -1.23241700  0.07437200
  N -2.68872249 -1.46956826 -0.06990512
  C -1.78126465 -0.53861290  0.28310620
  O -2.09570528  0.55597404  0.70391748
  C -0.34356652 -0.92647289  0.09741624
 Cl -0.11153736 -2.60318972 -0.34753511
  C  0.66759591 -0.07914039  0.28627457
  C  2.15170257 -0.22687231  0.08090071
  O  2.86296512  0.75537401  0.15920641
  N  2.64788224 -1.44392481 -0.22326752
  C  4.06672420 -1.64904049 -0.38426997
  C  0.42165014  1.30725791  0.89867788
  O  0.75890220  1.51001109  2.03760856
  N -0.07478432  2.22061773  0.04891515
  C -0.22385402  3.60405259  0.42258254
  H -4.59416540 -2.13952202  0.42302406
  H -4.54745626 -0.92311759 -0.87489595
  H -4.24041571 -0.43259837  0.80079594
  H -2.38822908 -2.35147899 -0.45599960
  H  2.05132408 -2.24245780 -0.37234190
  H  4.57403503 -0.73790861 -0.07311822
  H  4.31388382 -1.85673122 -1.42808382
  H  4.39348399 -2.48624716  0.23366708
  H -0.55826585  1.87362693 -0.76269715
  H  0.47634624  4.21968479 -0.14615860
  H  0.00053277  3.68523507  1.48463190
  H -1.24235562  3.94846420  0.24354090
