39
opt_min/./Reactant_2481_0_opt.xyz
  C  4.49099591 -0.94133774  0.64471074
  N  3.62553767 -0.51964935 -0.43027979
  C  2.27588101 -0.65067419 -0.33186347
  O  1.74137651 -1.14875851  0.64859162
  C  1.54230904 -0.22036821 -1.52553553
  C  2.25358476  0.09585968 -2.67084865
  N  2.88912399  0.33919031 -3.60617703
  N  0.17717546 -0.31214014 -1.58080828
  C -0.41066160 -0.31359314 -2.91248736
  C -0.61317361 -0.32496589 -0.50717271
  C -0.28946329  0.41680827  0.70182397
  C -0.78361928  0.01059292  1.94424798
  C -0.55560987  0.76780587  3.07555925
  C  0.16197506  1.94925177  2.99637021
  C  0.65359844  2.36758923  1.76870636
  C  0.43891589  1.61034372  0.63750310
  C -1.87689707 -1.05719700 -0.55465122
  C -1.90791313 -2.35247747 -1.08339192
  C -3.07862531 -3.08421552 -1.07735711
  C -4.23977337 -2.54003407 -0.55101582
  C -4.22024862 -1.25914939 -0.02364660
  C -3.05130239 -0.52283153 -0.02147352
  H  5.50174039 -1.07254334  0.26778873
  H  4.49503374 -0.20452684  1.45340329
  H  4.11942602 -1.88398924  1.04812849
  H  4.03335081 -0.11158229 -1.25496184
  H -1.38635497 -0.79182030 -2.90273597
  H -0.53331839  0.72217439 -3.23978406
  H  0.24381915 -0.82311631 -3.61774885
  H -1.32057721 -0.92262894  2.01833106
  H -0.93363375  0.42962647  4.02953066
  H  0.34500274  2.53766071  3.88293060
  H  1.21199726  3.28980970  1.69572115
  H  0.82354771  1.95904946 -0.31138981
  H -0.99830720 -2.78903318 -1.47029397
  H -3.08366421 -4.08710400 -1.47812684
  H -5.15391931 -3.11433559 -0.54804355
  H -5.12284241 -0.83034813  0.38640088
  H -3.03925124  0.47866370  0.38267466
