27
opt_min/./Reactant_5449_1_opt.xyz
  C -2.73012518  2.40828040 -2.52505131
  O -2.22329311  1.29148094 -1.81287224
  C -3.07121555  0.25077976 -1.62042971
  O -4.21163289  0.22292221 -2.01720300
  C -2.41562207 -0.81838079 -0.87422003
  C -3.16479432 -1.94895923 -0.54235755
  N -3.81370336 -2.85163957 -0.23863835
  O -1.14792830 -0.57371149 -0.54500868
  C -0.24271310 -1.25183618  0.06676865
  C -0.44484634 -2.63688840  0.58380539
  C  1.02432134 -0.56363611  0.23185950
  C  2.06358899 -1.11469064  0.99175927
  C  3.25803113 -0.43755442  1.13794480
  C  3.44617793  0.79589524  0.53445968
  C  2.42316306  1.35520342 -0.21734455
  C  1.22583528  0.68903803 -0.36834763
  H -3.77265778  2.23151307 -2.79632141
  H -2.12799958  2.54839681 -3.42359108
  H -2.65374627  3.28812720 -1.88509598
  H -1.34200800 -3.08159406  0.16337427
  H -0.54763998 -2.63101844  1.66968343
  H  0.40846748 -3.26129983  0.32663115
  H  1.93577776 -2.06791857  1.47906515
  H  4.04856058 -0.87527972  1.72896780
  H  4.38306935  1.31877522  0.65089787
  H  2.56324602  2.31681521 -0.68792185
  H  0.43140290  1.12599807 -0.95393397
