25
opt_min/./Reactant_1276_0_opt.xyz
  C  4.36918900 -0.67940100  0.99293800
  N  3.03703856 -0.30655126  0.57152398
  C  2.72506812 -0.23452165 -0.74968990
  O  3.47906898 -0.55799058 -1.63677914
  C  1.34407661  0.24506535 -1.03622727
  O  1.12124058  0.96758342 -2.11980123
  C -0.28213654  1.22575664 -2.21560259
  O -0.72506238  1.88612707 -3.10399239
  C -0.83489758  0.55746755 -1.07462384
  C -2.24335854  0.56560135 -0.74929843
  O -3.09698581  1.05151875 -1.44501572
  O -2.53128500 -0.00747103  0.45682591
  C -3.90110032  0.00716446  0.82693323
  N  0.21155515 -0.02369051 -0.39572508
  C  0.10538861 -0.87719774  0.76145538
  H  4.79508804 -1.31910655  0.22291050
  H  5.01006204  0.19705710  1.11366107
  H  4.31406170 -1.21989314  1.93587238
  H  2.47838279  0.19040069  1.24670411
  H -4.36014471  0.95342991  0.53669553
  H -3.92754715 -0.12144791  1.90651064
  H -4.43292858 -0.80940031  0.33439928
  H  0.86123193 -1.65866579  0.71156579
  H  0.23122350 -0.30107648  1.67910934
  H -0.88761869 -1.31790225  0.78012763
