31
opt_min/./Reactant_2992_1_opt.xyz
  C  3.72026196  1.65632911 -1.20834099
  O  2.55415929  0.86259956 -1.08351497
  C  1.98580467  0.82096772  0.14983250
  O  2.46660296  1.43623561  1.08802000
  C  0.77455573  0.02696738  0.15394299
  C  0.30255393 -0.51071664 -1.16595949
  N  0.13885456 -0.28573200  1.29906322
  C  0.87290759 -0.34090717  2.55927155
  C -1.14585336 -0.67419241  1.39838054
  C -1.58003881 -1.28728254  2.57689748
  N -1.98110652 -1.76761199  3.54507893
  C -2.22660686 -0.34900985  0.46833078
  C -3.29067280 -1.23607478  0.29514763
  C -4.36237244 -0.89047271 -0.50599556
  C -4.39599573  0.34384313 -1.13320959
  C -3.35247194  1.23876000 -0.95321016
  C -2.27395234  0.89970878 -0.16118800
  H  4.31395545  1.60770245 -0.29276663
  H  3.44754528  2.69799304 -1.39683426
  H  4.27802670  1.25693225 -2.05260518
  H  0.74018075 -1.50149953 -1.31568795
  H -0.77482267 -0.61024275 -1.23792726
  H  0.64799257  0.12756781 -1.97294929
  H  1.88489429  0.02631464  2.43356305
  H  0.89751746 -1.37393568  2.91134213
  H  0.37041036  0.26789058  3.31118784
  H -3.26729320 -2.19573513  0.79030590
  H -5.17627106 -1.58717482 -0.64025629
  H -5.23513491  0.61175025 -1.75786500
  H -3.38160622  2.20731118 -1.42974852
  H -1.46623892  1.60215987 -0.01465243
