23
opt_min/./Reactant_167_0_opt.xyz
  C -1.25164000 -1.55740700  0.29866500
  C -1.06212149 -0.07617719  0.34929579
  C -2.23871428  0.72769743  0.81746907
  N  0.09979735  0.50844184  0.01895036
  C  0.06239698  1.94324730 -0.27624693
  C  1.28451364 -0.12902152 -0.05446821
  C  1.74362446 -1.08715729  1.00405826
  C  2.33008763  0.32805866 -1.02859088
  H -1.48556334 -1.97356554  1.28312832
  H -0.38376940 -2.06579313 -0.10609634
  H -2.10030976 -1.78339259 -0.35526711
  H -2.51867197  1.51692482  0.11717061
  H -3.09427000  0.06706869  0.92847320
  H -2.05579448  1.19672689  1.79058456
  H -0.44961134  2.46413092  0.53091767
  H -0.45839235  2.15106096 -1.21323049
  H  1.07602778  2.32723970 -0.33680021
  H  2.49730696 -1.76272550  0.59949019
  H  0.95275483 -1.68527376  1.44388551
  H  2.21600212 -0.53584279  1.82976562
  H  3.13057330  0.92288645 -0.56891197
  H  2.81064283 -0.54710028 -1.47245319
  H  1.89326242  0.90828695 -1.83763526
