14
opt_min/./Reactant_16_1_opt.xyz
  C -1.95370475 -0.45812901  1.29534898
  C -0.73188001  0.21438220  0.75342130
  C -0.60214748  1.59536503  0.91487508
  N -0.60127710  2.73447878  1.07643192
  N  0.17578297 -0.52132843  0.13107566
  C  1.35561682 -0.18012573 -0.42986643
  C  2.11010939 -1.18875071 -1.03989669
  N  2.70991393 -2.03972089 -1.52807913
  C  1.87697887  1.11848452 -0.43922653
  N  2.37273442  2.15449540 -0.47675821
  H -2.47522725 -1.01436271  0.51555451
  H -2.63600544  0.28089555  1.70735894
  H -1.68368588 -1.15383184  2.09311101
  H -0.04171065 -1.51518576  0.05949548
