16
opt_min/./Reactant_3297_1_opt.xyz
  C  2.74970741  1.32464633  2.06881364
  C  1.44205652  1.75315645  1.48299596
  N  0.73315925  0.96158336  0.79360515
  C  0.09400889  0.17807935  0.16982691
  C -0.52826476 -0.84912717 -0.54617784
  O -0.02249868 -1.96336724 -0.60912900
  N -1.70016739 -0.50434335 -1.16651282
  C -2.46841955 -1.46885631 -1.90936280
  H  3.57834941  1.56780229  1.39935632
  H  2.75675806  0.24964841  2.23604131
  H  2.91741545  1.83516974  3.01451384
  H  1.10661450  2.77082773  1.59607813
  H -2.07819191  0.42107723 -1.05120127
  H -3.41389534 -1.69590184 -1.40857371
  H -1.87120799 -2.37772355 -1.96997023
  H -2.67571899 -1.10202910 -2.91674584
