12
opt_min/./Reactant_4050_1_opt.xyz
  C -1.91599100  0.66048700  0.41218800
  C -0.60726724  0.01715773  0.16967743
  O  0.51053656  0.72235380  0.05106882
  C  1.51469053 -0.09862899 -0.16712807
  C  2.83535069  0.30860304 -0.33442924
  N  3.92613198  0.64328255 -0.47669867
  O  1.10641672 -1.36314473 -0.19934526
  C -0.29144916 -1.37471309  0.01038754
  O -0.94226143 -2.38132469  0.04323694
  H -1.78217701  1.62654299  0.89029024
  H -2.45101147  0.80794594 -0.52896851
  H -2.52580345  0.00547768  1.03161352
