36
opt_min/./Reactant_2719_0_opt.xyz
  C -3.45102900  0.38337200  2.54460200
  N -2.95349315  0.27364512  1.19572816
  C -1.61506479  0.15564295  0.95409407
  O -0.81731672  0.12086583  1.87879889
  C -1.23253955  0.14691537 -0.46213441
  C -2.27717943  0.37707481 -1.51390290
  N  0.07366301  0.09656299 -0.76569340
  C  0.54051259  0.57796601 -2.06286821
  C  1.01498271 -0.41634567  0.07088869
  C  0.84466512 -1.69180282  0.73724802
  C -0.36587933 -2.54739702  0.39616938
  O  1.70141438 -2.15793566  1.47014832
  C  2.28426517  0.29532239  0.17381954
  C  2.27272327  1.69699622  0.15675332
  C  3.43886688  2.41747940  0.30877800
  C  4.64831568  1.76351014  0.48389049
  C  4.67177957  0.37908047  0.51180841
  C  3.50953492 -0.35057771  0.35471613
  H -3.65353536  1.42419546  2.81389119
  H -2.67546804  0.00399265  3.21019972
  H -4.36249624 -0.20139140  2.65865125
  H -3.62419176  0.32430851  0.45184567
  H -2.99033679 -0.45045621 -1.53710640
  H -1.85284890  0.46613984 -2.50743947
  H -2.82763776  1.29861031 -1.31709155
  H  0.10541806 -0.03208435 -2.85560659
  H  1.62102935  0.46686376 -2.10723785
  H  0.28379526  1.62364676 -2.23161522
  H -0.87800321 -2.25131759 -0.51435083
  H -1.06098100 -2.49600149  1.23117047
  H -0.02333084 -3.57645057  0.30753320
  H  1.33187759  2.22041922  0.06471937
  H  3.40391237  3.49802670  0.30231531
  H  5.55977942  2.32946130  0.60591095
  H  5.60915686 -0.14020405  0.65127536
  H  3.54080160 -1.42709747  0.37610937
