36
opt_min/./Reactant_5759_0_opt.xyz
  C  0.37963600  3.49993200  0.63390900
  O  0.36883653  2.17929370  0.12169610
  C -0.62921928  1.37293976  0.56486232
  O -1.51979327  1.78316956  1.27444396
  C -0.60559122  0.04444709 -0.03564986
  C -1.84346872 -0.73546140  0.04235234
  C -3.09486275 -0.14509001 -0.13577149
  C -4.24715185 -0.89893520 -0.01807524
  C -4.17242289 -2.25003309  0.27794805
  C -2.93594301 -2.84578187  0.46666170
  C -1.78096425 -2.09825685  0.35089502
  N  0.46048357 -0.43718724 -0.70266232
  C  0.21145185 -1.33486355 -1.82431870
  C  1.73292675 -0.11533676 -0.41033422
  C  2.83368711 -0.35442938 -1.39895374
  C  2.07339643  0.22670653  0.95429546
  O  1.30885602  0.23278575  1.90046215
  O  3.40201096  0.46717409  1.11438367
  C  3.80352943  0.74746662  2.44299258
  H -0.20156649  4.15825606 -0.01683504
  H -0.05051801  3.51275519  1.63723135
  H  1.42019058  3.81950938  0.65480558
  H -3.15603829  0.90685792 -0.36479175
  H -5.20988206 -0.43038928 -0.15993907
  H -5.07631581 -2.83428069  0.37053463
  H -2.87429942 -3.89496428  0.71754003
  H -0.82062636 -2.55557069  0.53881757
  H  0.45378147 -2.36365016 -1.55826373
  H -0.83743933 -1.28003122 -2.10507481
  H  0.82309781 -1.04089018 -2.67367257
  H  3.03202963 -1.41929915 -1.53954947
  H  3.74271320  0.11052796 -1.03351492
  H  2.59364160  0.08699470 -2.36646756
  H  3.21846396  1.57424588  2.85255639
  H  3.65782419 -0.12862646  3.07949528
  H  4.85736848  1.00979660  2.39182466
