24
opt_min/./Reactant_1726_0_opt.xyz
  C  3.54160802 -0.78707800 -1.12925294
  N  2.43543670 -0.21604983 -0.39441951
  C  2.06721610 -0.74893653  0.80021749
  O  2.64361931 -1.66273898  1.33266256
  N  1.05949095 -0.04050213  1.45715305
  N -0.08593248  0.26554233  1.00276951
  C -0.75596019  1.25237822  1.83132089
  C -0.71170270 -0.28548563 -0.04684671
  C -0.10204558 -1.34490751 -0.75584295
  N  0.34045902 -2.21852526 -1.35329998
  C -2.03190098  0.05517003 -0.58902799
  O -2.50873789 -0.51960511 -1.53724895
  O -2.66907014  1.06842171  0.03746602
  C -3.94725777  1.39570254 -0.49125648
  H  4.48454050 -0.60980117 -0.60667030
  H  3.58038250 -0.34453590 -2.11982282
  H  3.39266271 -1.86404783 -1.21279605
  H  1.98463530  0.59868469 -0.77363046
  H -0.97285941  2.14874532  1.25292063
  H -1.69410257  0.85852318  2.21802264
  H -0.08031842  1.48616569  2.65159374
  H -4.56870349  0.50089647 -0.55619619
  H -3.84373529  1.82368049 -1.48994475
  H -4.37819992  2.11835235  0.19627596
