18
opt_min/./Reactant_3535_1_opt.xyz
  C  3.92994717 -0.03372264 -0.73302320
  C  2.56128951  0.27071519 -0.41595989
  N  1.47480493  0.60318418 -0.15002799
  N  0.40668798  1.13513983  0.14344560
  C -0.78582370  0.47181015  0.24198807
  C -0.92831353 -0.90587243  0.03419240
  C -2.16768561 -1.49916929  0.15366447
  C -3.28375309 -0.74632002  0.47938560
  C -3.14772039  0.61899309  0.68509235
  C -1.91611825  1.22634085  0.56939622
  H  4.16648533 -1.05348761 -0.42240814
  H  4.11220382  0.05698999 -1.80608402
  H  4.59708632  0.65045671 -0.20254884
  H -0.05849237 -1.49753735 -0.22178423
  H -2.26457311 -2.56476146 -0.00911948
  H -4.25076895 -1.21738577  0.57201597
  H -4.01364973  1.21386793  0.93878683
  H -1.80187338  2.28815159  0.72742977
