21
opt_min/./Reactant_1106_0_opt.xyz
  C  3.88441700  0.63384600 -0.26024000
  C  3.74262319 -0.82682875 -0.68039604
  O  4.69029758 -1.56792666 -0.76649786
  N  2.49169004 -1.22009191 -1.07642015
  N  1.41341414 -0.78012515 -0.57804864
  N  0.28218458 -0.96844946 -1.09448951
  C -0.84445068 -0.47972458 -0.48208663
  C -0.86365081  0.64481259  0.35472575
  C -2.05455126  1.07258111  0.90735343
  C -3.23613131  0.40040967  0.64294825
  C -3.22676859 -0.70083132 -0.20174033
  C -2.04739117 -1.13598866 -0.76622038
  H  4.89368666  0.79113925  0.11042567
  H  3.72385007  1.26359547 -1.13469569
  H  3.16578635  0.91396611  0.50836277
  H  1.45900252 -0.28520961  0.35978286
  H  0.03677856  1.21738127  0.53466147
  H -2.06353603  1.94362568  1.54661808
  H -4.16112622  0.74102863  1.08092389
  H -4.14906648 -1.21708692 -0.42199408
  H -2.02070666 -1.99320906 -1.41914625
