26
opt_min/./Reactant_1404_1_opt.xyz
  C  1.48852648  1.49535862 -1.28552974
  C  0.91505875  0.29956097 -0.51996602
  C  2.00278808 -0.75735583 -0.27726641
  C  0.29812478  0.74191921  0.71494257
  C -0.47528403  0.87190009  1.62393018
  C -1.80336003  0.71320304  2.19293645
  F -2.44537055  1.91031087  2.42144683
  C -2.52973947 -0.06696698  1.08531187
  C -1.76319366 -1.36054366  0.70464890
  C -1.09773733 -1.44430805 -0.68436475
  C -0.31771763 -0.26177688 -1.29032606
  H  2.22922399  2.00811185 -0.67512681
  H  0.70525643  2.20803599 -1.53657422
  H  1.96211350  1.16832661 -2.20940919
  H  2.83017095 -0.62547546 -0.97057318
  H  1.60907757 -1.76144215 -0.40997448
  H  2.39463917 -0.68675265  0.73501332
  H -1.78783109  0.17459348  3.15040927
  H -3.54917197 -0.31058567  1.38877954
  H -2.59465690  0.58158071  0.21036786
  H -1.00450187 -1.53818784  1.46746165
  H -2.49917301 -2.16202080  0.77165216
  H -0.43262396 -2.31021635 -0.64880880
  H -1.87591887 -1.68113065 -1.41548965
  H -1.00160948  0.57192755 -1.45501443
  H  0.03445630 -0.59594111 -2.27070114
