22
opt_min/./Reactant_1638_0_opt.xyz
  C  1.38731175 -1.52626064  2.85299619
  O  0.99116033 -1.46476534  1.49203240
  C  0.49264311 -0.28273585  1.07799936
  O  0.41389777  0.68808232  1.80318996
  C  0.15639686 -0.29208873 -0.33907414
  C  0.66941326 -1.40974167 -1.18768704
  N -0.42561294  0.77465130 -0.89280393
  C -0.25808863  1.00372182 -2.31623963
  C -1.20189355  1.64979225 -0.21659998
  C -1.80895799  1.33677839  1.00773197
  N -2.45486337  1.09078205  1.92571194
  C -1.53725347  2.89554928 -0.75186698
  N -1.78230912  3.94691495 -1.15120027
  H  2.40884032 -1.15407884  2.96092612
  H  0.71963046 -0.91825275  3.46694488
  H  1.33636879 -2.57275728  3.14429438
  H  0.65675014 -2.32559053 -0.60278572
  H  0.05987580 -1.55219065 -2.07624426
  H  1.70282170 -1.23924847 -1.49957098
  H -0.52881431  2.03052866 -2.55733979
  H  0.77890943  0.82843844 -2.59857508
  H -0.90437870  0.33598414 -2.88909764
