30
opt_min/./Reactant_1816_1_opt.xyz
  N  1.08810299  3.37358900  1.11306600
  C  0.10151714  2.91566435  0.73382598
  C -1.12652148  2.42904653  0.29056273
  C -2.15197991  3.36072307  0.12526425
  N -3.00961341  4.11738186 -0.01034023
  N -1.41383215  1.11528381  0.06843096
  C -0.65413131  0.03366462  0.12403840
  C -1.29143102 -1.26697410  0.03964172
  C -0.56734252 -2.37247163 -0.42250009
  C -1.16166766 -3.61419908 -0.51694661
  C -2.48822537 -3.78603765 -0.15318970
  C -3.21662222 -2.70348697  0.31393202
  C -2.62958527 -1.45827459  0.41235309
  C  0.80269051  0.12797843  0.23382046
  C  1.48174015 -0.59591579  1.21357105
  C  2.85835279 -0.52698812  1.30293678
  C  3.57792264  0.24851161  0.40822842
  C  2.91319414  0.95378437 -0.58035266
  C  1.53545489  0.90026998 -0.66794904
  H -2.39579882  0.94996366 -0.14519366
  H  0.46158388 -2.24378411 -0.72261629
  H -0.58975412 -4.45481858 -0.87993154
  H -2.95022780 -4.75837957 -0.22723064
  H -4.24658482 -2.83298534  0.61117729
  H -3.20746602 -0.64022685  0.82081801
  H  0.92167601 -1.19610902  1.91591188
  H  3.36858871 -1.08160349  2.07614347
  H  4.65339635  0.30068433  0.48187358
  H  3.46496113  1.55448838 -1.28698117
  H  1.03061785  1.44195994 -1.45497921
