17
opt_min/./Reactant_4213_1_opt.xyz
  C  1.97279712  2.35932660 -0.83452129
  N  1.74857966  1.36814880 -0.21583873
  C  1.43534553  0.16573116  0.12744408
  C  2.48004862 -0.77247153  0.22327032
  N  3.34710422 -1.52226533  0.30530760
  C  0.07150527 -0.21941001  0.47716652
  C -0.22614428 -1.54260084  0.81389687
  C -1.51693526 -1.91262402  1.14113026
  C -2.53264089 -0.96637355  1.16251979
  C -2.24356585  0.34799351  0.82663489
  C -0.95710364  0.72791725  0.49545316
  H  2.28738421  3.33209475 -0.53758246
  H  0.56404265 -2.28153436  0.79719416
  H -1.73598332 -2.94015129  1.39968170
  H -3.53990324 -1.25950656  1.42130992
  H -3.03149658  1.08933637  0.84069501
  H -0.73907419  1.75626703  0.23455104
