25
opt_min/./Reactant_4946_1_opt.xyz
  C  2.44640900  2.61371800 -0.93812400
  C  3.08756224  1.32382148 -1.40764945
  O  4.17463101  1.30401033 -1.96642515
  C  2.35506152  0.11116808 -1.13604421
  C  2.88758659 -1.20924072 -1.59193389
  O  1.19956715  0.22697550 -0.51790508
  C  0.36166668 -0.72471225 -0.23884235
  C -0.85826798 -0.43532060  0.43946123
  C -1.72200007 -1.48582564  0.78866747
  C -2.90593158 -1.22759731  1.44568400
  C -3.25955257  0.07565097  1.76554318
  C -2.41639795  1.12383944  1.42414951
  C -1.22862042  0.87776107  0.76933238
  H  2.03783912  2.51016732  0.06219750
  H  1.63926876  2.88059199 -1.61775322
  H  3.19038696  3.40472043 -0.95557393
  H  3.93437981 -1.07410793 -1.84811985
  H  2.36494502 -1.56860256 -2.48133716
  H  2.79934452 -1.96196749 -0.80807100
  H  0.56986853 -1.74108815 -0.54975997
  H -1.44668210 -2.49982647  0.53936647
  H -3.56089754 -2.04401490  1.71216470
  H -4.18940952  0.27175646  2.27751460
  H -2.69130121  2.13900787  1.67142673
  H -0.57332677  1.69235627  0.50177084
