13
opt_min/./Reactant_3637_0_opt.xyz
  C -0.34503789 -1.37141006  0.49172467
  C -0.38989009  0.03389864  0.02438588
  C -1.65688133  0.72400476 -0.33061495
  O  0.67509415  0.73694787 -0.06421046
  N  1.86173686  0.19010366  0.29579356
  C  2.92540779  0.92042492  0.13581349
  N  3.95162665  1.44223986  0.05462103
  H -1.23669291 -1.91622528  0.19960852
  H  0.55612903 -1.84050634  0.09207323
  H -0.25409736 -1.40484932  1.58011760
  H -2.29868246  0.79901973  0.54979102
  H -1.44931849  1.72755040 -0.69270624
  H -2.20186724  0.16001047 -1.08530045
