24
opt_min/./Reactant_902_0_opt.xyz
  C  0.42939091  3.40629287  0.50979571
  N  0.28406304  1.98627377  0.30074078
  C -0.87703117  1.33476416  0.58123625
  O -1.84378230  1.89507068  1.04419682
  C -0.85000154 -0.11717635  0.25642986
  N  0.25080534 -0.70297425 -0.04994001
  C  1.26413049 -1.23184128 -0.34205438
  C  2.53698294 -1.73766760 -0.64356781
  C  3.57789200 -0.62467717 -0.58229305
  O  2.78770119 -2.89028119 -0.91599729
  C -2.05060310 -0.98032637  0.30053711
  O -2.00563781 -2.16774488  0.07407035
  O -3.15922186 -0.31328778  0.59872543
  C -4.35093039 -1.08075271  0.65975242
  H  1.20268114  3.61646081  1.25135943
  H -0.52581943  3.78065699  0.87311706
  H  0.68379609  3.90595609 -0.42664968
  H  1.08629809  1.49022832 -0.05135591
  H  3.57941789 -0.16648330  0.40488280
  H  4.55554692 -1.05469678 -0.78199724
  H  3.36296594  0.13537474 -1.33036459
  H -4.18208104 -2.00579023  1.21445042
  H -5.08441695 -0.45632498  1.16402817
  H -4.69183265 -1.32931669 -0.34747312
