23
opt_min/./Reactant_4758_0_opt.xyz
  C  5.27698000  0.32018100  0.08689400
  O  4.14843563  1.08429328  0.47471512
  C  2.96445157  0.49103900  0.29540044
  O  2.81564529 -0.63125779 -0.16132041
  N  1.93825212  1.29966037  0.69646688
  N  0.78381089  0.72331275  0.50043018
  C -0.38154546  1.22555668  0.77418158
  C -1.62812263  0.55199178  0.53842973
  C -1.71439926 -0.75361270  0.03539251
  C -2.94376448 -1.34593721 -0.17053814
  C -4.11322919 -0.65898687  0.11733383
  C -4.04488188  0.63191823  0.61799412
  C -2.81980080  1.23078575  0.82708290
  H  5.16688808 -0.03301839 -0.94110145
  H  6.13388833  0.98320823  0.17514437
  H  5.39691943 -0.54546247  0.74329622
  H  0.83963316 -0.22535716  0.07856879
  H -0.38842051  2.21749233  1.20272223
  H -0.82033673 -1.31539862 -0.19400310
  H -2.99370894 -2.35252015 -0.55830372
  H -5.07157944 -1.12769412 -0.04660869
  H -4.95181039  1.17198277  0.84583419
  H -2.76901832  2.23660365  1.21668943
