28
opt_min/./Reactant_918_0_opt.xyz
  C  0.72566302 -3.48741292 -1.84829115
  O -0.06989197 -2.40902141 -1.37791913
  C  0.59326580 -1.40830001 -0.73258518
  O  1.79695490 -1.43718836 -0.56848170
  C -0.22488178 -0.30466891 -0.27449814
  C  0.56457189  0.77459251  0.37491725
  C  1.00395172  1.87832534 -0.34067348
  C  1.76652273  2.85333814  0.27713182
  C  2.10184840  2.73175399  1.61549349
  C  1.67720063  1.62658142  2.33215298
  C  0.91379396  0.65131597  1.71668999
  N -1.55018221 -0.15693481 -0.38155768
  C -2.10516595  1.08268650  0.14744941
  C -2.41214488 -1.02730632 -0.90116329
  C -3.76389228 -0.75911032 -1.04266438
  N -4.89588441 -0.55746913 -1.15253773
  H  0.79451202 -4.25943196 -1.07823985
  H  1.73041965 -3.13415336 -2.08818254
  H  0.23080767 -3.88239147 -2.73463333
  H  0.75839659  1.97242918 -1.38935259
  H  2.10505549  3.70774994 -0.28981364
  H  2.69934674  3.49215243  2.09565185
  H  1.94732553  1.51898557  3.37246874
  H  0.59215161 -0.21651384  2.27366686
  H -1.78689742  1.92589628 -0.46847801
  H -1.75222768  1.24768316  1.16580603
  H -3.19246702  1.02997798  0.14368726
  H -2.05423714 -1.97460466 -1.26196003
