18
opt_min/./Reactant_2047_0_opt.xyz
  C  3.60055632 -0.97008326 -0.49162038
  N  2.36361523 -0.30715812 -0.15447433
  C  2.32480783  1.01387007  0.15534014
  O  3.27544311  1.75016110  0.15537405
  N  1.05399381  1.48874705  0.51889291
  N -0.00569910  0.99510581  0.21647434
  C -1.08731844  0.61860378 -0.03578705
  C -2.39335880  0.14941142 -0.35366866
  O -2.60113115 -0.84130313 -1.00941984
  O -3.33013506  0.93110766  0.19860381
  C -4.67751414  0.54764579 -0.04158291
  H  4.34467986 -0.20168280 -0.69429007
  H  3.95083535 -1.59340106  0.33501520
  H  3.46166844 -1.59046051 -1.37700060
  H  1.52950765 -0.87147262 -0.11140373
  H -4.78549039 -0.53568723  0.03771658
  H -4.98271710  0.86279647 -1.04189568
  H -5.27715231  1.05215958  0.71201438
