22
opt_min/./Reactant_5313_1_opt.xyz
  C  3.43795228  0.35893360 -0.42386166
  N  1.99559189  0.43481486 -0.35064964
  C  1.32063577 -0.40582956  0.46955929
  O  1.88201031 -1.23830032  1.14466596
  C -0.16902083 -0.26433246  0.49491935
  O -0.92570563  0.71870321  0.13983000
  C -0.81372735  1.94776268 -0.29111059
  C  0.31384527  2.72246574 -0.61099639
  N  1.16214366  3.44618354 -0.89953043
  C -2.03245663  2.64828305 -0.46638071
  N -3.01057401  3.22782596 -0.61961160
  C -0.97263208 -1.41182924  1.03671004
  O -0.53514742 -2.36518272  1.61297274
  O -2.27301227 -1.20636370  0.77252900
  C -3.18846767 -2.19177148  1.23391302
  H  3.80826003  1.21453664 -0.97973296
  H  3.75170387 -0.56687584 -0.91054482
  H  3.84718368  0.36325687  0.58616035
  H  1.54044424  1.06140714 -0.99257699
  H -3.43232009 -2.86990040  0.41461501
  H -2.74841111 -2.75736859  2.05645370
  H -4.08288607 -1.66490940  1.55984816
