24
opt_min/./Reactant_2435_1_opt.xyz
  C  3.16708306  0.08531393  1.23233554
  O  1.93706241 -0.59081828  1.39968329
  C  1.09632948 -0.63712565  0.34065500
 Br  1.92897633 -1.88132878 -1.11802071
  C -0.17829863 -1.22696958  0.65194135
  C -1.36435162 -1.41640032  0.68060010
  C -2.75823970 -1.24505333  0.31718249
  F -3.42667282 -2.41315663  0.13021656
  F -3.44949826 -0.59692821  1.30224880
  C -2.75217810 -0.40195087 -0.97125821
  C -1.81079523  0.81579661 -0.88906904
  C -0.37091588  0.59492189 -1.41506269
  C  0.76142619  0.68860424 -0.37500875
  H  3.03108260  1.17030226  1.21466701
  H  3.77414795 -0.18947424  2.09234473
  H  3.66959114 -0.23883735  0.31628175
  H -2.45339823 -1.06498479 -1.78534920
  H -3.78095312 -0.08082393 -1.14559943
  H -1.77915831  1.17451609  0.14022802
  H -2.27160043  1.60808772 -1.48040209
  H -0.31005014 -0.35863331 -1.93863449
  H -0.16230483  1.36679779 -2.15819288
  H  1.66678437  1.05830819 -0.85862555
  H  0.47929288  1.39499657  0.41178292
