29
opt_min/./Reactant_5664_1_opt.xyz
  C -1.70797800 -2.92464500 -0.56882500
  O -0.99422816 -1.70387895 -0.43856938
  C -1.76299631 -0.57663982 -0.52219787
  O -2.95287092 -0.63359752 -0.69707759
  C -0.98625581  0.64710021 -0.38801543
  O  0.32715185  0.74230131 -0.24011003
  C  1.25569980 -0.13347601 -0.19074409
  C  2.61703510  0.30996321 -0.05202355
  C  3.62525126 -0.60946490  0.25908474
  C  4.93381449 -0.19027338  0.38688613
  C  5.26117572  1.14471695  0.20066909
  C  4.26914116  2.06509798 -0.10834813
  C  2.95765714  1.65796567 -0.23341743
  C -1.66328231  1.94928460 -0.39981802
  O -2.84295068  2.14380703 -0.52947709
  O -0.75606759  2.94941134 -0.24267807
  C -1.27058424  4.27077458 -0.22231853
  H -2.56535539 -2.93375841  0.10609550
  H -2.06744996 -3.04369845 -1.59309262
  H -1.00485026 -3.71468874 -0.31647333
  H  1.04276329 -1.19345400 -0.26545731
  H  3.36595119 -1.64752600  0.40573820
  H  5.70332232 -0.90644779  0.63344106
  H  6.28729430  1.46622659  0.29567462
  H  4.52968813  3.10275874 -0.25408993
  H  2.18005180  2.36861826 -0.46815022
  H -1.36076230  4.61138054  0.81107210
  H -0.56712381  4.90152467 -0.76402721
  H -2.25237345  4.29637334 -0.69946220
