15
opt_min/./Reactant_2734_0_opt.xyz
  C  2.67329600 -0.05261800 -0.23443800
  O  1.31647066 -0.43985365 -0.37632471
  C  0.40700436  0.36302874  0.17082682
  O  0.66225079  1.39028442  0.75869364
  C -0.97790991 -0.12684455  0.00270030
  C -2.07030627  0.72898061  0.55206956
  N -1.27807863 -1.24342485 -0.59669006
  O -0.54531545 -2.09373422 -1.12562993
  H  2.90415195  0.76672038 -0.91923887
  H  2.86938929  0.27835577  0.78813025
  H  3.26903244 -0.92796347 -0.47986694
  H -2.17499680  1.63506881 -0.04504292
  H -3.01991032  0.19923380  0.56495621
  H -1.81319721  1.04562900  1.56087662
  H -2.29781588 -1.44841463 -0.63285826
