29
opt_min/./Reactant_2792_0_opt.xyz
  C  1.70234600 -2.34166600 -1.18348200
  C  0.79826303 -1.31115349 -0.60820486
  N  1.12129007 -0.07363911 -0.31772843
  C  2.44463501  0.40898667 -0.65041368
  C  0.25780445  0.79734058  0.28725929
  C  0.56037404  2.15780162  0.56186729
  C -0.53084565  2.93511406  1.28542999
  O  1.62230908  2.72943429  0.29399509
  C -1.06246114  0.25254890  0.69977154
  C -1.20743411 -0.37119673  1.93495960
  C -2.43621357 -0.86600453  2.33307392
  C -3.53628727 -0.74655260  1.50039726
  C -3.40202405 -0.13165158  0.26687869
  C -2.17348667  0.36279946 -0.13188755
  H  1.81270882 -2.22117548 -2.26524570
  H  1.26823657 -3.32374404 -1.00844063
  H  2.69657216 -2.32964337 -0.73683881
  H -0.21898551 -1.60877736 -0.41034291
  H  2.36041953  1.32879865 -1.22885232
  H  2.98556882  0.66152191  0.26163456
  H  2.99502306 -0.33281443 -1.22167916
  H -0.28537890  3.99342371  1.24327902
  H -1.51332980  2.76586395  0.85606530
  H -0.55444170  2.62686579  2.33043738
  H -0.34834127 -0.46207615  2.58535099
  H -2.53682881 -1.34424460  3.29648110
  H -4.49632265 -1.13124040  1.81169653
  H -4.25756191 -0.03708070 -0.38642333
  H -2.06761843  0.84220233 -1.09553816
