29
opt_min/./Reactant_1291_0_opt.xyz
  C  5.03418700 -0.02969300  0.17838800
  O  3.61804525  0.08913973  0.18815079
  C  2.96772292 -0.42431592 -0.87602961
  O  3.54004783 -0.94409989 -1.80625113
  C  1.51234664 -0.29859731 -0.85688584
  N  0.73775939  0.31737507  0.00420651
  C  1.31851500  1.08649672  1.08654325
  C -0.62621543  0.19068466 -0.05108843
  C -1.44354332  1.33559094  0.33045760
  O -1.00190004  2.45669583  0.50604121
  O -2.75385921  1.06547244  0.43701784
  C -3.58353175  2.17830386  0.72533764
  C -1.16416640 -1.09485066 -0.49254856
  O -0.47595003 -2.07109432 -0.71958123
  O -2.50182318 -1.13911132 -0.53557819
  C -3.06583983 -2.39893903 -0.86395285
  H  5.42022979  0.79792496  0.76969891
  H  5.40894939  0.01595031 -0.84555208
  H  5.32855161 -0.98169964  0.62453528
  H  1.04769037 -0.80328272 -1.68938934
  H  1.92241893  1.90219760  0.69189647
  H  0.53827817  1.50080614  1.71534582
  H  1.96112429  0.43583293  1.67875531
  H -3.54172655  2.90629418 -0.08797797
  H -3.26264718  2.66887908  1.64742378
  H -4.58981901  1.78175311  0.83128435
  H -2.91574067 -2.61719438 -1.92403310
  H -4.12649177 -2.32021699 -0.63936371
  H -2.60125036 -3.19245046 -0.27510880
