27
opt_min/./Reactant_1242_1_opt.xyz
  C -4.06153600 -1.60771200 -0.01217400
  N -2.62292579 -1.68881601 -0.03372403
  C -1.84320451 -0.60813753 -0.20919545
  O -2.27367474  0.52112452 -0.36128530
  C -0.37780863 -0.90500609 -0.23498243
  F -0.11404029 -2.18868267 -0.63469555
  C  0.60554634 -0.04481911  0.03619978
  C  2.09128968 -0.23607083 -0.15449014
  O  2.81158114  0.73517921 -0.24413322
  N  2.55038227 -1.50415741 -0.17835627
  C  3.95910171 -1.79712542 -0.27895559
  C  0.34414855  1.26792469  0.75660179
  O  0.69485763  1.34446119  1.91241206
  N -0.15650323  2.27191098  0.01769298
  C -0.44733776  3.53910998  0.65296974
  H -4.45432998 -2.13301093  0.85844614
  H -4.48793295 -2.04601936 -0.91695585
  H -4.33365504 -0.55526389  0.04116989
  H -2.19991704 -2.59773394  0.07508820
  H  1.91248710 -2.27634459 -0.26249109
  H  4.49820374 -0.85482226 -0.20313770
  H  4.19120515 -2.27377792 -1.23340125
  H  4.26164890 -2.45789003  0.53479481
  H -0.77579369  1.99213173 -0.73069093
  H  0.40256956  3.80980652  1.27720148
  H -1.33802456  3.47652942  1.28256540
  H -0.59361652  4.29181113 -0.11767225
