20
opt_min/./Reactant_2593_1_opt.xyz
  C  3.49997800  0.51372200  0.28720000
  N  2.09362763  0.22661232  0.40697045
  C  1.55373192 -0.89458494 -0.08522669
  O  2.15403022 -1.76386244 -0.68323285
  C  0.06914391 -1.02683777  0.19073024
  C -0.72683584  0.23848194  0.33315057
  O -0.39251147  1.11198141  1.11556244
  N -1.77802978  0.32935728 -0.49546852
  C -2.67845967  1.45715340 -0.48077008
  C -0.45487021 -2.24183216  0.35416381
 Br -2.27128576 -2.50719192  0.80818489
 Br  0.49726093 -3.85425124  0.21977626
  H  3.66135500  1.40711179 -0.32061483
  H  3.97665438 -0.33731188 -0.19807401
  H  3.94164271  0.67176038  1.27154807
  H  1.48836947  0.89791437  0.86776216
  H -1.97936871 -0.42229385 -1.13638534
  H -3.69715500  1.12188080 -0.28583976
  H -2.35433897  2.12508565  0.31546081
  H -2.64784682  1.98673513 -1.43414526
