14
opt_min/./Reactant_195_0_opt.xyz
  C  2.78389004 -0.13395405 -0.55360786
  C  1.40539173 -0.50429293 -0.44343723
  N  0.27924621 -0.79768963 -0.32598428
  C -0.96555531 -1.11620847 -0.17829582
  C -1.95752767 -0.25874884  0.38720510
  C -1.51373729  1.12602778  0.83475475
  O -3.12380432 -0.61082592  0.49591060
  H  3.31849035 -0.25778675  0.39143522
  H  3.25596022 -0.76038528 -1.31024114
  H  2.86247671  0.90608639 -0.87557641
  H -1.25833159 -2.09337248 -0.52361732
  H -2.07860284  1.86567707  0.27081226
  H -0.45116849  1.29776064  0.69299196
  H -1.76493782  1.25281211  1.88467806
