23
opt_min/./Reactant_854_0_opt.xyz
  C -0.55459413  0.74388550 -2.37803784
  C  0.86604088  0.60049085 -1.84297078
  O  1.81708009  0.87731048 -2.56006198
  C  1.02339363  0.23679964 -0.46350105
  C  2.25700210  0.41724994  0.16126393
  N  3.25504458  0.49950848  0.73207244
  N -0.00069360 -0.26376461  0.34021463
  C -0.76998413 -1.37985726 -0.17430601
  C -0.19445199  0.15651152  1.57025378
  C -1.09486753 -0.59353563  2.49140501
  C  0.46152704  1.39286849  2.05456931
  H -0.86184223 -0.16107970 -2.89941157
  H -1.27029313  0.97164431 -1.59132071
  H -0.54825984  1.54947073 -3.10842345
  H -0.48011449 -1.57334737 -1.20210636
  H -1.83982058 -1.17312650 -0.12491230
  H -0.55942805 -2.27909659  0.40845234
  H -2.13803177 -0.51596185  2.17790911
  H -1.01140763 -0.19927768  3.49937215
  H -0.84166966 -1.65365785  2.51638728
  H  0.57830363  2.10159113  1.23232596
  H  1.46967785  1.19285620  2.42959370
  H -0.11993353  1.84527991  2.85361239
