28
opt_min/./Reactant_1458_1_opt.xyz
  C  3.39887700 -1.06762900 -1.39052100
  N  2.04170234 -0.92704018 -0.92426091
  C  1.58168367  0.21257839 -0.37417262
  O  2.30867718  1.20143127 -0.29268742
  C  0.17395755  0.21239472  0.11219983
  C -0.27630923  1.30110264  1.05892039
  O -1.17754926  1.11671049  1.86071152
  N  0.39017949  2.46023343  0.94469280
  C  0.06660914  3.60963984  1.74940189
  C -0.76706989 -0.69582118 -0.24409963
  O -0.44936619 -1.84109084 -0.92143576
  C -1.43218275 -2.41242954 -1.77663022
  O -2.08163928 -0.50125988 -0.02514928
  C -2.67484080 -1.25318647  1.03916577
  H  3.88432448 -0.09691794 -1.30106311
  H  3.41256883 -1.38777745 -2.43300221
  H  3.93705854 -1.79643251 -0.78173766
  H  1.38574706 -1.67462892 -1.08291611
  H  1.27417442  2.40674157  0.43964567
  H -0.70135062  3.31843765  2.46529695
  H -0.31479981  4.41529414  1.11873035
  H  0.94959305  3.96528296  2.28269758
  H -1.05042930 -3.39520951 -2.04551809
  H -1.54709559 -1.80282901 -2.67697429
  H -2.40181432 -2.50872964 -1.28904459
  H -3.73886002 -1.30246469  0.81684175
  H -2.25476620 -2.26009842  1.10429081
  H -2.50315233 -0.71715742  1.97418096
