23
opt_min/./Reactant_4570_1_opt.xyz
  C -2.95909000 -1.89351500 -0.14206300
  O -1.68713712 -1.31708957 -0.39817505
  C -1.37801348 -0.18189569  0.26050948
  O -2.09906274  0.34843812  1.07375766
  C -0.03622733  0.25849075 -0.10659065
  O  0.45852986 -0.29423196 -1.23724944
  C  1.69069524 -0.22527822 -1.57286762
  C  2.91162096 -0.08722446 -0.74803474
  C  2.83269505 -0.57903351  0.67956621
  O  3.94915332  0.25087450 -1.26466422
  C  0.58761843  1.49468722  0.28683748
  C -0.17309850  2.39971986  1.20740729
  O  1.66279021  1.81617556 -0.21321126
  H -3.55952171 -1.83587071 -1.05070645
  H -2.80736542 -2.93643414  0.13545930
  H -3.45382726 -1.35413539  0.66810349
  H  1.85361193 -0.40779999 -2.63267566
  H  3.67727559 -1.24411301  0.84882385
  H  2.94168208  0.26784770  1.35404630
  H  1.90320369 -1.09809765  0.89662136
  H -1.15088869  2.63395538  0.79493978
  H  0.39946024  3.31086675  1.35974565
  H -0.33922302  1.89092642  2.15331498
