21
opt_min/./Reactant_95_1_opt.xyz
  C  2.73412483 -1.20939442 -1.67695498
  C  1.58241722 -0.57927330 -0.95248202
  C  0.61893441  0.09553779 -1.69588280
  N -0.12811892  0.66021454 -2.36795152
  N  1.55171015 -0.67368794  0.37322883
  N  0.75290530 -0.25489805  1.28961069
  C -0.52070227  0.20001487  1.00495247
  C -0.97124653  1.33340412  1.68423239
  C -2.26735232  1.77408959  1.51875902
  C -3.14324572  1.08112322  0.69805038
  C -2.71272210 -0.06412171  0.04934254
  C -1.41322903 -0.50467693  0.19177478
  H  3.64324371 -1.16281742 -1.07642962
  H  2.90903151 -0.69361095 -2.61900045
  H  2.52600712 -2.25809508 -1.90631125
  H  2.37906011 -1.12463540  0.77552741
  H -0.27983431  1.86392213  2.32175069
  H -2.59860940  2.66405706  2.03561708
  H -4.15837376  1.42660702  0.57072933
  H -3.39461622 -0.61904574 -0.57853636
  H -1.09569242 -1.41523575 -0.29737611
