31
opt_min/./Reactant_2595_0_opt.xyz
  C -0.87469200 -2.84570200 -1.96471400
  O -0.43808625 -1.72907618 -1.20864380
  C -1.42697659 -1.08856820 -0.50673841
  O -2.56476740 -1.48166985 -0.51232518
  C -0.92556531  0.10830126  0.15201609
  C -1.90861807  1.09838408  0.55820553
  O -3.03138180  1.19987361  0.13326575
  O -1.44055897  1.91951035  1.55074274
  C -2.38106010  2.86295644  2.03620608
  N  0.42522011  0.28500247  0.31703163
  C  0.97147505  1.60242832  0.04035621
  C  1.21831836 -0.68423050  0.73281954
  C  0.68362796 -1.88049509  1.43339432
  C  2.68175211 -0.70642196  0.49853587
  C  3.12626728 -0.36986126 -0.91069666
  O  3.46110065 -1.07645262  1.34780250
  H -0.03135271 -3.14296195 -2.58350537
  H -1.17046292 -3.66433905 -1.30451134
  H -1.73053847 -2.57320127 -2.58485666
  H -1.86037389  3.44844109  2.78994489
  H -2.73369198  3.50271603  1.22431814
  H -3.24020228  2.35148330  2.47397641
  H  0.85055867  1.84163635 -1.01657039
  H  2.02040418  1.64310463  0.31963150
  H  0.42678759  2.33809412  0.62786852
  H  0.60828501 -2.73736946  0.76337186
  H  1.38368838 -2.14696478  2.22657632
  H -0.30332356 -1.67367595  1.84528422
  H  3.80424200 -1.15516925 -1.23834546
  H  2.28478906 -0.30287187 -1.59247840
  H  3.69104988  0.56051285 -0.92556969
