11
opt_min/./Reactant_3237_1_opt.xyz
  C -1.79943600  0.13878200  0.26413600
  C -0.43306064 -0.47640762  0.30295042
  O -0.16106225 -1.54194913  0.81976888
  N  0.52924255  0.30072939 -0.32967784
  N  1.69627988 -0.21891394 -0.29461533
  N  2.76033074  0.22248450 -0.75920234
  H -1.74588605  1.14884525 -0.12679622
  H -2.22716060  0.13636930  1.26371405
  H -2.43957397 -0.46979066 -0.37184748
  H  1.77579421 -1.14246194  0.19638518
  H  2.62500753  1.12493172 -1.22284898
