44
opt_min/./Reactant_2687_0_opt.xyz
  C  3.21294274  1.46719262  1.78009064
  C  2.43687234  1.53264629  0.45026553
  C  2.54356506  2.86107045 -0.11973822
  N  2.59169730  3.92463068 -0.53677413
  C  1.01986449  1.21837076  0.56484648
  C -0.03258773  0.71412483  0.28608449
  C -1.09024357  0.01703669 -0.41854783
  C -2.39601328  0.79068774 -0.38712412
  C -3.31112443  0.77222664 -1.43002026
  C -4.50614962  1.46319053 -1.32816823
  C -4.80690974  2.17963567 -0.18350893
  C -3.90058092  2.20333353  0.86235543
  C -2.70731809  1.51299306  0.75981783
  C -1.35220307 -1.35527285  0.18631720
  C -2.17621707 -2.26934854 -0.45810619
  C -2.42780048 -3.50876041  0.10037012
  C -1.86561987 -3.85420207  1.31759227
  C -1.05597296 -2.94534152  1.97444970
  C -0.80484065 -1.70491769  1.41396601
  C -0.48462724 -0.09780485 -1.84597102
  C  0.95716355 -0.63908683 -1.92233966
  C  2.12428161  0.37697142 -1.87638015
  C  2.94733608  0.48355197 -0.57843844
  H  2.59474941  1.01898048  2.55473147
  H  3.50614040  2.46264383  2.10872746
  H  4.11284425  0.86711154  1.66501319
  H -3.10096323  0.23103882 -2.34019901
  H -5.20590852  1.44088353 -2.15109327
  H -5.74022581  2.71741087 -0.10830944
  H -4.12197818  2.76123998  1.76034026
  H -2.00150972  1.53493098  1.57833600
  H -2.64093502 -2.01507217 -1.39893334
  H -3.06964280 -4.20748595 -0.41611170
  H -2.06295241 -4.82267478  1.75245923
  H -0.61775461 -3.19917386  2.92870868
  H -0.17194227 -1.00113163  1.93484551
  H -0.51804129  0.88788396 -2.31591611
  H -1.11662049 -0.77104257 -2.42574932
  H  1.02307569 -1.12339972 -2.90095215
  H  1.10532826 -1.42207926 -1.17642888
  H  1.76548579  1.36465360 -2.17273953
  H  2.83694883  0.06175417 -2.64343140
  H  2.96615999 -0.48926363 -0.08256604
  H  3.97470666  0.75474097 -0.83912192
