22
opt_min/./Reactant_5627_1_opt.xyz
  C  3.48292400 -1.19092000 -0.65262500
  O  2.17157606 -0.68795324 -0.45089501
  C  1.17652810 -1.59689225 -0.36085719
  O  1.34034079 -2.79417624 -0.44320111
  C -0.12098495 -0.97546952 -0.18259705
  O -0.18495240  0.31999484 -0.12690952
  C -1.17501905  1.14156994  0.01221451
  C -0.80720960  2.59450315  0.02025675
  C -2.59183003  0.81995716  0.16587895
  O -3.43982185  1.67193972  0.31757625
  O -2.85524423 -0.50508692  0.17737556
  C -4.21314587 -0.88814102  0.35300387
  H  3.74395048 -1.11382598 -1.71020277
  H  3.53412600 -2.23607398 -0.34132261
  H  4.15952923 -0.57919252 -0.05810956
  H -0.99084858 -1.60796426 -0.09692658
  H  0.26802728  2.69707917 -0.09039767
  H -1.31259928  3.11497642 -0.79177244
  H -1.12820268  3.06207986  0.94949240
  H -4.21372884 -1.79256959  0.95829590
  H -4.66151875 -1.08851268 -0.62166079
  H -4.76420937 -0.08818684  0.84993413
