25
opt_min/./Reactant_1851_0_opt.xyz
  C  4.72021690  0.70715670  0.04596730
  N  3.38074495  0.30309435 -0.29639961
  C  3.12715324 -0.50554166 -1.34995607
  O  3.97863919 -0.93172131 -2.10527821
  C  1.67960247 -0.82959418 -1.51939973
  C  1.30512018 -1.67148339 -2.57242491
  N  1.02108151 -2.39578856 -3.42161941
  O  0.87667341 -0.30386957 -0.63075418
  C -0.40047857 -0.29360194 -0.43081804
  C -1.40918384 -0.99476366 -1.27860221
  C -0.72909749  0.50307846  0.77388282
  O  0.14532411  1.10533408  1.37849751
  N -2.02962473  0.50845354  1.14962118
  C -2.49084668  1.25364224  2.29395870
  H  5.03680155  0.24555291  0.98495474
  H  5.38218433  0.37937933 -0.75387851
  H  4.77327181  1.79177537  0.14773801
  H  2.62865449  0.61097828  0.30339419
  H -0.96063393 -1.30997088 -2.21692268
  H -2.25095838 -0.34008528 -1.49992645
  H -1.78640131 -1.88661004 -0.77211882
  H -2.70807219 -0.02200558  0.62989990
  H -3.04054599  0.60154682  2.97444090
  H -1.61528894  1.65507825  2.80110950
  H -3.13837006  2.07826960  1.98762533
