20
opt_min/./Reactant_945_1_opt.xyz
  N  3.77844995  1.14477685  2.50246615
  C  3.44292862  0.45827020  1.64159430
  C  3.02298233 -0.36330983  0.59467475
  C  3.94031283 -1.18868509 -0.05438977
  N  4.67695179 -1.88330510 -0.60254678
  N  1.72709661 -0.37660314  0.18590579
  C  0.72566218  0.33875998  0.64695624
  C -0.61659148  0.25543541  0.16537052
  C -1.58406153  1.09020195  0.74678292
  C -2.89558881  1.06039145  0.32283501
  C -3.28019164  0.20134674 -0.69541871
  C -2.33747988 -0.63014194 -1.28233834
  C -1.02443694 -0.60846583 -0.86235908
  H  1.52796012 -1.02862860 -0.57018591
  H  0.95425349  1.02668167  1.44936733
  H -1.28909751  1.76098751  1.54011532
  H -3.62297734  1.70867283  0.78779507
  H -4.30478279  0.17799626 -1.03304651
  H -2.63226223 -1.30037627 -2.07595697
  H -0.31840018 -1.27075904 -1.34520028
