28
opt_min/./Reactant_5054_0_opt.xyz
  C  4.87185799  0.01432619  1.70476205
  O  4.00848122  0.47553576  0.68030852
  C  2.69563432  0.17380359  0.79559191
  O  2.23788580 -0.46054153  1.73044007
  C  1.95606380  0.70386278 -0.32701223
  C  2.68222206  1.37724857 -1.31050592
  N  3.26984009  1.93762671 -2.12767085
  N  0.59665721  0.58730583 -0.47442576
  C  0.06910600  1.15003358 -1.70633296
  C -0.18085182 -0.02958865  0.38072014
  C -1.62145878 -0.09812635  0.36939323
  C -2.22346595 -1.26896675  0.84918866
  C -3.59645208 -1.39267817  0.89208794
  C -4.40492548 -0.34307876  0.48320075
  C -3.82589549  0.83786525  0.04812949
  C -2.45155842  0.96423926 -0.01120714
  H  5.53410034  0.83682200  1.97179740
  H  5.45883865 -0.82555260  1.32742251
  H  4.28839842 -0.30512270  2.57073011
  H -0.93340797  0.77236700 -1.89188999
  H  0.05165407  2.23983000 -1.65407259
  H  0.71922347  0.86782867 -2.53518802
  H  0.32446469 -0.54820270  1.18485714
  H -1.59418401 -2.08486632  1.17242051
  H -4.04146574 -2.30839642  1.25197030
  H -5.47925795 -0.43894515  0.51943744
  H -4.44952763  1.67014654 -0.24233775
  H -2.02228932  1.91088196 -0.30275163
