26
opt_min/./Reactant_796_1_opt.xyz
  C  4.62670900 -0.91142300  0.27422800
  N  3.19115799 -0.75655856  0.24708869
  C  2.40796426 -1.56982331 -0.52168153
  O  2.84183871 -2.40632818 -1.27146420
  N  1.02980377 -1.38334897 -0.35191139
  N  0.55801355 -0.21214848 -0.31081035
  C -0.69150672  0.19220212 -0.12809086
  C -1.83506492 -0.70701572  0.10296226
  O -2.97428979 -0.33806951  0.24348302
  O -1.44239241 -1.98207245  0.16613730
  C -2.45634509 -2.95240991  0.37719533
  C -0.80130648  1.66198345 -0.18922969
  O  0.19803293  2.34208348 -0.35557642
  O -2.02257099  2.13580880 -0.05326753
  C -2.18343513  3.54718093 -0.10857722
  H  4.94713601 -1.51408877  1.12841281
  H  5.10219319  0.06743376  0.32577434
  H  4.92144726 -1.41763576 -0.64376430
  H  2.77874120 -0.18839251  0.97140269
  H  1.17758252  0.61960765 -0.47389213
  H -1.96687701 -3.81676155  0.82082366
  H -3.22911069 -2.55714095  1.03993240
  H -2.91066823 -3.22763379 -0.57774254
  H -1.45382821  3.98701805 -0.79152694
  H -2.04714665  3.97210306  0.88839526
  H -3.19848541  3.72834845 -0.45470683
