34
opt_min/./Reactant_5693_0_opt.xyz
  C -1.79351800 -3.92882400  1.17209000
  N -1.07326688 -2.80606476  0.63058422
  C -1.70714280 -1.68653601  0.18816214
  O -2.91920041 -1.56468046  0.22022591
  C -0.80807095 -0.63134965 -0.31429217
  O  0.47380007 -0.81483428 -0.06252807
  C  1.53241334 -0.20082067 -0.52492512
  C  1.53888048  0.76831741 -1.65402040
  C  2.81710427 -0.58645152  0.06723742
  O  3.88217125 -0.23982599 -0.41734477
  N  2.73708224 -1.36647078  1.18204907
  C  3.91346974 -1.76360217  1.91295192
  C -1.40824275  0.55473778 -0.91921708
  C -1.03992284  1.83541655 -0.49802396
  C -1.66432336  2.94894050 -1.02527676
  C -2.66485971  2.80441772 -1.97189843
  C -3.04976513  1.53749017 -2.38154199
  C -2.43241413  0.41863834 -1.85944104
  H -1.54880170 -4.84345248  0.63068862
  H -2.85451315 -3.71301141  1.06237141
  H -1.56433317 -4.06768456  2.23142830
  H -0.07652796 -2.88973899  0.52286206
  H  0.70299517  0.59504165 -2.32812781
  H  1.49971945  1.80393708 -1.31013639
  H  2.48048765  0.63876184 -2.18319847
  H  1.84258712 -1.51610454  1.61733780
  H  4.76204761 -1.67541995  1.23720762
  H  4.08672737 -1.11930626  2.77876674
  H  3.81437382 -2.79485004  2.24912620
  H -0.28782089  1.95304875  0.26757613
  H -1.37830491  3.93344153 -0.68591442
  H -3.15052887  3.67760818 -2.38234985
  H -3.83570499  1.42356460 -3.11327666
  H -2.73321934 -0.56806590 -2.17344811
