22
opt_min/./Reactant_2134_1_opt.xyz
  C  4.01355022  0.64233931  1.40024222
  N  2.63901032  0.44679678  0.98209998
  C  2.11594615  1.27850979  0.02887572
  O  2.76416834  2.10980320 -0.56035396
  C  0.67937594  0.98481869 -0.27173298
  C -0.12107995  2.04294023 -0.71815037
  N -0.67968866  2.93626563 -1.17790724
  N  0.27239856 -0.27989612 -0.22408414
  C -0.97058566 -0.79757394 -0.34355986
  C -1.05972111 -2.17835734 -0.54662351
  N -1.11113043 -3.31642523 -0.70960343
  C -2.16016438 -0.00328083 -0.02378595
  C -3.47809953 -0.66804714 -0.31163538
  O -2.05585599  1.09215088  0.49166334
  H  4.29408181 -0.15163038  2.08685896
  H  4.65263228  0.61164929  0.51858552
  H  4.14927694  1.61398291  1.88214812
  H  2.01929256  0.04095494  1.66768309
  H  1.02350829 -0.96476494 -0.12039343
  H -4.27575534 -0.12126199  0.18461096
  H -3.65188299 -0.64686324 -1.38751819
  H -3.47616328 -1.70776683  0.00788716
