26
opt_min/./Reactant_5777_0_opt.xyz
  C  0.71601900  1.41228200  0.33446500
  O  1.02052065  2.54485558  0.65430509
  C -0.56689779  1.13148725 -0.35591294
  O -1.23225655  2.28027052 -0.59905464
  C -2.61646207  2.29154049 -0.87806554
  C -0.94146117 -0.14047578 -0.69271508
  O -2.09982346 -0.30674581 -1.40030595
  C -2.70964064 -1.57459162 -1.54527674
  C -0.06130132 -1.28096871 -0.37987319
  O -0.34796983 -2.43040551 -0.68135684
  C  1.21615850 -0.99423178  0.31557952
  C  2.06957891 -2.17907126  0.62631707
  C  1.59750133  0.26016302  0.62066686
  C  2.90072876  0.57007399  1.27865566
  H -2.90236447  3.34174568 -0.84703227
  H -2.83276652  1.87975503 -1.86488005
  H -3.18085410  1.73885371 -0.12390320
  H -3.67989733 -1.36172750 -1.99286447
  H -2.13431772 -2.22469857 -2.20697993
  H -2.85007702 -2.07672683 -0.58659532
  H  2.35947381 -2.18085256  1.67408741
  H  1.52777597 -3.09153269  0.39506245
  H  2.97983557 -2.15317522  0.02939384
  H  2.96061217  0.09160103  2.25504153
  H  2.99617005  1.64413093  1.40461573
  H  3.72890429  0.20016147  0.67830325
