18
opt_min/./Reactant_936_1_opt.xyz
  C -2.62784600  0.64103000 -0.00262300
  C -1.89860218 -0.28951592 -0.93828469
  O -2.41577067 -0.79049675 -1.90798057
  C -0.49474384 -0.54260433 -0.58927003
  C  0.48716452 -1.08212457 -1.32236435
  F  0.50817404 -1.52164085 -2.56513547
  C  1.75703551 -1.03095649 -0.47163523
  C  2.10597147  0.46450503 -0.40872750
  C  1.15872058  0.99616179  0.34518092
  C  0.24474831 -0.17839157  0.71945394
  O  1.18663943 -1.23274335  0.80824076
  H -3.05061259  0.04227023  0.80474560
  H -1.97213401  1.39489861  0.41925530
  H -3.45171958  1.11425845 -0.53316908
  H  2.54487678 -1.73930610 -0.70108551
  H  2.94025146  0.91245403 -0.90692725
  H  0.99264913  2.01135414  0.64182873
  H -0.34545084 -0.10311044  1.62503221
