29
opt_min/./Reactant_5483_1_opt.xyz
  C -3.69987784  1.85435860 -2.37297475
  N -2.82531410  1.20324879 -1.42142528
  C -3.21584196 -0.00161808 -0.87716120
  O -4.22817175 -0.56841634 -1.25349320
  C -2.30250663 -0.59047176  0.10039630
  C -2.80355569 -1.68689410  0.97066070
  N -1.04086065 -0.18117623  0.14187322
  C -0.02438461 -0.50048434  0.96611703
  C -0.19252916 -1.28534576  2.10840267
  N -0.22269423 -1.91508249  3.07337736
  C  1.31252269 -0.00034629  0.68971974
  C  2.27945808 -0.00877749  1.70585439
  C  3.54666631  0.48679267  1.48017941
  C  3.88449000  1.00844674  0.24135003
  C  2.94787216  1.00801649 -0.77847194
  C  1.67966640  0.50628697 -0.56430040
  H -4.09384618  1.08974453 -3.03993613
  H -3.13323510  2.58742529 -2.94233821
  H -4.54345066  2.34450154 -1.87777016
  H -2.25723202  1.83141288 -0.87424087
  H -3.79990669 -1.96456294  0.63652523
  H -2.85135309 -1.36926862  2.01308393
  H -2.14824039 -2.55582372  0.91652175
  H -0.76345293  0.47715064 -0.58414863
  H  2.01725118 -0.40360096  2.67514528
  H  4.27590521  0.46988899  2.27583670
  H  4.87387019  1.40404060  0.06756820
  H  3.20963060  1.39593989 -1.75198709
  H  0.99222477  0.47520244 -1.40016103
