22
opt_min/./Reactant_5113_1_opt.xyz
  C -3.57676083 -0.83197352 -0.85653777
  N -2.32717270 -0.15134126 -0.63005836
  C -1.19128625 -0.79463494 -0.39509075
  O -1.07118332 -2.02334327 -0.34360208
  C  0.05782380  0.01408951 -0.16197115
  N  1.03499090 -0.84528450  0.10395968
  C  2.28770331 -0.84548002  0.53915790
  C  2.97023273 -2.08106696  0.58067457
  N  3.56572511 -3.06187355  0.56716799
  C  3.01607068  0.22478659  1.07705586
  N  3.63887662  1.01594240  1.63125834
  C  0.10070544  1.44895705 -0.36484990
  C  1.43142344  2.14030076 -0.45590211
  O -0.93345475  2.08699871 -0.53196195
  H -3.38887497 -1.90472149 -0.87785260
  H -4.28266000 -0.60238238 -0.05595160
  H -4.00600867 -0.51750966 -1.80817716
  H -2.30120750  0.86842794 -0.63902747
  H  0.56180019 -1.79816348 -0.00707235
  H  1.78384848  2.39386680  0.54349278
  H  1.29733421  3.07174116 -1.00324763
  H  2.18452211  1.53034816 -0.94995154
