24
opt_min/./Reactant_431_1_opt.xyz
  C  2.71499300 -1.19380900  0.53704400
  O  2.13353249  0.07701528  0.35327227
  C  0.82035149  0.12199410 -0.02155282
  C  0.08495702  1.23607326 -0.10308505
  C  0.47985709  2.64160912  0.19863572
  C -1.31023192  0.80608513 -0.49183939
  C -1.90772952  0.09813189  0.74770680
  C -1.05366821 -1.17417114  0.85121103
  C -0.08738333 -1.04792771 -0.34976542
  C -1.00094001 -0.39437353 -1.38383432
  H  3.69887776 -1.00826463  0.96822916
  H  2.12464263 -1.80410318  1.22775208
  H  2.83141874 -1.72704615 -0.40929972
  H -0.36686018  3.18499464  0.61275704
  H  0.79967321  3.14824447 -0.71412208
  H  1.30741135  2.65508861  0.90316262
  H -1.94661942  1.59120223 -0.89546077
  H -1.84637737  0.72983298  1.63208456
  H -2.95879958 -0.14002820  0.57613157
  H -1.66198899 -2.07613543  0.75904865
  H -0.51781934 -1.24105503  1.79905356
  H  0.39771233 -1.98059055 -0.62600562
  H -1.87369239 -0.99761550 -1.63772016
  H -0.48792793 -0.11796730 -2.30536072
