34
opt_min/./Reactant_2925_1_opt.xyz
  C  2.91060338  1.33514509  1.80342535
  O  2.81735726  0.04526370  2.36928274
  C  1.74196670 -0.74754977  1.99518150
 Br  1.32933446 -1.79546080  3.66256739
  C  0.56527831 -0.06705217  1.54855286
  C -0.28818158  0.25420639  0.76920734
  C -1.02253441  0.52651054 -0.43585571
  C -2.34900409 -0.22328007 -0.29675870
  C -2.31804875 -1.69508084 -0.58677870
  O -3.33884075  0.34001580  0.09347433
  C -1.20937370  2.05883843 -0.59898105
  C -2.21428938  2.49698732 -1.62181768
  O -0.49668757  2.82533166 -0.00837640
  C -0.05216783  0.09933571 -1.57005349
  C  0.84000233 -1.16316249 -1.49185826
  C  2.08831838 -1.34729393 -0.59154626
  C  2.06590073 -1.77502407  0.89162818
  H  3.15607526  1.28573839  0.73905749
  H  1.98015737  1.89829299  1.93053644
  H  3.72129202  1.82658677  2.33921143
  H -3.28926024 -2.13079579 -0.36317994
  H -2.07494322 -1.86741532 -1.63308384
  H -1.55316505 -2.16692341  0.02788306
  H -3.13875876  1.93492702 -1.54361689
  H -1.78755462  2.34017872 -2.61352323
  H -2.41362199  3.55923927 -1.49492912
  H -0.64963035 -0.02061678 -2.48034602
  H  0.62521660  0.94230749 -1.74509791
  H  0.23161139 -2.06693836 -1.42467963
  H  1.28881482 -1.16080568 -2.49398627
  H  2.76517139 -0.50120301 -0.73295248
  H  2.56709224 -2.21759898 -1.05931046
  H  1.38820861 -2.62684680  0.98854559
  H  3.07431781 -2.13974700  1.11393970
