22
opt_min/./Reactant_2291_1_opt.xyz
  C  3.77083200 -0.61368500  0.30652400
  C  2.57147380  0.26775895  0.38288048
  O  2.56844204  1.45630564  0.64841806
  N  1.38523172 -0.41330294  0.10225685
  N  0.37274142  0.36641419  0.17245526
  C -0.90331424  0.10891586 -0.03764291
  C -1.28832519 -1.27465812 -0.45175636
  C -2.75273317 -1.57034456 -0.58614704
  O -0.44011095 -2.10840527 -0.66477232
  C -1.86232547  1.21873984  0.13590566
  C -1.31447165  2.51688747  0.69835967
  O -3.03727980  1.11844685 -0.14043685
  H  3.64043527 -1.32886254 -0.49971411
  H  3.84629264 -1.17128796  1.23866564
  H  4.67176470 -0.02277617  0.17330131
  H  0.63879815  1.34828544  0.42929585
  H -2.87782385 -2.61956266 -0.83928146
  H -3.27251709 -1.34597402  0.34202927
  H -3.19318674 -0.94737563 -1.36060451
  H -0.62693598  2.98806054 -0.00235004
  H -2.15219317  3.19248527  0.85282333
  H -0.81242870  2.36087054  1.65107087
