36
opt_min/./Reactant_3152_1_opt.xyz
  F -3.01350191  0.95905838  2.01099451
  C -2.70626366 -0.27779104  1.61605144
  F -3.77351350 -1.04613282  1.86786031
  F -1.72948554 -0.71333508  2.42933214
  C -2.24865821 -0.35342297  0.15237916
  C -3.31813368  0.23626306 -0.77265757
  F -3.56553305  1.52550300 -0.54888501
  F -2.93615952  0.13377633 -2.05341428
  F -4.48628494 -0.41312986 -0.67509967
  C -1.00698895  0.44446829  0.02294808
  C  0.16613723  0.27705384 -0.27754549
  C  1.47855034 -0.13581712 -0.78444023
 Cl  1.36959467  0.13524596 -2.58875964
  C  2.62318638  0.66326664 -0.21234655
  C  3.84400092  0.74245255 -0.86958929
  C  4.89137650  1.45201318 -0.31060761
  C  4.73144868  2.08291831  0.91116473
  C  3.51802009  2.00216333  1.57229820
  C  2.46665671  1.29581147  1.01553820
  C  1.80354729 -1.67739813 -0.57313837
  C  0.72182111 -2.76765713 -0.88288665
  C -0.51805303 -2.00524236 -0.42325281
  C -2.02450022 -1.92043953 -0.24026814
  H  3.97070819  0.25961168 -1.82665343
  H  5.83462248  1.51226182 -0.83254655
  H  5.54927427  2.63843547  1.34508744
  H  3.38520710  2.49303284  2.52462081
  H  1.51950588  1.23736211  1.53151957
  H  2.69833610 -1.86696959 -1.16680537
  H  2.07804070 -1.76793346  0.48111209
  H  0.69890291 -3.01426014 -1.94244486
  H  0.95834690 -3.66474738 -0.31198755
  H -0.18019869 -1.66584241  0.55846379
  H -0.44122748 -1.24455692 -1.19807224
  H -2.58615558 -2.14436141 -1.14598526
  H -2.40725153 -2.53418261  0.57474658
