29
opt_min/./Reactant_1475_1_opt.xyz
  C -2.69723427 -2.71198110 -0.64220916
  C -1.46785191 -1.84476977 -0.73944258
  O -0.91668428 -1.69077257 -1.82237404
  C -0.91642836 -1.20164816  0.43378001
  N  0.11420697 -0.32420687  0.26672377
  C  0.65068111  0.30631036 -0.74844159
  C  0.13714390  0.32553835 -2.06434645
  N -0.13666180  0.59210365 -3.15034275
  C  1.82972478  1.15029620 -0.51796968
  C  2.69681978  0.88814470  0.54890434
  C  3.79822629  1.69260029  0.76476180
  C  4.05688549  2.76380091 -0.07485608
  C  3.21146262  3.02393344 -1.14121824
  C  2.10739701  2.22536814 -1.36740583
  C -1.12174403 -1.42899630  1.85534769
  C -2.17061423 -2.37295663  2.36731009
  O -0.39809895 -0.82153678  2.64720370
  H -2.50459279 -3.60676901 -0.05728496
  H -2.97319950 -3.00710372 -1.65203105
  H -3.52195903 -2.16538266 -0.19219219
  H  0.50261285 -0.12443182  1.20992415
  H  2.52856311  0.03863482  1.19514661
  H  4.46113955  1.47829767  1.58949494
  H  4.91902441  3.39017319  0.09744396
  H  3.41459463  3.85560244 -1.79851852
  H  1.44630850  2.43260916 -2.19405133
  H -3.15697309 -2.10497890  2.00193159
  H -1.94673080 -3.39242910  2.06179828
  H -2.16570114 -2.32557734  3.45422782
