23
opt_min/./Reactant_1946_1_opt.xyz
  C -1.94233810 -1.40007736  1.28110543
  C -0.79465311 -1.29338085  0.27868866
  F -0.59080243 -2.54491124 -0.29661834
  C -1.03415355 -0.30802275 -0.75655770
  C -0.78185006  0.66680800 -1.41135084
  C -0.13924106  1.87849135 -1.80192767
 Br  0.86113726  1.66320598 -3.47705057
 Br -1.43546714  3.35923287 -2.03775866
  C  0.79998942  2.20460908 -0.63784053
  C  1.87215613  1.14841860 -0.29844168
  C  1.60552339 -0.35923830 -0.09608229
  C  0.54562703 -0.84111504  0.91807303
  H -2.58450394 -2.23183745  0.99911855
  H -1.56044450 -1.57893511  2.28379709
  H -2.53312740 -0.48734968  1.28189953
  H  0.17634160  2.43130616  0.23075459
  H  1.35965424  3.11433392 -0.88502802
  H  2.62426073  1.19244045 -1.09155121
  H  2.34971560  1.52561897  0.61033994
  H  2.56847029 -0.73922711  0.25607253
  H  1.42102606 -0.84003413 -1.05710642
  H  0.94108657 -1.71923943  1.43120155
  H  0.34976235 -0.06777431  1.65983138
