37
opt_min/./Reactant_5875_0_opt.xyz
  C  3.83380500  1.52842900  3.47802800
  N  3.21563260  1.34836436  2.19049155
  C  2.04423898  0.72268719  2.03070507
  O  1.38842705  0.22916779  2.95549883
  C  1.50475728  0.60211862  0.66106406
  N  0.31959820 -0.03919642  0.69332983
  C -0.64393621 -0.29221761 -0.15996220
  C -0.65093052  0.31704562 -1.51920157
  O -0.89239137 -0.23866040 -2.55913099
  O -0.46726423  1.64276654 -1.40970773
  C -0.51957246  2.38812848 -2.61464652
  C -1.78688570 -1.09611562  0.26289335
  C -2.56312886 -1.78483806 -0.67238191
  C -3.63764703 -2.55096742 -0.26133984
  C -3.96646665 -2.63378609  1.08111419
  C -3.21432608 -1.94161520  2.01649156
  C -2.13448034 -1.17803774  1.61866581
  C  2.28819279  0.89386236 -0.50699949
  O  3.29114357  1.59073702 -0.52289439
  O  1.84644408  0.24089674 -1.60796659
  C  2.61697069  0.37744094 -2.78837096
  H  4.89221803  1.27501000  3.41806768
  H  3.73469268  2.56301254  3.81797975
  H  3.33490723  0.87182679  4.18929990
  H  3.65748208  1.70552011  1.35063314
  H  0.20258965 -0.33871249  1.69047375
  H -1.46408990  2.20391339 -3.13265503
  H -0.43399941  3.43427557 -2.33184860
  H  0.30197662  2.10810637 -3.27699534
  H -2.30672404 -1.72823572 -1.71792065
  H -4.22080309 -3.08738793 -0.99472964
  H -4.80975627 -3.22990369  1.39651055
  H -3.47437411 -1.99164084  3.06333495
  H -1.57938123 -0.62583628  2.36251053
  H  1.95638114  0.15600365 -3.62535355
  H  3.02413297  1.38879859 -2.86273257
  H  3.44322735 -0.33876982 -2.77753673
