17
opt_min/./Reactant_801_1_opt.xyz
  O  4.71291700  0.72396900  0.05001100
  C  3.78924489  0.02636477 -0.00356345
  N  3.23665169 -1.07809079 -0.08904773
  O  1.86750868 -1.15236937 -0.09302288
  C  1.30506166  0.05924567  0.00268311
  C -0.15326640  0.06589946  0.00535217
  C -0.81161622  1.29423986  0.10269438
  C -2.19172150  1.33357928  0.10778981
  C -2.91948162  0.15643543  0.01649217
  C -2.26703703 -1.06414549 -0.08022643
  C -0.88698515 -1.11820152 -0.08647833
  O  2.04182586  1.03281280  0.07814229
  H -0.22500011  2.19673753  0.17264543
  H -2.70315226  2.28071626  0.18284719
  H -3.99839996  0.18995024  0.02069620
  H -2.83890753 -1.97676583 -0.15099837
  H -0.37119345 -2.06163021 -0.16125515
