12
opt_min/./Reactant_203_0_opt.xyz
  C  2.45995700  0.16317600  0.09065200
  C  1.29171185 -0.44198808  0.25404294
  C  0.02689580  0.22315110 -0.12645570
  O -0.06703648  1.32795710 -0.59779217
  O -1.02357624 -0.57364441  0.12623324
  C -2.30953645 -0.05356629 -0.17678026
  H  3.38720714 -0.31109707  0.36276136
  H  2.50216315  1.15644343 -0.32474035
  H  1.20194210 -1.43562956  0.66500276
  H -2.52963160 -0.20066953 -1.23613069
  H -3.02113026 -0.60307713  0.43538919
  H -2.34783095  1.01369325  0.05078198
