11
opt_min/./Reactant_141_0_opt.xyz
  C  1.39092000  0.40408400 -0.24168800
  C  0.34386203 -0.47433102 -0.89883108
  O  0.56796298 -1.09529876 -1.91356794
  C -0.96293347 -0.54140918 -0.24852684
  N -1.30417259  0.18707306  0.76787904
  O -2.38851859  0.20644305  1.36786757
  H  2.33986674  0.24335405 -0.74818837
  H  1.10876105  1.45067261 -0.36971951
  H  1.50532207  0.17521269  0.81452381
  H -1.70013518 -1.22178120 -0.65709893
  H -0.57416324  0.84083356  1.11684202
