24
opt_min/./Reactant_1219_1_opt.xyz
  C  2.83664600  0.58955200  0.80520400
  C  1.40216933  0.87033922  0.45490487
  O  0.87949087  1.94144365  0.67598040
  C  0.63017623 -0.22915414 -0.16894360
  C  1.31200817 -1.50123961 -0.56896618
  C -0.68420063 -0.03324984 -0.32007124
  C -1.38794401  1.24582522  0.07132717
  C -1.55049328  2.20505166 -1.07251864
  O -1.90603184  1.36702573  1.15209350
  C -1.64339791 -1.03668437 -0.86482370
  C -2.28810614 -1.85196768  0.22116483
  O -1.89012029 -1.13982166 -2.04023153
  H  2.90716183 -0.29787999  1.42852424
  H  3.41203249  0.41706623 -0.10217303
  H  3.25324885  1.44396884  1.33309609
  H  0.62981093 -2.13461212 -1.12974836
  H  1.65480680 -2.05477529  0.30514548
  H  2.17831703 -1.28810861 -1.19266536
  H -2.36915572  2.88795527 -0.86259687
  H -1.72958084  1.65956217 -1.99721970
  H -0.63278884  2.77813407 -1.18446846
  H -1.53202608 -2.45632948  0.71996940
  H -2.71747874 -1.18161357  0.96246185
  H -3.05801120 -2.49213485 -0.20253674
