35
opt_min/./Reactant_2900_1_opt.xyz
  C  1.80792691  4.04227269  1.70972186
  O  1.50217189  2.70320757  1.34237827
  C  1.07323176  2.51659343  0.10064159
  O  0.88924269  3.38812529 -0.70273774
  C  0.77381476  1.03287048 -0.14512184
  C  1.95568377  0.17723640  0.30074499
  O  3.08574091  0.56856303  0.39694803
  O  1.57205531 -1.07740039  0.53795262
  C  2.58713300 -1.99011652  0.93552151
  C -0.46013884  0.68738290  0.52294876
  C -1.57921741  0.29724715  0.71809319
  C -2.77586740 -0.42151320  0.35356604
  C -3.08266426 -1.60481864  1.26044942
 Cl -4.19877730  0.70080157  0.36327204
  C -2.49800824 -0.82814228 -1.11824900
  C -1.09516526 -1.43379140 -1.33312551
  C -0.02846804 -0.60177713 -2.07813386
  C  0.43572949  0.80287272 -1.64337101
  H  2.73246116  4.36010307  1.22483492
  H  1.92859118  4.04158826  2.78988623
  H  0.99899561  4.71110438  1.40977124
  H  3.31758511 -1.48959466  1.57300756
  H  3.09620615 -2.38836831  0.05547649
  H  2.08944320 -2.79221221  1.47514836
  H -3.70843245 -2.32791738  0.74369379
  H -2.15521495 -2.08848268  1.55932194
  H -3.60179133 -1.27290605  2.15613593
  H -3.25625553 -1.55918240 -1.40770944
  H -2.62505832  0.04960225 -1.75244310
  H -1.21596208 -2.32820904 -1.95075417
  H -0.68830051 -1.76215205 -0.37895801
  H  0.85485903 -1.24563900 -2.10847540
  H -0.36772595 -0.48393054 -3.11059098
  H  1.32887938  1.03235614 -2.22907670
  H -0.32216749  1.54460974 -1.89982252
