34
opt_min/./Reactant_5696_0_opt.xyz
  C -1.79351800 -3.92882400  1.17209000
  N -1.07326690 -2.80606475  0.63058423
  C -1.70714282 -1.68653598  0.18816219
  O -2.91920043 -1.56468043  0.22022596
  C -0.80807097 -0.63134963 -0.31429214
  O  0.47380006 -0.81483426 -0.06252803
  C  1.53241333 -0.20082066 -0.52492509
  C  1.53888047  0.76831744 -1.65402035
  C  2.81710426 -0.58645156  0.06723742
  O  3.88217122 -0.23982604 -0.41734478
  N  2.73708222 -1.36647084  1.18204906
  C  3.91346972 -1.76360228  1.91295189
  C -1.40824277  0.55473779 -0.91921707
  C -1.03992291  1.83541657 -0.49802394
  C -1.66432342  2.94894050 -1.02527677
  C -2.66485972  2.80441770 -1.97189848
  C -3.04976511  1.53749013 -2.38154205
  C -2.43241411  0.41863833 -1.85944107
  H -1.54880170 -4.84345247  0.63068860
  H -2.85451316 -3.71301141  1.06237143
  H -1.56433316 -4.06768459  2.23142829
  H -0.07652798 -2.88973898  0.52286205
  H  0.70299513  0.59504173 -2.32812774
  H  1.49971949  1.80393711 -1.31013632
  H  2.48048761  0.63876184 -2.18319845
  H  1.84258711 -1.51610458  1.61733779
  H  4.76204758 -1.67542006  1.23720759
  H  4.08672738 -1.11930639  2.77876671
  H  3.81437378 -2.79485015  2.24912615
  H -0.28782099  1.95304879  0.26757619
  H -1.37830501  3.93344154 -0.68591441
  H -3.15052888  3.67760814 -2.38234993
  H -3.83570493  1.42356454 -3.11327675
  H -2.73321929 -0.56806593 -2.17344815
