13
opt_min/./Reactant_507_0_opt.xyz
  C -2.68170993  0.01047986 -0.87745263
  N -1.40017539  0.44489437 -0.38013799
  C -0.38319660 -0.42014814 -0.17785540
  O -0.41621691 -1.61318669 -0.39073884
  C  0.81423010  0.19876511  0.33683465
  N  1.89339210  0.21413614  0.79990163
  N  2.91193664  0.62234150  1.32836013
  C  4.03620700  0.03086537  1.58154658
  N  5.07589454 -0.36301825  1.87660158
  H -3.47596904  0.28417452 -0.18159702
  H -2.89033384  0.45666900 -1.85191617
  H -2.64507794 -1.07330565 -0.98271200
  H -1.27675837  1.42273477 -0.16826180
