20
opt_min/./Reactant_2312_0_opt.xyz
  C  0.49249363  1.84740206 -2.90844085
  O  0.12801654  1.00969400 -1.81675577
  C  1.11280782  0.38089039 -1.15096611
  O  2.27559348  0.42863310 -1.43378372
  C  0.52708384 -0.44671881 -0.06159092
  O -0.66175620 -0.28856443  0.43361848
  C -1.52955609  0.68862707  0.40994133
  C -1.40044083  1.98506993 -0.12322073
  N -1.34715876  3.08075819 -0.46344795
  C -2.73743293  0.44998342  1.10214994
  N -3.72047449  0.27333478  1.66621828
  C  1.28300119 -1.63188036  0.43633705
  C  0.63758888 -2.41314603  1.55585157
  O  2.35319441 -1.93592561 -0.02442127
  H -0.12039195  1.56052854 -3.76085261
  H  0.28445962  2.87948925 -2.62660569
  H  1.55183472  1.71967037 -3.13240465
  H  0.46929507 -3.42832615  1.20283517
  H  1.34358757 -2.47433498  2.38127065
  H -0.29637920 -1.98719095  1.90341983
