27
opt_min/./Reactant_2090_1_opt.xyz
  C -3.06595453  1.49788632  0.45070129
  O -2.39668243  0.29821065  0.76715297
  C -1.45867455 -0.11848115 -0.19799700
  C -2.05918984 -0.33273273 -1.51392336
  N -2.54188620 -0.52265112 -2.53161895
  C -0.31578694  0.78660930 -0.33716641
  C  0.85576410  1.04242714 -0.27418155
  C  2.27217274  0.92068605  0.04882300
  C  3.06456631  0.67613293 -1.14086015
  N  3.70062143  0.43872916 -2.05813721
  C  2.74089202  2.11795162  0.72484413
  N  3.07214737  3.05049792  1.29313920
  C  2.30989459 -0.29363506  1.02528853
  C  1.84503460 -1.64092649  0.43736439
  C  0.53246751 -1.80182542 -0.35691103
  C -0.81136101 -1.44632105  0.31553764
  H -3.71955662  1.70264731  1.29615074
  H -3.66366959  1.39985026 -0.46246415
  H -2.35325046  2.32331362  0.32616366
  H  3.34445975 -0.44226839  1.35529009
  H  1.71556212 -0.03014283  1.90332022
  H  2.62680981 -1.97830740 -0.25073434
  H  1.82319417 -2.33077374  1.28524697
  H  0.49545177 -2.86628309 -0.60705582
  H  0.61559699 -1.27851737 -1.31054280
  H -1.52156962 -2.25337273  0.13407316
  H -0.70443403 -1.34716714  1.39585989
