32
opt_min/./Reactant_2865_0_opt.xyz
  C  4.85881149 -0.25283008 -0.51036049
  O  3.72378770 -0.87439019  0.08173051
  C  2.54373432 -0.40913946 -0.28676444
  O  2.36404039  0.47524795 -1.08015035
  C  1.38146270 -1.16974418  0.36473090
 Cl  1.93003950 -2.04282137  1.83026454
  C  0.29918739 -0.26393602  0.65251848
  C -0.76460114  0.28789225  0.59260853
  C -2.01930208  0.74900427  0.03518349
  C -2.02594023  2.28454865 -0.09132457
  F -3.19044382  2.74465146 -0.56480571
  F -1.80164196  2.90007449  1.06998465
  F -1.07967739  2.70525619 -0.93647190
  C -3.20711123  0.31503222  0.91543042
  F -4.38085330  0.50359048  0.30272150
  F -3.14861354 -0.98672471  1.22081739
  F -3.26030786  0.97297195  2.07406906
  C -2.07638054  0.08425926 -1.37404464
  C -1.56243196 -1.37220226 -1.39365236
  C -0.07605118 -1.55387521 -1.76141774
  C  0.79771424 -2.18424350 -0.65922105
  H  5.72726864 -0.65862634  0.00172807
  H  4.89992649 -0.48295915 -1.57690676
  H  4.80510113  0.82997322 -0.38581851
  H -1.45842974  0.68534912 -2.04390677
  H -3.10616116  0.12727161 -1.73444739
  H -2.21201513 -1.92402619 -2.07233858
  H -1.73499325 -1.81437954 -0.41209914
  H  0.35898233 -0.59435890 -2.04535362
  H -0.01137897 -2.20634686 -2.63279555
  H  1.63789258 -2.71125492 -1.12014491
  H  0.21285181 -2.91625727 -0.09854389
