23
opt_min/./Reactant_4386_0_opt.xyz
  C -3.25295700  1.77575200  0.11369100
  N -2.29852863  0.69897237  0.07217654
  C -2.66360873 -0.58755197  0.21751247
  O -3.81423452 -0.95330343  0.40054368
  C -1.57655524 -1.59442115  0.17773034
  N -0.29791886 -1.39464320  0.03411461
  C  0.60598005 -2.53544155  0.14917952
  N  0.17545255 -0.22357947 -0.30539372
  C  1.42544493  0.19164750  0.01341007
  O  2.18643287 -0.29210459  0.82565739
  O  1.68409389  1.31175095 -0.68660703
  C  2.92281940  1.95563027 -0.44019881
  H -2.99657209  2.48246813  0.90556252
  H -3.27238953  2.30355877 -0.84152103
  H -4.23649678  1.35016831  0.31184412
  H -1.31893363  0.91173865 -0.09427400
  H -1.91422066 -2.60760128  0.33435972
  H  1.39275222 -2.27325410  0.85950061
  H  0.06806363 -3.41580180  0.48877894
  H  1.06648078 -2.72793052 -0.82053759
  H  3.43552036  2.08195393 -1.39392500
  H  2.72583928  2.93224426  0.00544808
  H  3.52851635  1.35037347  0.23828511
