32
opt_min/./Reactant_1825_0_opt.xyz
  C -2.79917500  3.06073700  1.00814900
  O -2.15483919  1.83737927  0.71233352
  C -2.99461823  0.80266546  0.32417951
  O -4.18016664  0.97281368  0.19827103
  C -2.27393221 -0.44240127  0.20084989
  N -0.89003769 -0.43878370  0.30071257
  C -0.03972068  0.32997213 -0.32076420
  C -0.43595137  1.23197172 -1.42404127
  C  1.38355616  0.26985216  0.07017685
  C  1.92154617  1.23235799  0.91710077
  C  3.25721163  1.17331321  1.27220218
  C  4.06417094  0.15902389  0.78508101
  C  3.53231346 -0.80239512 -0.05892479
  C  2.19673197 -0.75065062 -0.41434866
  C -2.98118674 -1.69456423  0.10002551
  C -2.13931743 -2.96672303 -0.04007447
  O -4.19327299 -1.78554182  0.05699636
  H -3.02754722  3.11872179  2.07547922
  H -3.73175174  3.13959028  0.44517753
  H -2.11951021  3.86699135  0.73292292
  H -0.49294011 -1.09871556  0.96885238
  H -0.47901819  2.26477624 -1.07927391
  H  0.30865595  1.18062018 -2.21922560
  H -1.41514741  0.95500587 -1.80970060
  H  1.28185432  2.01635767  1.29322794
  H  3.66501489  1.92415456  1.93221905
  H  5.10564305  0.11905742  1.06392629
  H  4.16336653 -1.59194734 -0.43769000
  H  1.78139038 -1.49847171 -1.07412907
  H -2.16614603 -3.27563834 -1.08259537
  H -1.10451639 -2.86664977  0.27205507
  H -2.61590214 -3.75051907  0.54431734
