27
opt_min/./Reactant_5345_1_opt.xyz
  N  0.56273109  2.89975162  3.27373941
  C  0.14553523  2.28303875  2.39539056
  C -0.34919440  1.57224588  1.29914255
  N  0.32017633  0.51611632  0.92830227
  C  0.94601250 -0.41193730  0.57155570
  C  1.68114633 -1.50888496  0.14600364
  C  2.01672930 -2.52756844  1.05539117
  C  2.75458786 -3.60836913  0.62171424
  C  3.16144110 -3.69684399 -0.70136839
  C  2.83123940 -2.69594644 -1.60469913
  C  2.09708640 -1.60417384 -1.19243462
  C -1.56479725  1.96958906  0.60780109
  C -2.22907659  3.13723183  0.98588770
  C -3.41731376  3.48707487  0.37405717
  C -3.95498732  2.68601966 -0.62045406
  C -3.29458016  1.53157810 -1.00533910
  C -2.10712049  1.16734398 -0.40047085
  H  1.69298333 -2.44891414  2.08163219
  H  3.00492303 -4.39761757  1.31506414
  H  3.73829648 -4.55003920 -1.02564337
  H  3.16457296 -2.76811763 -2.62847207
  H  1.84295796 -0.82120259 -1.89018343
  H -1.81602978  3.76279595  1.76344955
  H -3.92807455  4.38863996  0.67793308
  H -4.88822516  2.96380768 -1.08804328
  H -3.70773627  0.89916187 -1.77930294
  H -1.60716736  0.25805707 -0.70176526
