39
opt_min/./Reactant_3215_1_opt.xyz
  C -3.92107492  2.86356209 -0.66161512
  N -2.84612039  2.05156383 -0.15388619
  C -1.54877234  2.45903177 -0.19661391
  O -1.23599533  3.57679503 -0.58646439
  C -0.57898667  1.45747149  0.27522526
  C -0.91083607  0.03704571  0.17148861
  C -1.51716814 -0.47846138 -0.97806758
  C -1.84198036 -1.81832797 -1.06390185
  C -1.57389593 -2.67028827 -0.00648548
  C -0.98701633 -2.16966649  1.14528310
  C -0.65391411 -0.83428766  1.23448995
  N  0.61269482  1.85692615  0.74978881
  C  0.74778194  3.21752159  1.24402873
  C  1.69914112  1.06700507  0.83134629
  C  2.78259942  1.42504468  1.63068064
  N  3.71742334  1.67103949  2.26194353
  C  1.88088732 -0.16339889  0.05793741
  C  2.48920531 -1.27423019  0.64156435
  C  2.69591275 -2.42466572 -0.09554157
  C  2.31118899 -2.47943581 -1.42399287
  C  1.73645025 -1.36837468 -2.02079424
  C  1.51972691 -0.21849549 -1.29018821
  H -4.69669296  2.98727879  0.09542271
  H -4.36479559  2.41803595 -1.55606839
  H -3.50134765  3.83501177 -0.91869776
  H -3.06406488  1.12297373  0.16961318
  H -1.71233035  0.17986792 -1.81224181
  H -2.29801184 -2.19905703 -1.96585320
  H -1.81908466 -3.71904910 -0.07586680
  H -0.78605180 -2.82686818  1.97801620
  H -0.20354449 -0.45109638  2.13932292
  H  1.59443290  3.27638959  1.92594684
  H  0.91344683  3.89915916  0.40890644
  H -0.16164100  3.52650857  1.75538273
  H  2.79318145 -1.23068870  1.67717679
  H  3.15697879 -3.28147754  0.37279059
  H  2.46679782 -3.38078673 -1.99765078
  H  1.45700775 -1.39911491 -3.06358208
  H  1.08991297  0.65173961 -1.76493355
