27
opt_min/./Reactant_1314_0_opt.xyz
  C  3.13173400  2.11726000  0.13525900
  N  1.96214426  1.27655234  0.19774436
  C  2.06740259 -0.05121799  0.32454120
  O  3.12660687 -0.65644304  0.37130664
  C  0.78373445 -0.79511570  0.38669351
  C -0.51222699 -0.54040224  0.12131743
  C -1.23850723  0.72541902 -0.04533499
  O -0.70740396  1.82610022  0.05856342
  N -2.54789307  0.60945797 -0.34284308
  C -3.39996963  1.76426764 -0.48925499
  C -1.17090427 -1.94475802  0.15961488
  C -0.64605623 -2.64959707 -1.09622154
  C  0.63137571 -2.87998312 -0.83849864
  C  0.84904705 -2.32058331  0.56580929
  O -0.40956836 -2.57388447  1.16895817
  H  3.91725104  1.68648309  0.75793002
  H  3.50831837  2.18032566 -0.88939237
  H  2.88026593  3.11450416  0.48678710
  H  1.03564627  1.70496416  0.18206107
  H -2.97014498 -0.29912925 -0.42476313
  H -4.13752696  1.58415141 -1.26887944
  H -2.77312677  2.61318627 -0.75981350
  H -3.91457470  1.99583832  0.44681666
  H -2.23428287 -2.02660017  0.36702248
  H -1.22065629 -2.82799226 -1.98201693
  H  1.39275384 -3.34970979 -1.42486059
  H  1.69057527 -2.68723932  1.14185088
