30
opt_min/./Reactant_4547_1_opt.xyz
  C -3.08594000  2.95202500 -1.45238400
  N -2.59631463  1.75530844 -0.81439926
  C -1.27742865  1.55731223 -0.61814853
  O -0.44144632  2.38951856 -0.95896756
  C -0.90889597  0.32103617  0.09533610
  N  0.38458525 -0.00662645  0.33108259
  C  1.51749819  0.14607077 -0.32362978
  C  1.67384506  0.71642071 -1.67764390
  C  2.65314300 -0.41916364  0.41920019
  O  2.51946265 -0.90235767  1.52895804
  O  3.81454778 -0.37069978 -0.23923338
  C  4.94038184 -0.91674575  0.43286473
  C -1.88391096 -0.55537035  0.70718832
  O -3.09652206 -0.47290525  0.61348784
  O -1.29310331 -1.56925390  1.39382080
  C -2.16109471 -2.49330101  2.03001554
  H -2.33381073  3.30446507 -2.15861696
  H -4.01213062  2.73021612 -1.97894776
  H -3.26966361  3.74554903 -0.72178853
  H -3.26910634  1.10570041 -0.43001765
  H  0.53222931 -0.55532035  1.19423944
  H  2.72385562  0.77107935 -1.94374325
  H  1.13988856  0.09640146 -2.40008541
  H  1.21687174  1.70910457 -1.71440467
  H  5.81954838 -0.52012085 -0.06883845
  H  4.92836604 -0.62927237  1.48577047
  H  4.92588700 -2.00671071  0.36125683
  H -1.59393511 -2.93658143  2.84576436
  H -3.04998578 -1.98180374  2.40335697
  H -2.46465100 -3.26658943  1.32056007
