32
opt_min/./Reactant_4613_1_opt.xyz
  C -0.74373200  2.92470700  0.04380600
  C  0.44184852  1.97981431  0.23553066
  O  1.52850707  2.44847669  0.57795375
  C  0.28187368  0.62198529 -0.14191489
  C  1.50611709 -0.21989862 -0.22886468
  C  1.99550795 -0.74416493  0.96480284
  C  3.14036771 -1.51917795  0.98137655
  C  3.81692999 -1.78364257 -0.19516082
  C  3.35404913 -1.24819384 -1.38398205
  C  2.21237144 -0.46604610 -1.39869491
  N -0.91855691  0.02964685 -0.46489923
  C -0.99143637 -0.71160150 -1.71716433
  C -1.99219405  0.11091364  0.29919709
  C -1.93696629  0.59697931  1.70328112
  C -3.33957579 -0.31770223 -0.19163771
  H -1.41232724  2.59867145 -0.75064381
  H -1.31197331  3.03454657  0.96443124
  H -0.33163594  3.90056178 -0.20805713
  H  1.47456470 -0.53262961  1.88649961
  H  3.50701265 -1.91744706  1.91793973
  H  4.71096614 -2.38892495 -0.18651007
  H  3.89154147 -1.42733989 -2.30444853
  H  1.90405535 -0.01432962 -2.33182980
  H -0.11819384 -0.46710137 -2.31531034
  H -1.00678091 -1.79006410 -1.53962217
  H -1.88515067 -0.42530969 -2.27096019
  H -2.59567616  1.45283067  1.85762037
  H -2.29304080 -0.19968428  2.36544565
  H -0.92671921  0.86937305  1.99541762
  H -3.31077248 -1.26498363 -0.72895242
  H -4.01130173 -0.42596332  0.65603144
  H -3.76764719  0.43504131 -0.86018638
