26
opt_min/./Reactant_4624_0_opt.xyz
  C  0.71601900  1.41228200  0.33446500
  O  1.02052065  2.54485557  0.65430508
  C -0.56689779  1.13148725 -0.35591293
  O -1.23225654  2.28027052 -0.59905464
  C -2.61646207  2.29154049 -0.87806555
  C -0.94146117 -0.14047578 -0.69271508
  O -2.09982347 -0.30674581 -1.40030594
  C -2.70964065 -1.57459162 -1.54527674
  C -0.06130132 -1.28096872 -0.37987318
  O -0.34796984 -2.43040552 -0.68135684
  C  1.21615850 -0.99423178  0.31557952
  C  2.06957891 -2.17907126  0.62631707
  C  1.59750133  0.26016302  0.62066685
  C  2.90072877  0.57007400  1.27865563
  H -2.90236447  3.34174568 -0.84703229
  H -2.83276650  1.87975503 -1.86488008
  H -3.18085409  1.73885371 -0.12390323
  H -3.67989734 -1.36172750 -1.99286447
  H -2.13431774 -2.22469857 -2.20697995
  H -2.85007702 -2.07672684 -0.58659532
  H  2.35947381 -2.18085255  1.67408741
  H  1.52777598 -3.09153269  0.39506244
  H  2.97983558 -2.15317522  0.02939384
  H  2.96061219  0.09160104  2.25504150
  H  2.99617006  1.64413094  1.40461570
  H  3.72890429  0.20016148  0.67830322
