21
opt_min/./Reactant_1972_0_opt.xyz
  C -4.80468592 -0.67718247 -0.09274730
  O -3.40815645 -0.42494514 -0.05862381
  C -2.95397121  0.53964747 -0.89818101
  O -3.64329467  1.17858245 -1.66362603
  C -1.57178955  0.71313320 -0.76187365
  N -0.40303616  0.87460953 -0.72230943
  C  0.85183308  1.10421063 -0.65267370
  C  1.50847750  2.13750624 -1.51149714
  C  1.65291202  0.33701054  0.30151938
  O  2.83921807  0.50344183  0.47013129
  O  0.89955254 -0.53937965  0.99482274
  C  1.57015649 -1.31660306  1.97816686
  H -5.15291659 -0.74793401  0.93675784
  H -5.31815082  0.13332267 -0.61538271
  H -4.98543235 -1.61998206 -0.61304614
  H  0.99309886  3.09390989 -1.44715854
  H  1.51660001  1.81697949 -2.55384839
  H  2.53471702  2.25170045 -1.17092181
  H  1.52641724 -0.80120600  2.93983460
  H  2.61102783 -1.46676051  1.68723942
  H  1.04136459 -2.26524651  2.04044895
