22
opt_min/./Reactant_2097_0_opt.xyz
  C  3.43672004 -1.32365799 -1.60282492
  N  2.43538056 -0.32902956 -1.30415558
  C  1.29815461 -0.63889844 -0.62806263
  O  1.08813025 -1.75244988 -0.19312934
  C  0.34417330  0.48858216 -0.46424303
  N  0.61860228  1.60007738 -1.00787425
  N  0.90607573  2.58696233 -1.48565717
  C -0.92925723  0.35418071  0.25923478
  C -1.11087591 -0.62578308  1.23200477
  C -2.31823355 -0.72223418  1.89898062
  C -3.35083563  0.15682201  1.62158072
  C -3.17291679  1.14018794  0.66276108
  C -1.97435645  1.24072177 -0.01574237
  H  4.42133274 -0.97125518 -1.29206323
  H  3.18314033 -2.22785421 -1.05280783
  H  3.45593459 -1.54875484 -2.67238834
  H  2.57201109  0.58484715 -1.70464066
  H -0.31503747 -1.31567642  1.45575662
  H -2.45176835 -1.48895482  2.64828786
  H -4.29102830  0.07812055  2.14744950
  H -3.97070622  1.83321570  0.43767485
  H -1.84920219  2.00456518 -0.77090406
