24
opt_min/./Reactant_5458_1_opt.xyz
  C  4.96510800 -0.62959900 -0.90335400
  O  3.63351162 -0.26154015 -0.54842219
  C  3.47885116  0.90087734  0.10901260
  O  4.36561484  1.63929207  0.45044906
  C  2.06533885  1.09006002  0.43339782
  O  1.58922197  2.11945200  1.11583780
  C  0.19809162  1.96433160  1.23067246
  O -0.50153853  2.75340354  1.80244938
  C -0.05510476  0.72465844  0.53270028
  C -1.29507254  0.03623735  0.30796856
  C -2.48866968  0.57608783  0.80513477
  C -3.67969882 -0.08632931  0.58879981
  C -3.70561267 -1.28005174 -0.11549165
  C -2.52587941 -1.81721677 -0.60904911
  C -1.32598749 -1.16908707 -0.40245400
  O  1.11281318  0.26233457  0.08589208
  H  5.05549882 -0.59547246 -1.98972078
  H  5.13305602 -1.64479984 -0.54509729
  H  5.67214056  0.06529549 -0.44708209
  H -2.45618282  1.50395771  1.35074186
  H -4.59870238  0.33142252  0.97286250
  H -4.64142123 -1.79249970 -0.28075854
  H -2.54457920 -2.74684758 -1.15776496
  H -0.40389119 -1.58130544 -0.78373282
