15
opt_min/./Reactant_3315_1_opt.xyz
  C -1.83166906  1.01281331 -0.77277226
  C -0.68935340  0.14683355 -0.36209491
  C -0.75876362 -1.33558909 -0.47085100
  O  0.34817742  0.76384724  0.05779803
  C  1.53647555  0.29567896  0.45088898
  C  2.46482261  1.25245884  0.88348900
  N  3.23402955  2.02525387  1.24875464
  C  1.97063043 -1.02949300  0.49290248
  N  2.38828770 -2.10301095  0.52321326
  H -1.80646405  1.17343508 -1.85232863
  H -1.75765782  1.98330494 -0.28745870
  H -2.78078506  0.55014918 -0.52159047
  H -0.09030512 -1.69610740 -1.25641116
  H -1.76862128 -1.65380920 -0.71260361
  H -0.44784208 -1.81187653  0.45789398
