30
opt_min/./Reactant_1491_1_opt.xyz
  C  2.55433600 -2.70929800  0.83689200
  N  1.77339211 -1.50533823  0.71855525
  C  2.24738397 -0.39263257  0.10558169
  O  3.34668345 -0.33944678 -0.41346488
  C  1.32484194  0.75166715  0.10232741
  C -0.00408116  0.89383939  0.20494758
  C -1.09964422 -0.05697740  0.27239587
  C -1.09638787 -1.19439133 -0.53792366
  C -2.14850324 -2.08865363 -0.49042891
  C -3.21396284 -1.86762401  0.36799219
  C -3.22630290 -0.74183535  1.17450474
  C -2.18207036  0.16263647  1.12426313
  C -0.22153002  2.42126091  0.11109328
  C  0.08122162  2.75606683 -1.35000807
  C  1.39126933  2.61038190 -1.46248326
  C  1.85474934  2.18778197 -0.06862143
  O  0.94487098  2.90148028  0.75497079
  H  1.99371284 -3.56482426  0.45645476
  H  3.45851852 -2.57125132  0.24631880
  H  2.83174882 -2.89893948  1.87680325
  H  0.87174799 -1.47746309  1.16600151
  H -0.27128314 -1.35475773 -1.21625610
  H -2.14034229 -2.96103954 -1.12713349
  H -4.03454622 -2.56862400  0.40570996
  H -4.05477093 -0.56568429  1.84509278
  H -2.18756816  1.03373880  1.76236888
  H -1.13075402  2.82528823  0.54038866
  H -0.66533206  3.01162831 -2.07405198
  H  2.04472766  2.71610497 -2.30300986
  H  2.89180902  2.35163019  0.19529939
