34
opt_min/./Reactant_4003_1_opt.xyz
  C  0.48665200  0.07750400  1.75495200
  C  1.08095980  0.60136360  0.48960638
  N  0.35408326  1.45478823 -0.25369056
  C -0.94180469  1.79474794 -0.20668877
  C -1.29492344  3.12501523 -0.80739963
  C -1.98674932  0.92479188  0.25491527
  C -1.89667313 -0.47037626  0.10018420
  C -2.93462064 -1.29442376  0.48051009
  C -4.09404740 -0.76390464  1.02422428
  C -4.21309190  0.61194897  1.15444606
  C -3.18563165  1.44573000  0.77025808
  C  2.43289534  0.30635462  0.11396984
  C  3.11320257  0.97624280 -0.92342815
  C  4.41671604  0.66985149 -1.24608900
  C  5.10056538 -0.32582270 -0.56633152
  C  4.44929481 -1.01288943  0.44601051
  C  3.14792441 -0.70850905  0.77973448
  H -0.02103927 -0.88311481  1.63687578
  H -0.25663100  0.78777542  2.11697079
  H  1.26158752 -0.03126564  2.50959613
  H  0.90375722  1.99467679 -0.91800941
  H -1.44965584  3.87911082 -0.03230743
  H -2.21158310  3.06001019 -1.39136451
  H -0.49367178  3.48116316 -1.45432304
  H -1.02770690 -0.89234631 -0.38280645
  H -2.84413190 -2.36304671  0.34368118
  H -4.90071060 -1.41296843  1.32960578
  H -5.12029419  1.03547723  1.56224847
  H -3.29138207  2.51339961  0.88913650
  H  2.62976613  1.76577481 -1.48473673
  H  4.90825632  1.21190940 -2.04179592
  H  6.11983067 -0.56661818 -0.82718828
  H  4.96434747 -1.80050784  0.97758706
  H  2.66390085 -1.27860895  1.55621783
