16
opt_min/./Reactant_2828_0_opt.xyz
  C  3.31950100 -0.34035200 -0.14825100
  O  2.02018781 -0.07830284  0.37154714
  C  0.99266889 -0.21491798 -0.46802076
  O  1.07138783 -0.54589740 -1.61445344
  C -0.29766409  0.07801047  0.26740321
  O -0.10042623  0.37819480  1.49118054
  O -1.03388919  0.67213532  2.32661954
  C -1.61501242 -0.00736262 -0.46184567
  C -2.83817311  0.27796144  0.35389187
  O -1.64722186 -0.28627850 -1.63339486
  H  3.57966186 -1.38601206  0.02512244
  H  3.35090631 -0.13607045 -1.21966275
  H  4.00828746  0.30734577  0.38959739
  H -3.71226394  0.17390268 -0.28410124
  H -2.90810864 -0.40294748  1.20078841
  H -2.79286193  1.28365449  0.76924425
