32
opt_min/./Reactant_2043_1_opt.xyz
  C  3.54707100  1.81794700  0.52191000
  N  2.49804281  0.93162216  0.08383939
  C  1.47437574  0.57614971  0.87940694
  O  1.28861780  1.00016655  2.00454805
  C  0.53986907 -0.38976717  0.20653031
  C  1.22283011 -1.54630956 -0.49148866
  C  1.28878741 -2.82923817  0.30101645
  O  1.95130599 -1.31227848 -1.43609028
  C -0.79382629 -0.28732026  0.14782541
  C -1.42060293 -1.42150609 -0.60416833
  O -0.68635061 -2.12851164 -1.29156621
  N -2.72656201 -1.60201614 -0.43710505
  C -3.46596267 -2.63586114 -1.11459696
  C -1.65670961  0.79643882  0.70490191
  O -2.78803718  0.56502585  1.11773622
  N -1.14194358  2.03263376  0.66527193
  C -1.83778979  3.17487368  1.20422550
  H  3.22770613  2.27896638  1.45583281
  H  4.47454112  1.26803916  0.69499904
  H  3.72589580  2.58706625 -0.22987777
  H  2.60714100  0.44346390 -0.80005145
  H  1.38336238 -3.66825188 -0.38168166
  H  0.42077062 -2.95964945  0.93890082
  H  2.18450691 -2.78208909  0.92173948
  H -3.18235783 -0.97519362  0.22639378
  H -2.77143733 -3.41784814 -1.42058535
  H -4.21818678 -3.04789181 -0.44467543
  H -3.95919005 -2.23875272 -2.00526754
  H -0.19841634  2.16924397  0.34297897
  H -2.70800944  2.81052883  1.74763296
  H -1.18474880  3.72178554  1.88320907
  H -2.16768304  3.83903249  0.40235273
