43
opt_min/./Reactant_2809_0_opt.xyz
  C -2.70319745  1.64703103  3.88373706
  O -2.35563357  0.66396408  2.91652183
  C -1.68001455  1.09561128  1.84886856
  O -1.37961058  2.24399797  1.66644276
  C -1.38175549 -0.05818733  0.88974924
  C -2.67659464 -0.45892528  0.16505566
  C -3.48563101  0.69148355 -0.36634322
  O -2.99762652 -1.60690584  0.02041141
  C -0.38793924  0.32625526 -0.09092880
  C  0.64438429  0.27176251 -0.70050658
  C  1.86803913 -0.30177503 -1.21097587
  C  3.04704760  0.59640986 -0.83901117
  O  3.72417486  1.19305203 -1.63069320
  O  3.21769252  0.64864606  0.47999583
  C  4.25999177  1.49577780  0.94588132
  C  1.85260687 -0.39643078 -2.74553877
  O  2.34165921 -1.29848123 -3.36792845
  O  1.26846559  0.67115321 -3.27069032
  C  1.26898560  0.79933594 -4.68678479
  C  1.92632444 -1.70195674 -0.55372406
  C  0.55105253 -2.40347642 -0.47869350
  C -0.23961504 -2.45345109  0.84480582
  C -0.68417958 -1.20951974  1.65192365
  H -3.44581310  1.18730278  4.53131849
  H -1.82067986  1.93292289  4.45936962
  H -3.10937731  2.53314664  3.39159201
  H -3.79595234  0.47482014 -1.38816320
  H -4.39371527  0.77876070  0.23142881
  H -2.93799649  1.62795657 -0.33840927
  H  4.38571624  1.27143729  2.00203421
  H  5.18138713  1.29843598  0.39341193
  H  3.98183245  2.54260859  0.80642889
  H  0.24855557  0.66685148 -5.04958835
  H  1.62306715  1.80203697 -4.92475424
  H  1.92624418  0.04860501 -5.12885742
  H  2.58915927 -2.31796783 -1.16333945
  H  2.36237696 -1.62516918  0.44185822
  H -0.08987466 -2.02734904 -1.27670202
  H  0.72757091 -3.45766444 -0.71357493
  H  0.33354954 -3.05177743  1.55926344
  H -1.15005680 -3.00177331  0.59540430
  H -1.37533182 -1.59491890  2.40807258
  H  0.17762322 -0.77734135  2.16583123
