32
opt_min/./Reactant_2794_0_opt.xyz
  C  3.63004411  0.61933683 -1.99763453
  O  4.01053112 -0.71752240 -1.72679022
  C  3.46109093 -1.51982101 -0.82812805
  O  3.95586397 -2.58869014 -0.60552105
  C  2.15973399 -1.15121823 -0.05750659
  F  2.48331218 -1.27255852  1.28308529
  C  1.47483132  0.09750331 -0.30258234
  C  0.53023934  0.78046626 -0.59400319
  C -0.84919263  1.08873955 -0.90541593
  C -0.93573548  1.38949132 -2.41301379
  F -2.16018655  1.72312869 -2.81657038
  F -0.10878805  2.37134201 -2.78343987
  F -0.57479987  0.31036039 -3.12636615
  C -1.35774448  2.29844893 -0.10427686
  F -2.61988280  2.61471697 -0.40851675
  F -1.33421962  2.05578876  1.21011836
  F -0.61440040  3.38871019 -0.30874109
  C -1.64867741 -0.20569125 -0.54937758
  C -1.09938683 -0.96397805  0.67650299
  C -0.18777194 -2.19330387  0.46529536
  C  1.06688731 -2.19231704 -0.42575041
  H  3.61989044  1.22870995 -1.09236682
  H  4.39367222  0.99482844 -2.67763451
  H  2.65728296  0.66699893 -2.49043076
  H -1.65563794 -0.86178911 -1.41983327
  H -2.68088001  0.09429226 -0.35294900
  H -1.96634981 -1.35823373  1.21062123
  H -0.61632004 -0.26185683  1.35366969
  H -0.81066364 -3.00493613  0.08200671
  H  0.13511673 -2.48014078  1.46857636
  H  0.80765932 -2.04862343 -1.47574858
  H  1.52381362 -3.17929443 -0.31570783
