28
opt_min/./Reactant_1624_1_opt.xyz
  C -1.97028300  3.05231000  0.95091400
  O -1.10323649  2.04847285  0.44281539
  C -1.21821419  0.83601751  1.01007424
  O -2.00473746  0.59815508  1.89452535
  C -0.31071606 -0.16816814  0.44048919
  C  0.81975824 -0.07548580 -0.28700453
  C  1.66810415  1.04577718 -0.72789759
  C  1.91606930  2.14222770  0.27563554
  O  2.18464966  1.03586682 -1.82250067
  C  1.15331932 -1.48374334 -0.74177528
  C  0.06182663 -1.84693367 -1.77618931
  C -1.20843361 -1.95571396 -0.91872037
  C -0.68880634 -1.63031635  0.50407524
  C  0.69041192 -2.28977863  0.47212568
  H -1.80219789  3.93726270  0.34271308
  H -3.00988134  2.72716147  0.87623682
  H -1.74036589  3.25570110  1.99904283
  H  1.08924598  2.84624027  0.22042965
  H  1.95925101  1.74212877  1.28508972
  H  2.83700323  2.66372409  0.03128333
  H  2.16818771 -1.61434244 -1.10320399
  H  0.30858799 -2.80053966 -2.24220860
  H -0.00617817 -1.09227778 -2.55697961
  H -1.98830960 -1.26065582 -1.22711577
  H -1.62516045 -2.96215478 -0.94314745
  H -1.37549172 -1.88878690  1.30340821
  H  0.65078363 -3.36202149  0.29275270
  H  1.27980049 -2.09160718  1.36690245
