22
opt_min/./Reactant_3530_1_opt.xyz
  C  3.90081000 -0.61932600  0.20184300
  N  2.46676269 -0.62029367  0.31481011
  C  1.73109620  0.51464211  0.23712173
  O  2.20508371  1.63872486  0.22632503
  N  0.39592591  0.15826277  0.18902436
  N -0.56709372  0.99733550  0.21948209
  C -0.35482640  2.42452273  0.45970852
  C -1.81333014  0.58258188  0.05542767
  C -2.18956719 -0.80105749 -0.15624141
  C -3.68821257 -0.99431649 -0.29801770
  O -1.41097921 -1.73019809 -0.22040211
  H  4.31386630 -1.44251362  0.78151771
  H  4.27204074  0.32773643  0.59186377
  H  4.22287936 -0.71343791 -0.84043968
  H  1.96196384 -1.48666184  0.21818864
  H  0.31854861  2.81985736 -0.30046438
  H  0.13615452  2.55500040  1.42349206
  H -1.30331408  2.95328851  0.44682830
  H -2.58953920  1.32794184  0.09619393
  H -4.05707647 -0.41524996 -1.14183051
  H -3.90646889 -2.04558225 -0.45826535
  H -4.19413301 -0.65351320  0.60253380
