32
opt_min/./Reactant_2740_1_opt.xyz
  C -0.02762200  2.15909100 -1.95983400
  C -1.23774603  1.46811068 -1.39250424
  O -2.36957641  1.77653855 -1.72236711
  C -0.99120698  0.41059316 -0.41202687
  N  0.20934971  0.03598607  0.01546760
  N  1.36189844  0.46997214 -0.35278556
  C  2.49001574 -0.02477544  0.25197026
  C  2.53098783 -0.74402611  1.45433033
  C  3.74040942 -1.16930289  1.96731750
  C  4.92603555 -0.89055528  1.30710580
  C  4.89713843 -0.16442055  0.12545381
  C  3.69843024  0.26929246 -0.39597156
  C -2.13307259 -0.28339519  0.20383004
  C -2.14690016 -0.54254686  1.57720351
  C -3.21580139 -1.19956684  2.15532694
  C -4.28710436 -1.60535014  1.37758696
  C -4.28660544 -1.34493136  0.01726198
  C -3.21996913 -0.68979404 -0.56801768
  H  0.56446087  2.59242205 -1.15664356
  H  0.60674427  1.43749755 -2.46996358
  H -0.34997436  2.93391370 -2.65100817
  H  0.16105764 -0.71838222  0.72161129
  H  1.62911710 -0.95495700  2.01590362
  H  3.75581153 -1.71963891  2.89728012
  H  5.86437026 -1.22987780  1.71780876
  H  5.81985814  0.06420229 -0.38798280
  H  3.65790932  0.83442040 -1.31356948
  H -1.33571485 -0.19389038  2.20301097
  H -3.21810695 -1.38621738  3.21996644
  H -5.12243094 -2.11574041  1.83378786
  H -5.12253908 -1.65836726 -0.59021938
  H -3.22209484 -0.48967935 -1.62724866
