35
opt_min/./Reactant_3058_0_opt.xyz
  C  0.77130590  2.26404570  1.54231437
  C  0.90420080  1.79827300  0.11848940
  O  1.43779083  2.45969802 -0.73236947
  C  0.28631742  0.43560905 -0.25039816
  C  1.37254223 -0.46142138 -0.84137470
  C  1.09300200 -1.43523130 -1.79118467
  C  2.09668850 -2.25933899 -2.26854765
  C  3.39203300 -2.13150375 -1.79905290
  C  3.67517682 -1.17657998 -0.83852597
  C  2.67151459 -0.35430653 -0.36034620
  C -0.37924847 -0.24940229  0.82890774
  C -1.26311642 -0.73716695  1.48510197
  C -2.63286687 -0.83372182  1.85771922
 Br -2.93275893 -0.08561587  3.68146672
 Br -3.31112019 -2.69462663  1.86652007
  C -3.40690393  0.00291415  0.82399873
  C -2.78052571  1.39229750  0.60533239
  C -2.01264995  1.64049576 -0.71256346
  C -0.89157651  0.71920970 -1.23006897
  H  0.11287912  3.13088332  1.56649352
  H  0.38846445  1.49255722  2.20321896
  H  1.74426282  2.59940660  1.89798124
  H  0.09221609 -1.56401350 -2.17248196
  H  1.86160539 -3.00771680 -3.01039645
  H  4.17383651 -2.77347542 -2.17468680
  H  4.67980999 -1.07156493 -0.45695682
  H  2.90884050  0.37970692  0.39725984
  H -3.42189895 -0.55819951 -0.11235543
  H -4.43642307  0.09848159  1.18038338
  H -3.59026272  2.12526940  0.60107619
  H -2.14524442  1.63566307  1.45690244
  H -2.75860144  1.67701535 -1.51096372
  H -1.60494001  2.65216605 -0.63077109
  H -0.46827612  1.20188648 -2.11206614
  H -1.33457517 -0.22898419 -1.53509817
