21
opt_min/./Reactant_4060_0_opt.xyz
  C  2.60795000  1.28585300  0.57981600
  N  1.19563704  1.16504761  0.43426927
  N  0.69126018  0.09801694 -0.04769004
  C  1.56693258 -0.96156732 -0.56957753
  C -0.64513997 -0.07890626 -0.04487009
  C -1.25571308 -1.14709653 -0.90642804
  C -1.44245495  0.71999620  0.85768927
  C -2.92207537  0.36997910  0.95482138
  O -0.98522301  1.59699765  1.57309636
  H  2.77623652  2.22546130  1.10072898
  H  3.12150114  1.33516856 -0.39206750
  H  3.05653199  0.47451262  1.16307807
  H  2.13310837 -1.38197627  0.26226669
  H  2.26586284 -0.53155307 -1.28622542
  H  0.99799541 -1.74727510 -1.04721555
  H -2.31694295 -0.95781511 -1.02299792
  H -0.81605981 -1.13397981 -1.90430681
  H -1.15066219 -2.15002770 -0.48573912
  H -3.42764902  0.61591643  0.02337685
  H -3.35450111  0.96642019  1.75335771
  H -3.06666312 -0.68421269  1.17767720
