15
opt_min/./Reactant_747_0_opt.xyz
  C  1.18334223  1.24731268  0.11493750
  C  0.93959994  0.16547858  1.12657256
  O  1.43979792  0.17267572  2.22829851
  C  0.13659559 -1.02032176  0.72682365
  C  0.35154836 -2.17318725  1.53027891
  N  0.53182990 -3.09958793  2.17993933
  O -0.69785345 -1.24042031 -0.24516830
  C -1.24451664 -0.54811664 -1.20640740
  C -1.31879974  0.84127248 -1.39502380
  N -1.50397624  1.96372639 -1.55780944
  C -1.98602734 -1.29174818 -2.15608287
  N -2.53986807 -1.87228450 -2.97523713
  H  0.34277663  1.93932561  0.08887282
  H  2.06732340  1.80244190  0.42039471
  H  1.33562349  0.84143178 -0.88457567
