28
opt_min/./Reactant_1144_0_opt.xyz
  C -0.45010400  4.04243600 -0.39188200
  N -0.29107738  2.60340352 -0.44077072
  C -1.13828504  1.81097806  0.26660307
  O -1.96071446  2.25091331  1.03918844
  C -0.95090704  0.34675744  0.04624379
  N  0.22515940 -0.24256318  0.09181147
  C  1.46110319  0.18957250  0.32675702
  C  2.45135881 -0.84799330  0.30937217
  O  2.15839292 -2.01605537  0.07959786
  O  3.70479830 -0.42529738  0.54911547
  C  4.71114679 -1.42471279  0.54549671
  C -2.16844712 -0.44660675 -0.25068350
  O -3.05810936 -0.01875979 -0.95756052
  N -2.17414918 -1.70184520  0.27288753
  C -3.28521920 -2.60087639  0.06246442
  H -1.47934137  4.32308306 -0.62661191
  H  0.23024269  4.50758779 -1.09919957
  H -0.22914442  4.39557023  0.61653581
  H  0.22495901  2.22100408 -1.21584134
  H  0.26171852 -1.26231539 -0.09368922
  H  1.68634443  1.20582820  0.58523492
  H  5.66218439 -0.89882685  0.52203400
  H  4.63821875 -2.03678210  1.44805184
  H  4.60380754 -2.07040586 -0.32882581
  H -1.50969767 -1.97452031  0.97876525
  H -3.98007157 -2.11245784 -0.61812199
  H -3.79376041 -2.81648528  1.00381858
  H -2.93718776 -3.53587339 -0.38122094
