20
opt_min/./Reactant_249_0_opt.xyz
  C  4.47027339  0.71111230 -1.74488224
  C -5.20696025  5.26652572 -7.34308949
  O -6.69602699 -41.63653052 -22.22564578
  N -13.35701813  15.06127153 -6.99405379
  N -10.16524702  8.68730768 -9.70155622
  C  20.42690488 -23.43533327 -11.69553382
  C  10.19562798  10.55044089 -1.95127205
  C  5.01059873 -1.15785160  2.44089968
  C  1.79692016 -4.52565938 -6.61699569
  C  1.29428734 -12.15470248 -11.77869380
  C  7.11920410 -12.07129928 -11.02058510
  C -1.71966614  8.16695440  8.12596244
  H  16.96250868  8.65901056 -26.17232846
  H -13.56478627  2.35146647  12.84403314
  H  17.25271486  1.94416159 -0.07141713
  H  15.04579552  2.06358147  8.56838138
  H -8.29729683  6.13189929 -5.89136309
  H -46.24818890  28.17358012  22.00186024
  H  8.28887357 -3.14836151  17.89774331
  H  8.56372822 -3.53538127  5.66130652
