27
opt_min/./Reactant_1560_1_opt.xyz
  F -0.57067200  2.11765700  1.24122700
  C -0.90258468  1.14841780  0.37203474
  C -0.12401347  0.19743487 -0.15640284
  C  1.28717505 -0.07827163  0.06410094
  C  2.04001580 -0.75491770 -0.89778222
  C  3.38232426 -1.00482847 -0.68406770
  C  3.99258927 -0.59014674  0.48769490
  C  3.25411649  0.08090770  1.44789335
  C  1.91209834  0.33648236  1.24050998
  C -1.07468091 -0.63211663 -1.00613170
  C -1.93951913 -1.41553827  0.01334700
  C -2.82997042 -0.31338760  0.61983113
  C -2.32266783  0.96513782 -0.08086348
  C -2.06247468  0.42952941 -1.49317040
  H  1.57677762 -1.06932101 -1.81960253
  H  3.95778612 -1.52478663 -1.43625413
  H  5.04167979 -0.78890906  0.65065250
  H  3.72585834  0.40483698  2.36445950
  H  1.33911703  0.85328852  1.99456551
  H -0.61219704 -1.25979137 -1.76317909
  H -2.52520000 -2.19587150 -0.46870701
  H -1.30339608 -1.88579529  0.76371749
  H -3.87846603 -0.46934490  0.36389854
  H -2.74923586 -0.25442215  1.70316484
  H -2.96018231  1.83988743  0.03248634
  H -2.94979138  0.01593268 -1.96964356
  H -1.60174118  1.16467404 -2.15085024
