10
opt_min/./Reactant_367_0_opt.xyz
  C  2.67213544 -0.48169342  1.57242146
  N -0.60240571 -18.23918274 -24.61881844
  N  35.04741770  20.24669673 -5.49139351
  C  0.72023493  2.36944064 -23.61410829
  C  2.14794584 -1.08305467 -2.14234090
  O -15.00917815 -50.29278622 -14.38906246
  H -4.45616341 -2.22589714  4.23736984
  H -3.71062917 -2.51694911  5.42103275
  H -5.49551682  0.75715804  3.15573871
  H -9.09621439  0.99095876  0.81312511
