32
opt_min/./Reactant_2035_0_opt.xyz
  C -0.60334100  4.09005800 -0.74575500
  O  0.06708565  2.84992078 -0.58513978
  C -0.72481481  1.79162691 -0.27277068
  O -1.92538093  1.90564480 -0.14428575
  C -0.01554657  0.52214500 -0.18221066
  C -0.87403120 -0.67008851 -0.30708390
  C -1.80844249 -0.77273739 -1.33539620
  C -2.64614014 -1.86948635 -1.41161297
  C -2.56369417 -2.87859240 -0.46695286
  C -1.63904959 -2.78537069  0.56110264
  C -0.79697419 -1.69452877  0.63929659
  N  1.30321657  0.39214096  0.00402707
  C  2.07684201  1.48126670  0.56704465
  C  1.94297493 -0.74764878 -0.29119811
  C  3.28619640 -1.11378196  0.03721162
  C  3.65844122 -2.49240393 -0.48049491
  O  4.09661565 -0.44338437  0.66935243
  H  0.13825129  4.78720752 -1.12667928
  H -1.43363842  3.98627618 -1.44668418
  H -0.99757062  4.43614885  0.21200676
  H -1.87516535  0.00922140 -2.07488121
  H -3.36667768 -1.93752789 -2.21273277
  H -3.21757265 -3.73601450 -0.52881009
  H -1.57759910 -3.56602354  1.30501250
  H -0.08580260 -1.61428072  1.44900631
  H  2.58841547  2.02467325 -0.22706911
  H  2.84339727  1.06534464  1.22090183
  H  1.44097475  2.16397495  1.11918919
  H  1.35593117 -1.48805425 -0.81174006
  H  2.97111051 -3.24219097 -0.09687881
  H  4.66958705 -2.73355205 -0.16795130
  H  3.60690062 -2.50456627 -1.56685046
