31
opt_min/./Reactant_1487_1_opt.xyz
  C  3.39865188  0.38170865  0.90841469
  C  3.20377895  0.74054766 -0.54185151
  O  4.03239187  1.33604613 -1.18251189
  C  1.86950253  0.33487807 -1.14736867
  C  0.76726488  0.98561131 -0.46571507
  C -0.30525313  1.12181469  0.05426832
  C -1.66455613  0.82726261  0.46383748
  C -2.63536187  1.96899083  0.16263716
  C -1.70727839  0.44338347  1.95334178
  C -2.02664284 -0.39659798 -0.42888222
  C -1.03955352 -1.57802972 -0.47790660
  C  0.12648931 -1.55172189 -1.49546273
  C  1.53649371 -1.16770273 -1.00674576
  H  3.69690006 -0.66331656  0.97785533
  H  2.47404693  0.51883616  1.46344903
  H  4.18966919  0.99348627  1.33451213
  H  1.87587847  0.61307328 -2.20628400
  H -2.49452735  2.78714079  0.86584347
  H -2.46836090  2.35124101 -0.84259508
  H -3.66390225  1.62160797  0.23307320
  H -0.73413269  0.09156072  2.28858212
  H -2.43340370 -0.34696952  2.12740789
  H -1.98508435  1.29981982  2.56305315
  H -2.98074521 -0.77702284 -0.05279997
  H -2.19135765 -0.04881978 -1.45127861
  H -0.66374686 -1.80999321  0.51881461
  H -1.66015716 -2.42776350 -0.78121603
  H -0.15599002 -0.93918713 -2.35286409
  H  0.22123746 -2.57777752 -1.86216822
  H  1.63843555 -1.46738238  0.03669419
  H  2.27276183 -1.72409026 -1.59291528
