23
opt_min/./Reactant_4902_0_opt.xyz
  C  3.39428599  2.02384905  0.69863289
  C  2.00040465  2.49926107  0.36883379
  O  1.73064347  3.67684218  0.19705802
  C  0.96263320  1.49930870  0.27507938
  O  1.24843037  0.23832096  0.41107623
  C  0.45120668 -0.79502417  0.34210242
  C  1.09858389 -2.04437146  0.36149312
  N  1.60235588 -3.07730367  0.32071759
  C -1.00531600 -0.78383352  0.23189859
  C -1.63615330 -1.75963101 -0.54460845
  C -3.01320786 -1.79007587 -0.64373395
  C -3.78354931 -0.85992157  0.03691335
  C -3.16731935  0.09412510  0.83064899
  C -1.79073256  0.13653312  0.93211644
  H  3.63939668  2.33846774  1.71218580
  H  3.48647708  0.94481880  0.62399268
  H  4.10239971  2.50566618  0.02772667
  H -0.04499528  1.82172961  0.04349899
  H -1.03674064 -2.48362736 -1.07659358
  H -3.48742429 -2.54404413 -1.25339686
  H -4.85931047 -0.88601034 -0.04557394
  H -3.76524614  0.80685018  1.37860632
  H -1.33121807  0.86180262  1.58827361
