20
opt_min/./Reactant_5677_1_opt.xyz
  C  1.94312309  1.77772597 -3.94820197
  O  1.29398861  0.97480235 -2.96784337
  C  2.06963002  0.27672783 -2.13020047
  O  3.26479917  0.31843612 -2.07525127
  N  1.29195340 -0.59590917 -1.38401797
  N  0.60707108 -0.23806997 -0.38459609
  C -0.14391523 -0.99678811  0.39803230
  C -0.31007415 -2.37811116  0.22966358
  N -0.46789686 -3.50864672  0.12097218
  C -0.80120923 -0.24810553  1.48367559
  O -0.64712530  0.94985242  1.59943173
  O -1.54830662 -1.00793521  2.26962042
  C -2.21372059 -0.34958067  3.33920173
  H  1.77811284  1.32716656 -4.92735082
  H  3.01212473  1.82773228 -3.73452130
  H  1.49547834  2.76983986 -3.90859053
  H  0.57382962  0.75559467 -0.06316123
  H -2.84371150  0.45559445  2.95551052
  H -1.48418549  0.07032740  4.03541834
  H -2.81606761 -1.10882740  3.83032892
