26
opt_min/./Reactant_5194_1_opt.xyz
  C -0.20518994  3.40818996  1.03102717
  N -0.11360553  2.26963472  0.76573126
  C  0.01982166  1.01472543  0.48961757
  C  1.20046269  0.63725019 -0.27772964
  C  1.73971670  1.50713846 -1.23092177
  C  2.87589677  1.16163407 -1.93730116
  C  3.50040890 -0.05293196 -1.70728949
  C  2.98479075 -0.91375640 -0.75413518
  C  1.85479043 -0.57485015 -0.04010441
  C -1.00601669  0.08607162  0.93055166
  C -1.88263646  0.43002326  1.96401093
  C -2.86470421 -0.44693871  2.37901832
  C -3.00113988 -1.68536224  1.77442493
  C -2.15139417 -2.02781861  0.73513441
  C -1.17044647 -1.15471608  0.31143824
  H -0.22728100  4.40041175  1.36204189
  H  1.25046946  2.45125221 -1.42800678
  H  3.26885398  1.84664990 -2.67491493
  H  4.38729284 -0.32324762 -2.26421143
  H  3.47590904 -1.85876700 -0.55605847
  H  1.47293805 -1.23759117  0.72614566
  H -1.78167837  1.39238478  2.45037160
  H -3.53187461 -0.16785128  3.18446884
  H -3.76722033 -2.37497255  2.10375741
  H -2.25594127 -2.98498397  0.23933912
  H -0.53175394 -1.41686616 -0.52241500
