19
opt_min/./Reactant_4144_1_opt.xyz
  N  4.60874300 -2.33388200  1.83725700
  C  3.80801360 -1.55781422  1.55957085
  C  2.84379847 -0.61492054  1.22653119
  O  1.64555137 -0.97622307  0.68052975
  C  0.94967751  0.09733323  0.47446658
  C -0.36790602  0.10308812 -0.09105692
  C -0.98229363 -1.10133607 -0.45914494
  C -2.24990720 -1.07607004 -1.00151619
  C -2.91302301  0.12922291 -1.18215407
  C -2.30651313  1.32335412 -0.81833731
  C -1.03866163  1.31800912 -0.27414362
  O  1.58151552  1.18697238  0.84015100
  C  2.87362813  0.80431143  1.36208368
  O  3.64816555  1.61876921  1.76516008
  H -0.45904904 -2.03310206 -0.31493695
  H -2.72956423 -1.99987697 -1.28746028
  H -3.90499330  0.14026692 -1.60734033
  H -2.82394017  2.25941685 -0.95967006
  H -0.55008450  2.23502734  0.01504382
