19
opt_min/./Reactant_4557_0_opt.xyz
  C  2.35513219 -1.95774869  0.10040199
  N  1.09194747 -1.27294779  0.02404970
  C  0.99835789  0.03632297 -0.22334522
  O  1.91672527  0.78456407 -0.49294165
  C -0.42358587  0.56059444 -0.14515067
  N -0.55955981  1.78331227 -0.51278179
  C -0.37491862  2.88177413 -0.90487170
  C -0.35100831  4.12908896 -1.38403054
  N -0.33818499  5.21337038 -1.78657080
  C -1.55924971 -0.19227733  0.34453691
  C -2.84714371  0.58757616  0.46837603
  O -1.50950544 -1.37966312  0.63096870
  H  2.50351730 -2.37515204  1.09774545
  H  3.14610249 -1.24035003 -0.11427912
  H  2.39093576 -2.76655295 -0.63191764
  H  0.22658223 -1.75958435  0.24915566
  H -3.54364986  0.03182085  1.09125018
  H -3.28900665  0.70552449 -0.52056252
  H -2.67488642  1.57343284  0.89263721
