24
opt_min/./Reactant_2866_1_opt.xyz
  C -4.26031500  0.15169300 -0.38597600
  O -2.84990577 -0.01936827 -0.39571563
  C -2.41077585 -1.12932693 -0.94246283
  O -3.14022647 -1.96583454 -1.40895767
  C -0.90555798 -1.33309054 -0.97089896
 Br -0.67904328 -3.00749359 -1.78013823
  C  0.14378752 -0.57279343 -0.54535983
  C -0.02552097  0.77927307  0.09747358
  O -1.06897234  1.34639253  0.28641320
  O  1.12715143  1.32896131  0.48130141
  C  1.01756521  2.59940268  1.10366733
  C  1.54278390 -1.11910377 -0.73089996
  O  1.77256382 -2.18990404 -1.23338138
  O  2.51844472 -0.32949324 -0.30372174
  C  3.84283472 -0.81619399 -0.48242973
  H -4.73383213 -0.62005380  0.22453040
  H -4.65951814  0.08593505 -1.40002342
  H -4.43098878  1.13661731  0.03951469
  H  0.56552755  3.32274102  0.42163990
  H  2.03228742  2.89434938  1.35622361
  H  0.39697141  2.53387749  1.99946403
  H  3.93882579 -1.32222564 -1.44421481
  H  4.49231351  0.05416965 -0.43308394
  H  4.09088723 -1.51703809  0.31674156
