23
opt_min/./Reactant_4837_0_opt.xyz
  C  3.95875700 -0.91047100 -0.37546700
  C  3.82705079  0.52251421  0.10487508
  O  4.77691191  1.23387093  0.33948403
  C  2.45351673  0.95676629  0.26182437
  O  1.41406909  0.11089192 -0.01570478
  C  0.29834829  0.73573193  0.19638979
  C -0.99300679  0.13608890 -0.00120387
  C -1.09315307 -1.18491949 -0.45144837
  C -2.33887038 -1.74999055 -0.63698878
  C -3.48333003 -1.00961936 -0.37763519
  C -3.38705513  0.29963553  0.06819345
  C -2.14936134  0.88070076  0.25913629
  O  0.47235050  1.96118984  0.60566780
  C  1.91399315  2.20575464  0.68286169
  O  2.32178097  3.26686907  1.03445308
  H  4.98416488 -1.23767875 -0.22388504
  H  3.26792353 -1.56878163  0.14015661
  H  3.73846134 -0.93325032 -1.44203855
  H -0.19586851 -1.74935453 -0.65042773
  H -2.41917820 -2.76833592 -0.98414992
  H -4.45573702 -1.45602984 -0.52419096
  H -4.28036407  0.87097907  0.26812571
  H -2.05616781  1.89726711  0.60530396
