26
opt_min/./Reactant_2326_0_opt.xyz
  C -1.30628206  3.12774147  0.41354886
  N -1.56218887  1.71782028  0.27523711
  C -0.58594842  0.80818593  0.33688839
  O  0.61059731  1.07891438  0.44607209
  C -1.02872944 -0.60488008  0.37042340
  O -0.09687343 -1.54296895  0.48914299
  C  1.13075455 -1.40967888  0.07866936
  C  2.07948160 -2.33688963  0.52740794
  N  2.87963728 -3.07314723  0.90053315
  C  1.52391396 -0.45301485 -1.00781999
  O  0.77309652 -0.19319756 -1.91674955
  O  2.79760750 -0.10864166 -0.91968518
  C  3.27305676  0.77561775 -1.92705120
  C -2.39400851 -1.03581891  0.59793347
  C -2.59647993 -2.52607613  0.67066389
  O -3.32927776 -0.24984178  0.67889950
  H -1.66425389  3.49568466  1.37718419
  H -0.23199057  3.29065296  0.34342489
  H -1.81398970  3.66984261 -0.38475737
  H -2.52049118  1.37310919  0.31838503
  H  4.25117194  1.11282146 -1.59554086
  H  2.58893067  1.61844592 -2.03814023
  H  3.35096434  0.25109044 -2.88200796
  H -3.63550825 -2.73619266  0.90738188
  H -1.94636812 -2.95966024  1.42772110
  H -2.34862568 -2.97829223 -0.28790970
