22
opt_min/./Reactant_489_1_opt.xyz
  C  4.03189000 -0.44980700 -0.09990700
  N  2.62836005 -0.57090172 -0.39175036
  C  1.68910809  0.16217631  0.24505018
  O  1.94375561  0.99715962  1.10708803
  C  0.33299916 -0.13530180 -0.19196883
  O  0.07532141 -1.07319153 -1.12058775
  C -1.32638153 -1.15992710 -1.29001162
  O -1.82375423 -1.93047755 -2.07494220
  C -1.85613884 -0.20292082 -0.38894483
  C -3.27848296  0.13208412 -0.14543494
  N -0.81726295  0.38250796  0.25046145
  C -0.95643080  1.41702089  1.23883841
  H  4.58232184 -0.14688253 -0.99267035
  H  4.14648116  0.31029836  0.67021660
  H  4.43287911 -1.39802117  0.26310654
  H  2.32373707 -1.24533703 -1.07621012
  H -3.46747284  1.19077157 -0.32674799
  H -3.57379186 -0.09429786  0.88025323
  H -3.88512097 -0.46290023 -0.82137023
  H  0.03472933  1.67512833  1.60936587
  H -1.42448937  2.29413040  0.79112948
  H -1.58837386  1.05979542  2.05139192
