30
opt_min/./Reactant_2095_1_opt.xyz
  C -1.69046148 -1.72333823  0.38447722
  C -1.43183798 -0.21317229  0.37263724
  C -2.44523966  0.52469134  1.24821633
  C -0.06253423  0.06160266  0.75423661
  C  1.08759447  0.38155157  0.65568778
  C  2.35933934  0.71026124  0.03824838
  C  2.57766935  2.14588835  0.15073257
  N  2.71021144  3.27590038  0.24002929
  C  3.53633553 -0.02590085  0.68448386
  F  3.62930986  0.20832858  1.99670276
  F  3.43438786 -1.35526883  0.53831626
  F  4.71170170  0.32430178  0.14105197
  C  2.21189332  0.30690962 -1.45285700
  C  0.92592860  0.78670759 -2.15033893
  C -0.37089158 -0.05488627 -2.05572094
  C -1.48083889  0.35960181 -1.06923103
  H -0.82574242 -2.26665253  0.01066880
  H -1.89219904 -2.06579860  1.39656978
  H -2.54858897 -1.96319427 -0.23888564
  H -2.55270777  0.02993337  2.21053078
  H -2.12159523  1.54882608  1.42233775
  H -3.41625906  0.54623047  0.75855556
  H  2.27832662 -0.78102404 -1.52382333
  H  3.06541585  0.73465534 -1.98745737
  H  0.71880661  1.82611144 -1.88858478
  H  1.19315712  0.77687641 -3.21125850
  H -0.12371097 -1.11053649 -1.94315685
  H -0.83719680  0.05316190 -3.03949651
  H -2.43472418  0.03973597 -1.49619539
  H -1.49470745  1.45005312 -1.01070996
