25
opt_min/./Reactant_5652_1_opt.xyz
  C  2.66955900 -1.71023000  2.72086900
  C  1.52955481 -1.74607617  1.71951796
  O  1.25750239 -2.77316141  1.10810953
  C  0.86134936 -0.49061812  1.57131218
  N -0.15289710 -0.23066687  0.74641411
  C -0.71838007 -1.32339091 -0.03355650
  N -0.65334662  0.94383276  0.74811146
  C -1.53328884  1.41025952 -0.20012194
  C -2.60862714  2.19485595  0.22601250
  C -3.44817977  2.78196757 -0.69801414
  C -3.22393570  2.61904791 -2.05614436
  C -2.14470539  1.86483190 -2.48681499
  C -1.30597629  1.25819385 -1.57337557
  H  2.39581279 -1.14537794  3.60736582
  H  3.53333703 -1.23457596  2.25977329
  H  2.93913534 -2.72628871  2.99573181
  H  1.20303710  0.35961321  2.14004569
  H -0.90472024 -2.17120556  0.62405556
  H -0.00163231 -1.65430670 -0.78492129
  H -1.64343115 -0.99786414 -0.50586080
  H -2.77220963  2.31671077  1.28536845
  H -4.28361939  3.37441819 -0.35433208
  H -3.87982231  3.08539469 -2.77540598
  H -1.95487063  1.75039659 -3.54420110
  H -0.44647927  0.69683643 -1.91238981
