37
opt_min/./Reactant_2497_0_opt.xyz
  C -0.94032200 -3.84846100 -0.65377400
  N -0.69768247 -2.46245684 -0.33397518
  C -1.29474293 -1.46846132 -1.02424736
  O -2.14649196 -1.72557166 -1.86573386
  C -0.94416722 -0.07127414 -0.60326082
  C -1.96836388  0.99590774 -0.89479346
  O -1.67198129  2.18077469 -0.93430652
  N -3.22391267  0.56514690 -1.10887926
  C -4.28868745  1.46795042 -1.46462081
  C  0.28164595  0.22450267 -0.11249599
  C  0.76028819  1.49238340  0.55978363
  O  1.94577791  1.76795546  0.56363653
  N -0.14780743  2.18518363  1.27304344
  C  0.23226873  3.33481001  2.05670075
  C  1.41973066 -0.71577121 -0.22866212
  C  2.14517503 -1.11806594  0.89111169
  C  3.24495689 -1.94335459  0.74748272
  C  3.64200742 -2.36051016 -0.51216245
  C  2.93497948 -1.94924000 -1.63020104
  C  1.82828593 -1.13279526 -1.49304213
  H -0.28826329 -4.17763457 -1.46704786
  H -0.75807284 -4.46050043  0.22566118
  H -1.97487480 -3.95806933 -0.97716613
  H -0.01011043 -2.25036533  0.36994095
  H -3.36801211 -0.42625863 -1.24878537
  H -3.86787293  2.46730986 -1.56910968
  H -4.74553637  1.16595499 -2.40723280
  H -5.05243083  1.47378850 -0.68367143
  H -1.12645634  2.04284384  1.08941732
  H  1.21558020  3.66499741  1.72344730
  H  0.28313149  3.06889073  3.11603484
  H -0.48832917  4.13874387  1.92197829
  H  1.83897784 -0.78090095  1.87108619
  H  3.79821293 -2.25223653  1.62187135
  H  4.50674801 -2.99755143 -0.62198974
  H  3.25066254 -2.26095167 -2.61477509
  H  1.27837821 -0.80048219 -2.36106007
