22
opt_min/./Reactant_1635_0_opt.xyz
  C  4.69082976  0.70938317 -0.80241447
  N  3.48482699  0.04889152 -0.36238564
  C  2.28121487  0.68065416 -0.43945672
  O  2.12992283  1.83117954 -0.81131438
  C  1.17322630 -0.08984005 -0.01511658
  N  0.15855247 -0.60614718  0.29472877
  C -0.96200366 -1.15175114  0.59722330
  C -1.01556467 -2.55698812  1.11534660
  C -2.19123929 -0.39153411  0.45225540
  O -3.29171046 -0.83549239  0.70048205
  O -1.96431147  0.84855841 -0.03115421
  C -3.09428748  1.68076209 -0.23633960
  H  4.60979023  1.76972665 -0.56492827
  H  4.82333901  0.60901512 -1.88360939
  H  5.54903704  0.27945972 -0.29192326
  H  3.53584557 -0.91062388 -0.06554083
  H -2.05674842 -2.79695968  1.31500118
  H -0.62579593 -3.26451053  0.38284026
  H -0.44230388 -2.66180298  2.03627672
  H -3.09862968  2.46606182  0.52160960
  H -4.00924203  1.08979877 -0.16015865
  H -3.00084466  2.12172412 -1.22773185
