17
opt_min/./Reactant_4214_1_opt.xyz
  C  1.97279645  2.35932130 -0.83452840
  N  1.74042619  1.40472324 -0.16587288
  C  1.46998253  0.21979599  0.26436944
  C  2.55491116 -0.60541082  0.60897416
  N  3.44188579 -1.27936575  0.89347608
  C  0.09920369 -0.24102607  0.45669105
  C -0.14481067 -1.51884846  0.96577207
  C -1.44024897 -1.95597044  1.15617866
  C -2.50815969 -1.12641872  0.84803572
  C -2.27242456  0.14199265  0.34138815
  C -0.98070145  0.58799674  0.14583280
  H  2.14722442  3.38251640 -0.57822158
  H  0.68624099 -2.16611664  1.20777507
  H -1.61591948 -2.94639026  1.55134709
  H -3.51987892 -1.47020713  0.99856494
  H -3.09967270  0.79504532  0.10028852
  H -0.80680074  1.57906998 -0.25071546
