17
opt_min/./Reactant_271_0_opt.xyz
  C  1.68747100  1.65410600  0.43252000
  C  0.24501943  1.15220268  0.39012044
  O -0.65344037  1.89735284  0.72089252
  C  0.02842097 -0.22461688 -0.05826145
  N  1.11211202 -0.96925316 -0.31961204
  N  1.13678983 -2.16277131 -0.73310041
  C -1.30546076 -0.84666369 -0.21869243
  C -2.50316186 -0.01139154  0.13902198
  O -1.41924759 -1.98189248 -0.62586330
  H  2.27638219  1.11164757  1.17148797
  H  2.17205144  1.59012468 -0.53854548
  H  1.65987090  2.69808248  0.72918202
  H  1.99782869 -0.47795885 -0.11692487
  H  2.08343329 -2.53102118 -0.80371117
  H -3.39322535 -0.62056014  0.00952786
  H -2.44337709  0.35156351  1.16016794
  H -2.55804191  0.86112157 -0.50617549
