29
opt_min/./Reactant_5556_0_opt.xyz
  C -2.69226000 -3.35046800 -1.20731700
  N -2.01266375 -2.11713867 -0.88564806
  C -2.67144941 -0.93727742 -0.97925417
  O -3.82711371 -0.84832914 -1.33794559
  C -1.84970739  0.24927106 -0.60721100
  O -0.61410364  0.25116633 -0.20155898
  N  0.13199882 -0.83542688 -0.05884484
  C  1.39538722 -0.60025237  0.41599536
  C  2.21473703 -1.73069189  0.54573725
  C  3.49942084 -1.60023224  1.02694077
  C  3.98984461 -0.35193745  1.38014632
  C  3.18570326  0.77190983  1.25077751
  C  1.89819894  0.65897141  0.77382200
  C -2.42583709  1.61439537 -0.67371581
  O -3.52330590  1.90292753 -1.06203538
  O -1.50796791  2.52231016 -0.26702569
  C -1.90437718  3.88680868 -0.29724278
  H -1.95825585 -4.12188298 -1.42742310
  H -3.33546545 -3.18930224 -2.07331762
  H -3.32615163 -3.67607104 -0.37730161
  H -1.05071799 -2.15537100 -0.56330279
  H  1.81989888 -2.69437222  0.26529231
  H  4.12528899 -2.47383900  1.12892286
  H  4.99837385 -0.25409041  1.75530457
  H  3.56992412  1.74333572  1.52619274
  H  1.26937986  1.53092183  0.67310836
  H -2.73254924  4.01926441 -0.99590220
  H -2.21805878  4.19536309  0.70204553
  H -1.03716315  4.46617764 -0.61165005
