16
opt_min/./Reactant_3672_1_opt.xyz
  C -2.33354000  0.37905000 -0.52447700
  C -0.99606048  0.99616589 -0.32893822
  N  0.14033327  0.34289490 -0.21994265
  C  0.08554438 -1.12813095 -0.26494533
  N  1.24626071  0.99148994 -0.04826395
  C  2.45156875  0.25839218  0.17150446
  H -3.08397054  1.16196737 -0.43720942
  H -2.44320703 -0.07863555 -1.51519684
  H -2.56055359 -0.38545872  0.22321557
  H -0.89752203  2.06844685 -0.31114158
  H  1.01630432 -1.51010976 -0.68189965
  H -0.74321660 -1.43588331 -0.89585818
  H -0.05233716 -1.52745352  0.74072726
  H  2.81569621 -0.23050287 -0.74668739
  H  3.20322479  0.98870173  0.47273770
  H  2.37911073 -0.50352863  0.95932795
