43
opt_min/./Reactant_3083_0_opt.xyz
  C -2.70319745  1.64703103  3.88373706
  O -2.35563360  0.66396409  2.91652181
  C -1.68001457  1.09561131  1.84886855
  O -1.37961059  2.24399800  1.66644276
  C -1.38175552 -0.05818730  0.88974920
  C -2.67659467 -0.45892525  0.16505562
  C -3.48563104  0.69148360 -0.36634323
  O -2.99762655 -1.60690581  0.02041137
  C -0.38793925  0.32625526 -0.09092879
  C  0.64438431  0.27176251 -0.70050655
  C  1.86803916 -0.30177501 -1.21097583
  C  3.04704764  0.59640986 -0.83901115
  O  3.72417490  1.19305204 -1.63069320
  O  3.21769257  0.64864608  0.47999585
  C  4.25999183  1.49577781  0.94588133
  C  1.85260689 -0.39643076 -2.74553874
  O  2.34165921 -1.29848123 -3.36792841
  O  1.26846556  0.67115320 -3.27069027
  C  1.26898550  0.79933591 -4.68678475
  C  1.92632447 -1.70195672 -0.55372402
  C  0.55105256 -2.40347642 -0.47869348
  C -0.23961507 -2.45345107  0.84480580
  C -0.68417963 -1.20951973  1.65192363
  H -3.44581311  1.18730278  4.53131848
  H -1.82067985  1.93292287  4.45936962
  H -3.10937729  2.53314665  3.39159203
  H -3.79595235  0.47482022 -1.38816322
  H -4.39371531  0.77876072  0.23142878
  H -2.93799653  1.62795662 -0.33840924
  H  4.38571630  1.27143730  2.00203422
  H  5.18138718  1.29843598  0.39341193
  H  3.98183251  2.54260860  0.80642889
  H  0.24855546  0.66685142 -5.04958826
  H  1.62306702  1.80203695 -4.92475423
  H  1.92624407  0.04860500 -5.12885739
  H  2.58915932 -2.31796781 -1.16333940
  H  2.36237696 -1.62516915  0.44185828
  H -0.08987459 -2.02734907 -1.27670203
  H  0.72757097 -3.45766443 -0.71357488
  H  0.33354949 -3.05177741  1.55926345
  H -1.15005681 -3.00177330  0.59540425
  H -1.37533191 -1.59491890  2.40807254
  H  0.17762315 -0.77734134  2.16583125
