22
opt_min/./Reactant_1515_0_opt.xyz
  C -0.40508896  3.10254700  0.59142900
  O -0.18123820  1.73558452  0.28061061
  C  0.14566080  1.47871077 -0.98627389
  O  0.25212304  2.32316808 -1.84067948
  C  0.35184577  0.03475202 -1.25549684
  C  0.65423192 -0.29440989 -2.58827276
  N  0.90002577 -0.56302546 -3.67689009
  N  0.26058153 -0.92474668 -0.34307647
  C  0.41477636 -2.31102337 -0.78133276
  N  0.15093731 -0.65901500  0.90187297
  C -0.43557560 -1.43355781  1.85677035
  C -0.01092020 -1.01963320  3.23646756
  O -1.27966017 -2.27870478  1.62097829
  H  0.49834473  3.68637341  0.40188518
  H -0.66692242  3.13130721  1.64617744
  H -1.21592564  3.50272097 -0.02038879
  H  0.12630579 -2.42059428 -1.82476813
  H -0.21999294 -2.93522048 -0.15094127
  H  1.45602906 -2.61661278 -0.66302582
  H -0.71895257 -0.28016460  3.60747109
  H -0.03492601 -1.88163452  3.89949351
  H  0.97813367 -0.57401458  3.21094470
