28
opt_min/./Reactant_3036_1_opt.xyz
  C  4.11278300 -0.62629700 -2.60306900
  N  3.02012037 -0.06750558 -1.84936127
  C  1.77562796 -0.59943585 -1.88997500
  O  1.49681287 -1.56642711 -2.57922176
  C  0.83342425  0.13540644 -1.02415323
  N -0.37656844 -0.24503508 -0.72394196
  C -0.99198661 -1.36302474 -1.40508717
  C -1.01251780  0.29858914  0.38723551
  C -0.14180551  0.39434656  1.53433637
  C -0.73668603  0.45838202  2.92325106
  O  1.08072142  0.31489241  1.42109054
  C -2.41043104  0.63053955  0.21995623
  C -3.16949292  1.30812593  1.34118685
  O -2.97054631  0.45940424 -0.85528408
  H  4.98127811 -0.77426764 -1.96315235
  H  4.38282259  0.02382363 -3.43912088
  H  3.78277409 -1.58548635 -3.00283419
  H  3.22315880  0.68597069 -1.21521296
  H  1.18553448  1.06246621 -0.60308073
  H -1.91853423 -1.63208251 -0.90994177
  H -0.30017896 -2.20552297 -1.41967988
  H -1.20103321 -1.09129963 -2.43929760
  H  0.05212202  0.19826143  3.62508023
  H -1.56820926 -0.22855635  3.03421490
  H -1.07154179  1.46789895  3.14615179
  H -4.11638062  1.64796604  0.92938587
  H -3.37319085  0.60992637  2.14860450
  H -2.62084618  2.15616174  1.73736773
