30
opt_min/./Reactant_2212_0_opt.xyz
  C -0.40964725 -0.66055093  3.69476999
  N -0.40039946 -0.56324748  2.25392787
  C -0.32332451  0.64075270  1.62422844
  O -0.24291256  1.68197471  2.23517503
  C -0.46069781  0.58669095  0.13938393
  C -0.70809289  1.86690732 -0.53553179
  O -0.87257068  2.93285233 -0.00870130
  O -0.61831723  1.71086958 -1.88836770
  C -0.72007790  2.88462311 -2.68155259
  N -0.47429384 -0.56661055 -0.55286942
  C -1.55348181 -0.82770534 -1.49483315
  C  0.41916113 -1.55753911 -0.38876774
  C  0.11204514 -2.81260702 -0.94853137
  N -0.13782851 -3.83532589 -1.40837394
  C  1.78253091 -1.47241792  0.17863136
  C  2.34920940 -0.12177315  0.51780714
  O  2.44589492 -2.48621125  0.25980811
  H -1.36482898 -1.04961244  4.05154098
  H  0.39559889 -1.31541369  4.03109301
  H -0.25883422  0.34188193  4.09273365
  H -0.52754944 -1.42668233  1.75205570
  H -0.99025772  3.73456038 -2.05172156
  H -1.48382571  2.71244389 -3.43924365
  H  0.24322266  3.07134267 -3.15798309
  H -2.14765763 -1.66626723 -1.12422835
  H -1.16352364 -1.09506765 -2.47713990
  H -2.19249877  0.04519833 -1.58425391
  H  2.05980636  0.17911672  1.52213206
  H  2.00787642  0.64452610 -0.17516263
  H  3.43369954 -0.20064774  0.48714690
