14
opt_min/./Reactant_336_0_opt.xyz
  C -0.85248421 -2.20830260  0.37974538
  O -0.21041222 -0.94517257  0.23897393
  C -0.97374804  0.08158609 -0.12245617
  O -2.15562519  0.05314349 -0.33673404
  C -0.15988150  1.33668231 -0.22252241
  C -0.83933620  2.52070668 -0.57944278
  N -1.40025279  3.47597205 -0.87548698
  O  1.11244517  1.46591179 -0.01514577
  N  1.89027559  0.45648200  0.30402104
  C  3.16038060  0.65963320  0.48070108
  N  4.30047079  0.66806155  0.65561502
  H -1.67327404 -2.30052639 -0.33119212
  H -1.24060391 -2.30848530  1.39507297
  H -0.08558189 -2.95872495  0.20045591
