17
opt_min/./Reactant_777_1_opt.xyz
  N  5.23972187  2.16980125  2.14067163
  C  4.26482001  1.54457662  2.06714473
  C  3.15792102  0.81398176  1.96874158
  N  2.14265427  0.19926853  1.95604377
  C  1.03100608 -0.41494169  1.88206402
  C  0.05884177 -0.20431453  0.83993756
  C  0.26781191  0.71348045 -0.19525943
  C -0.68711069  0.88033566 -1.17731326
  C -1.86149835  0.14463480 -1.15006461
  C -2.07887419 -0.76625501 -0.12739310
  C -1.12912314 -0.94142502  0.85820416
  H  0.82958048 -1.14730022  2.64944118
  H  1.17951633  1.29303042 -0.22478494
  H -0.51393558  1.59146737 -1.97194631
  H -2.60355400  0.28042439 -1.92203741
  H -2.99158743 -1.34232286 -0.10039725
  H -1.30016854 -1.65273798  1.65445669
