28
opt_min/./Reactant_2612_1_opt.xyz
  C -2.78080430 -1.63109960  0.67178293
  O -2.17557478 -0.40050558  0.32162224
  C -1.35575504 -0.45405522 -0.80502123
  O -2.07286116 -0.75158952 -1.98069746
  C -3.18386509  0.07551694 -2.26793975
  C -0.31224208 -1.52886295 -0.69683802
  C  0.88678817 -1.73767919 -0.67150185
  C  2.32534050 -1.55818332 -0.47992430
 Cl  3.24089939 -2.95078756 -1.14330255
 Cl  2.60251198 -1.53047720  1.31088053
  C  2.97989926 -0.25561288 -1.08861190
  C  2.28962645  1.13898013 -0.87912660
  C  0.83470178  0.69205528 -0.88987161
  C -0.64960648  1.01270622 -0.87674094
  H -3.40951526 -2.01143149 -0.13848534
  H -3.38849661 -1.42782505  1.55059849
  H -2.01454350 -2.37715045  0.90739591
  H -2.88823427  0.94516298 -2.86357428
  H -3.87430403 -0.53492425 -2.84861384
  H -3.67159286  0.41549034 -1.35162322
  H  3.99710824 -0.23225839 -0.69477545
  H  3.03903870 -0.44174435 -2.16297687
  H  2.58464231  1.79670482 -1.69696135
  H  2.58913087  1.58971326  0.06528339
  H  0.85621096  0.05159469 -1.77445847
  H  0.87172682  0.12679013  0.03891298
  H -1.00096019  1.50183431 -1.78200120
  H -0.98555583  1.56433530 -0.00109412
