24
opt_min/./Reactant_2852_1_opt.xyz
  C -2.03239800  0.02233499 -1.29576100
  N -2.14610116  0.98828531 -0.25462793
  N -1.42717436  0.96911652  0.80460294
  C -1.97301013  1.85520154  1.83011395
  C -0.33372596  0.27590233  1.14763510
  C  0.07790250  0.30794940  2.48069307
  N  0.45211500  0.32578661  3.57059863
  C  0.58958764 -0.43604413  0.25102025
  C  1.08741863  0.18481942 -0.89641754
  C  2.01207105 -0.46281544 -1.69233585
  C  2.46257861 -1.72797240 -1.35135459
  C  1.98838293 -2.34180865 -0.20459127
  C  1.06183927 -1.70076980  0.59649711
  H -1.13092202 -0.58440385 -1.29630253
  H -2.11460395  0.55439221 -2.24131554
  H -2.89531856 -0.64411589 -1.22042107
  H -1.19158592  2.47912978  2.25926431
  H -2.73540355  2.46819057  1.35543638
  H -2.42883460  1.26657749  2.62548080
  H  0.74600875  1.17664314 -1.15820709
  H  2.38855305  0.02525452 -2.57848541
  H  3.18638047 -2.23032136 -1.97554905
  H  2.34148737 -3.32474868  0.06809859
  H  0.69372991 -2.17671308  1.49303022
