32
opt_min/./Reactant_5782_1_opt.xyz
  C -1.43421100  1.95579900  2.79652200
  N -1.49726228  1.50117589  1.43275066
  C -0.47376257  0.88216444  0.83550465
  O  0.61841666  0.67530117  1.36347201
  C -0.74720746  0.36373890 -0.52446078
  O  0.20526712 -0.16109692 -1.24593443
  C  1.50110864 -0.08622367 -1.13320153
  C  2.19863517 -0.93710613 -2.10791228
  C  3.69655294 -0.83024994 -2.14027156
  O  1.56169469 -1.67220659 -2.83951726
  C  2.16147149  0.97487144 -0.30199737
  O  1.88380256  2.13924603 -0.47247313
  O  3.17698903  0.52017591  0.42178564
  C  3.82920052  1.48966075  1.23244996
  C -2.11496383  0.14660299 -1.05021701
  O -3.11042395  0.61038090 -0.50113512
  N -2.17006058 -0.55894155 -2.19440580
  C -3.41178009 -0.85954002 -2.86010185
  H -0.40308747  1.87115096  3.13636803
  H -1.75527468  2.99630866  2.85389181
  H -2.07616304  1.34917987  3.43852739
  H -2.39231055  1.48257875  0.94458658
  H  4.08595707 -1.47340628 -2.92472318
  H  3.99251807  0.19975693 -2.32580581
  H  4.10446629 -1.13043326 -1.17840753
  H  4.21120015  2.30603240  0.61561615
  H  4.64166685  0.96975935  1.73289505
  H  3.12313343  1.89100335  1.96026984
  H -1.32145290 -0.94309079 -2.58371738
  H -3.57218635 -1.93802683 -2.90275664
  H -4.21598613 -0.39527715 -2.29183456
  H -3.40521026 -0.45983350 -3.87525509
