23
opt_min/./Reactant_4286_0_opt.xyz
  C  2.49747900  1.32344400  1.22774900
  N  1.28387407  0.64746410  0.83042415
  C  1.37657957 -0.51920844  0.08640944
  O  2.45985117 -0.91622160 -0.32376567
  C  0.15834903 -1.27893567 -0.08014958
  C  0.29343453 -2.76270621 -0.29848878
  O -1.10276450 -0.88197938 -0.02200903
  C -1.72090165  0.25567004 -0.09018997
  C -1.16352839  1.54406221 -0.60229613
  C -3.20429772  0.15315208  0.10084083
  H  3.02252333  0.79217789  2.02852338
  H  3.15660615  1.36495353  0.36246721
  H  2.25487957  2.33144268  1.55931460
  H  0.50334095  0.74236343  1.46211996
  H  1.25677684 -3.09886985  0.07173412
  H  0.23772506 -3.00602741 -1.36110244
  H -0.50714013 -3.29127788  0.21627902
  H -1.41201742  1.63907845 -1.66325951
  H -1.61700290  2.38689247 -0.08279929
  H -0.08397732  1.60183938 -0.51264095
  H -3.72703897  0.75133539 -0.64298383
  H -3.51977702 -0.88404320  0.01637252
  H -3.50177320  0.51665952  1.08690361
