7
opt_min/./Reactant_348_0_opt.xyz
  C -0.86975100  0.36527300 -0.05469100
  C  0.38237870 -0.35227639  0.03327314
  C  1.41206206 -0.95314627  0.10302949
  F  2.52991650 -1.59807306  0.19089775
  H -0.76833358  1.22040362 -0.71861002
  H -1.16783215  0.70825740  0.93215097
  H -1.63755103 -0.29177769 -0.45784212
