13
opt_min/./Reactant_505_0_opt.xyz
  C -2.68170993  0.01047986 -0.87745263
  N -1.40017554  0.44489454 -0.38013776
  C -0.38319640 -0.42014768 -0.17785581
  O -0.41621619 -1.61318611 -0.39073999
  C  0.81423013  0.19876573  0.33683446
  N  1.89339205  0.21413613  0.79990164
  N  2.91193645  0.62234121  1.32836064
  C  4.03620693  0.03086504  1.58154653
  N  5.07589459 -0.36301855  1.87660113
  H -3.47596918  0.28417439 -0.18159714
  H -2.89033377  0.45666897 -1.85191620
  H -2.64507774 -1.07330564 -0.98271203
  H -1.27675887  1.42273486 -0.16826099
