29
opt_min/./Reactant_1383_0_opt.xyz
  C  4.88285500 -0.03101600 -0.06296600
  O  3.54141873 -0.32874513  0.29000042
  C  2.60081500  0.50484712 -0.19384533
  O  2.87690020  1.45711273 -0.89624943
  C  1.30083389  0.05571570  0.28021740
  N  0.11458388  0.55126821 -0.00867632
  C  0.04433599  1.65419289 -0.95543274
  C -1.03627780  0.12424337  0.57575950
  C -2.35809524  0.38936084 -0.00069304
  O -3.40122175  0.39491491  0.60421296
  O -2.32449455  0.56738545 -1.34970753
  C -3.58728608  0.73204798 -1.97746139
  C -0.98253842 -0.57569653  1.87038432
  O  0.02871403 -0.70883754  2.53379246
  O -2.17186718 -1.03000960  2.26344555
  C -2.25131642 -1.66106520  3.53308738
  H  5.50940120 -0.63309932  0.58942953
  H  5.08743236  1.03224880  0.07687875
  H  5.06517071 -0.28881647 -1.10854014
  H  1.36154537 -0.78282390  0.95429014
  H -0.68351057  2.38843162 -0.61645162
  H -0.25867326  1.29050241 -1.93461728
  H  1.02442412  2.11643074 -1.04041588
  H -4.32130163  0.05397848 -1.53921616
  H -3.93971287  1.75851878 -1.85433047
  H -3.43473355  0.50991833 -3.03096615
  H -1.27633634 -1.64637374  4.02369073
  H -2.98575698 -1.12173822  4.13096781
  H -2.58313058 -2.68874904  3.38199998
