32
opt_min/./Reactant_5518_0_opt.xyz
  C  4.04105221  2.67409779  1.20824780
  N  3.01963213  1.88638998  0.57024956
  C  2.49997243  0.76987575  1.15424848
  O  2.88690975  0.39984696  2.25793003
  C  1.47715744  0.10762432  0.34122037
  C  1.12746761  0.72335553 -0.85629903
  N  0.90436799  1.28014670 -1.84402093
  N  0.84335440 -1.06174936  0.69387594
  C  1.44968345 -1.83021399  1.76391402
  C -0.26812798 -1.46876915  0.09313207
  C -0.59531436 -2.92547158 -0.05543932
  C -1.21190293 -0.53637521 -0.50496161
  C -1.98912331 -0.88833667 -1.61308687
  C -2.96077375 -0.03694800 -2.09998526
  C -3.20335022  1.18027733 -1.48749406
  C -2.45723237  1.53555832 -0.37355416
  C -1.47474290  0.69710092  0.10377378
  H  4.86074479  2.86958760  0.51573411
  H  3.64019860  3.62562408  1.56954957
  H  4.40862648  2.10640475  2.06388313
  H  2.68283935  2.18576930 -0.33105623
  H  2.43846553 -2.18782368  1.47588928
  H  0.81502393 -2.65859669  2.05925995
  H  1.59347109 -1.16793571  2.61964977
  H -0.36854556 -3.21934534 -1.08508360
  H -0.01654387 -3.57724753  0.59024732
  H -1.65502362 -3.10593416  0.11436333
  H -1.80697675 -1.82158072 -2.12357679
  H -3.53378222 -0.32706545 -2.96915021
  H -3.96130504  1.84528451 -1.87247125
  H -2.64093151  2.47738436  0.12251779
  H -0.91737619  0.98804986  0.98486516
