12
opt_min/./Reactant_3810_1_opt.xyz
  C -2.00589400 -0.02285400  0.57072700
  N -0.87417110 -0.12826422 -0.31610132
  C  0.32891043  0.39301956  0.00456205
  O  0.61357681  0.92850540  1.04877578
  N  1.19586948  0.30502128 -1.11180450
  O  2.45836994  0.33202800 -0.96788218
  N  3.06800086  0.17771591  0.16045496
  H -1.63239158  0.00508339  1.59388199
  H -2.57243544  0.89413773  0.38605579
  H -2.65912909 -0.88270083  0.43864979
  H -1.00827370 -0.47608469 -1.25142619
  H  4.06990441  0.24525983 -0.04189036
