24
opt_min/./Reactant_1000_0_opt.xyz
  C -0.13004400 -1.55625000  1.63088500
  N -1.02262509 -0.93690106  0.91716354
  C -2.31742063 -1.60039651  0.82514479
  C -0.90153280  0.29312611  0.32216685
  C -1.83147794  0.66086131 -0.78667786
  O -2.38087655 -0.18032045 -1.49668059
  N -2.05453106  1.97690572 -0.96917561
  C -2.80896905  2.46030953 -2.09961990
  C  0.15464791  1.22334664  0.63950323
  O  0.25842656  2.35149549  0.17491966
  O  1.06741298  0.80805649  1.56297319
  C  2.04928413  1.77005665  1.90995678
  H -0.39926116 -2.47882469  2.11210406
  H  0.85951963 -1.17291711  1.75541802
  H -3.01937035 -1.12122976  1.50833160
  H -2.69961767 -1.51166314 -0.19098936
  H -2.21782794 -2.65010179  1.08591427
  H -1.42136271  2.63077257 -0.52663527
  H -3.35521565  1.62001996 -2.52568604
  H -3.51149998  3.22676468 -1.77050416
  H -2.15111855  2.88258629 -2.86249997
  H  1.58408139  2.64317696  2.37186991
  H  2.71700409  1.27635199  2.61188490
  H  2.59568633  2.09552652  1.02278344
