10
opt_min/./Reactant_5175_1_opt.xyz
  O  2.88813886 -0.84774212  0.48997444
  C  2.68168447 -0.14624337 -0.38986442
  O  2.49208086  0.54764862 -1.27844380
  C -0.31413692 -0.29709897  0.46454422
  C -0.73310317  0.41968951 -0.39372384
  C -3.79772173  0.43158428  0.24994268
  O -3.66462599 -0.25930725  1.15124543
  O -3.94723508  1.13751280 -0.63824459
  H  0.04780367 -0.92551741  1.22419460
  H -1.09294295  1.05056695 -1.15241433
