11
opt_min/./Reactant_28_1_opt.xyz
  C -1.62677104 -0.00719513  0.72619968
  C -1.52315884  0.31449958 -0.74968570
  O -2.45814069  0.55339832 -1.46310047
  N -0.24265342  0.32855782 -1.25576494
  N  0.80947035  0.11014509 -0.70396781
  C  1.91608007 -0.07369341 -0.35298781
  C  3.18690550 -0.28435435  0.01461738
  N  4.27571284 -0.47226005  0.34915217
  H -1.19311069  0.80966402  1.30275107
  H -2.67313045 -0.11701949  0.99580031
  H -1.08676788 -0.92371657  0.95718134
