24
opt_min/./Reactant_4354_0_opt.xyz
  C -1.88713900 -1.54221500  0.76300200
  N -1.91061117 -0.27846532  0.35793032
  C -3.21896132  0.22452430 -0.04205001
  C -0.84603559  0.54292434  0.33423497
  C -1.05178693  2.03162642  0.43455856
  C  0.50910407  0.05421684  0.24788383
  C  1.59270293  0.83712598  0.67853959
  C  2.89707608  0.41670455  0.51869626
  C  3.18353570 -0.78900857 -0.09828641
  C  2.13120912 -1.56275253 -0.56560160
  C  0.82724108 -1.15815168 -0.39017270
  H -1.00219111 -1.94465796  1.21064639
  H -2.72988872 -2.17617430  0.57751181
  H -3.81998619 -0.60849277 -0.40322382
  H -3.12299321  0.95568209 -0.84222274
  H -3.73920933  0.67435250  0.80560670
  H -0.59319360  2.41595343  1.34775438
  H -0.58966963  2.54931655 -0.40754544
  H -2.10022056  2.30636142  0.47698497
  H  1.41714212  1.78433057  1.16380205
  H  3.70333727  1.04040310  0.88028337
  H  4.20429110 -1.11886302 -0.21992753
  H  2.33139238 -2.49575637 -1.07456276
  H  0.03413814 -1.77276291 -0.79162195
