23
opt_min/./Reactant_2094_0_opt.xyz
  C -1.93787303 -3.32958482 -0.72550778
  N -1.44264005 -2.08190770 -0.18901483
  C -0.26777449 -1.56231826 -0.61925377
  O  0.43665636 -2.12696891 -1.43395326
  C  0.15441295 -0.27337336 -0.01210624
  N  1.41490329 -0.00047062 -0.15415953
  C  2.50973072  0.41610749 -0.19757917
  C  3.72802796  1.12181046 -0.22391274
  C  3.54453220  2.41700390  0.54778264
  O  4.76106951  0.76333409 -0.73737494
  C -0.58253740  0.77357089  0.69758206
  C -2.09198927  0.73782225  0.71439451
  O  0.02025750  1.69091782  1.22960005
  H -2.57559150 -3.15331711 -1.59552567
  H -1.08740225 -3.93316918 -1.04281722
  H -2.50214355 -3.86171048  0.03685571
  H -1.94661059 -1.66688187  0.57354321
  H  3.85040289  2.24257778  1.57900042
  H  4.19551935  3.17634421  0.12192274
  H  2.51037607  2.74959813  0.54839661
  H -2.44358950  1.76770717  0.66890121
  H -2.42868417  0.32865177  1.66777230
  H -2.52530427  0.17952266 -0.10866296
