23
opt_min/./Reactant_2633_0_opt.xyz
  C -2.47112089  0.34966706  3.93439607
  O -1.63240606  0.13230922  2.80991985
  C -1.91508514  0.84101573  1.71504201
  O -2.80720228  1.65182073  1.63263857
  C -0.98147528  0.53212477  0.60479472
  C -1.08737226  1.33609124 -0.62907506
  O -0.24815605 -0.51062982  0.78460856
  C  0.75398586 -0.94926612  0.02738664
  C  1.11343672 -2.29507353  0.20144039
  N  1.36093283 -3.41509878  0.26801812
  C  1.54309370 -0.11178030 -0.87269653
  O  1.63506740  1.09566366 -0.78364801
  O  2.21305745 -0.85930345 -1.76417237
  C  3.11794771 -0.17163926 -2.61535548
  H -3.44028616 -0.12812025  3.77553418
  H -1.96146315 -0.09623454  4.78397094
  H -2.62414597  1.41999464  4.08788721
  H -0.34401334  2.13583377 -0.65778179
  H -0.93852765  0.70812922 -1.50799297
  H -2.07658132  1.79522421 -0.64349094
  H  2.70427667  0.79598130 -2.90792744
  H  3.26691197 -0.81003266 -3.48188315
  H  4.06605168 -0.00979426 -2.09676302
