30
opt_min/./Reactant_2462_1_opt.xyz
  C  4.32721536 -0.02827563 -0.19720403
  O  3.07011526  0.07530951  0.46261137
  C  1.97337854 -0.03323574 -0.27635196
  O  1.95603467 -0.16991073 -1.47058574
  C  0.68563137  0.00184278  0.57212648
  O  0.90408688  0.13874771  1.95529190
  C  1.36247403  1.37670737  2.45055948
  C  0.05506383 -1.33537202  0.40640103
  C -0.93702265 -1.98871973  0.14310700
  C -2.27531779 -2.27332184 -0.37637513
 Cl -2.10909375 -2.49842445 -2.16556309
 Cl -2.91395773 -3.80095284  0.30394461
  C -3.37895489 -1.17058828 -0.12506818
  C -3.10453065  0.31760606 -0.53902375
  C -1.62873216  0.38875871 -0.16363558
  C -0.30734869  1.13727162 -0.05227772
  H  4.80998473  0.94985721 -0.19192141
  H  4.93103394 -0.74375413  0.35856736
  H  4.18059937 -0.36426865 -1.22494277
  H  1.71507501  1.16402880  3.45856205
  H  0.55858587  2.11813162  2.51208800
  H  2.18696643  1.78199191  1.86022776
  H -4.28120944 -1.54375185 -0.61134494
  H -3.54830477 -1.18785096  0.95497802
  H -3.28761976  0.47386456 -1.59995091
  H -3.77048870  0.95783318  0.04041902
  H -1.67914750 -0.03175276  0.84431148
  H -1.29545324 -0.33531568 -0.90121946
  H  0.08635146  1.43528005 -1.02267030
  H -0.31139181  1.99207952  0.61900788
