23
opt_min/./Reactant_822_1_opt.xyz
  F  0.70185300  1.91250900 -1.72808900
  C  1.02937681  0.71216549 -1.24663635
  C  0.31104760 -0.19778200 -0.58517245
  C -1.07532582 -0.21853910 -0.16303296
  C -1.71553663 -1.42803591  0.12012903
  C -3.04021809 -1.43578119  0.51203204
  C -3.74270376 -0.24753300  0.63135248
  C -3.11526728  0.95455084  0.35201394
  C -1.79068833  0.97318617 -0.04388182
  C  1.36965636 -1.28893660 -0.30363908
  C  2.30315248 -0.66952224  0.74460431
  C  2.99140490  0.24966112  0.08832738
  C  2.45928132  0.17452224 -1.35056167
  O  2.18320578 -1.21042200 -1.46630118
  H -1.17896055 -2.35728954  0.01458177
  H -3.52763398 -2.37516690  0.72413209
  H -4.77829537 -0.25805406  0.93844210
  H -3.66034832  1.88171128  0.44417459
  H -1.30336991  1.91081854 -0.25768624
  H  1.01774691 -2.29929652 -0.13051957
  H  2.32471465 -0.95402683  1.77538905
  H  3.73698996  0.93582968  0.43240389
  H  3.08505713  0.54755519 -2.15511607
