32
opt_min/./Reactant_2327_1_opt.xyz
  N -3.28101563 -0.51705955  1.14699877
  C -2.83532936  0.36296608  0.57802685
  C -2.22375432  1.45748878 -0.14373750
  C -2.84573093  2.71488733  0.23042429
  N -3.31843722  3.71764114  0.51749020
  C -0.79935097  1.46985759  0.12698995
  C  0.35952675  1.26429809 -0.10161864
  C  1.48532492  0.75538058 -0.84503202
 Cl  2.63634858  2.10632408 -1.22710623
  C  2.25368678 -0.33712040 -0.15609306
  C  1.93187675 -0.73080716  1.13571566
  C  2.65012430 -1.73764277  1.75794319
  C  3.69692291 -2.35293835  1.09634881
  C  4.02773151 -1.95678396 -0.18851204
  C  3.31182572 -0.95422395 -0.81255047
  C  0.77974552  0.30040256 -2.18716248
  C -0.41236871 -0.64449016 -1.90128818
  C -1.82466481 -0.10814942 -2.22792298
  C -2.30422536  1.25313343 -1.69180212
  H  1.11840510 -0.24850148  1.65683455
  H  2.39075151 -2.03454937  2.76178403
  H  4.25837980 -3.13532600  1.58367759
  H  4.84937482 -2.42748004 -0.70673237
  H  3.58392416 -0.63596763 -1.80707757
  H  1.46068859 -0.19639836 -2.87423384
  H  0.41357155  1.19570082 -2.68855006
  H -0.29372660 -1.55326179 -2.49362036
  H -0.37693549 -0.95827638 -0.85713939
  H -1.90973557 -0.03666222 -3.31620018
  H -2.52540185 -0.87398315 -1.89409309
  H -1.72058140  2.05537230 -2.13872925
  H -3.34482770  1.38574716 -2.00269085
