24
opt_min/./Reactant_3159_1_opt.xyz
  C -2.87658131  3.25853764 -0.90571331
  O -1.82541468  2.35127030 -0.60161069
  C -2.19392657  1.17863161 -0.08189799
  O -3.32724215  0.84075751  0.12633619
  C -1.00129882  0.31303942  0.17282115
  O  0.03072891  0.61554999 -0.52953005
  C  1.28336457  0.18591386 -0.44914306
  C  2.14308091  0.63719511 -1.46273509
  N  2.86492421  0.96201219 -2.29495220
  C  1.81474775 -0.45499750  0.74568246
  C  3.30118110 -0.67491132  0.76787371
  O  1.08235332 -0.74318138  1.67678104
  C -1.23108310 -0.86324662  1.08607979
  C -0.96002496 -2.20686660  0.44212013
  O -1.76700048 -0.73339425  2.15023767
  H -3.68869295  2.74135725 -1.41973677
  H -2.44243000  4.02761354 -1.53970830
  H -3.26617223  3.70162622  0.01308945
  H  3.55154401 -1.46699963  0.06322348
  H  3.60827228 -0.96942916  1.76794621
  H  3.83423762  0.22278858  0.46422669
  H -1.78431894 -2.86591648  0.70367062
  H -0.05040007 -2.63083615  0.86383055
  H -0.86616814 -2.14084298 -0.63950340
