16
opt_min/./Reactant_375_1_opt.xyz
  C -1.69533570  2.51079308 -1.08361294
  N -1.34593087  1.39278719 -1.18788179
  C -0.89812668  0.20496958 -1.37193467
  C -1.34239624 -0.57112901 -2.58262125
  C  0.25519480 -0.26041714 -0.60711157
  O  1.09677951 -1.02449332 -1.04829457
  N  0.32593459  0.21622891  0.67410265
  C  1.44922395 -0.11575646  1.51910521
  H -2.05820911  3.47776935 -0.93284250
  H -1.15141106 -1.62639280 -2.40773309
  H -2.40597861 -0.42494447 -2.76449200
  H -0.78969438 -0.26870519 -3.47408820
  H -0.38037862  0.84293277  1.01829287
  H  2.38105130  0.05568287  0.97669615
  H  1.41432934 -1.17127071  1.80248212
  H  1.43093764  0.49774548  2.41600649
