20
opt_min/./Reactant_1011_0_opt.xyz
  C -2.66611201  2.75279299 -0.24427201
  C -1.67561621  1.74869702 -0.03428824
  N -0.88596857  0.91219375  0.13785570
  C  0.02034977 -0.02919504  0.24669655
  C  0.37839405 -0.54626948  1.54908100
  C -0.35549942  0.11492693  2.70720000
  O  1.19074428 -1.42813099  1.73258853
  C  0.57234584 -0.46363910 -1.03797390
  O  0.21968560  0.00632861 -2.10271716
  O  1.50169099 -1.41279398 -0.90213196
  C  2.10900244 -1.91000524 -2.08238371
  H -2.87410085  2.80703288 -1.31456934
  H -2.32069014  3.73118243  0.09796894
  H -3.59088628  2.49561597  0.27696471
  H -0.20613363  1.19328870  2.69692994
  H  0.02400794 -0.29273202  3.64203685
  H -1.42334301 -0.09181189  2.63581741
  H  1.71292134 -1.38408530 -2.95476637
  H  1.89448876 -2.97750148 -2.15481065
  H  3.18572355 -1.75029844 -2.00405360
