16
opt_min/./Reactant_130_1_opt.xyz
  C -3.01288805 -0.43472130 -0.08636584
  O -1.61147384 -0.37472300  0.12626565
  C -0.84476744 -0.88310141 -0.84644440
  O -1.24711049 -1.38810690 -1.85518086
  N  0.50259411 -0.88706397 -0.50865488
  N  1.08849557  0.08218009  0.04482377
  C  2.47805769 -0.18021400  0.40491089
  N  0.57404144  1.22462041  0.25100804
  C  1.21207921  2.25584022  0.70688173
  N  1.67808640  3.25148922  1.05217044
  H -3.47467572 -0.25326490  0.88120400
  H -3.29433619 -1.41502848 -0.47561171
  H -3.31470408  0.33274082 -0.80226067
  H  2.62615378  0.03651790  1.46380149
  H  2.69634440 -1.22281015  0.19003196
  H  3.13314257  0.47114577 -0.17667510
