25
opt_min/./Reactant_4776_0_opt.xyz
  C  4.62856114 -0.81315340  0.19323418
  N  3.49041011  0.07263655  0.17707721
  C  2.23213743 -0.38351831  0.01370407
  O  1.93745306 -1.56399217 -0.10922468
  C  1.16376012  0.64082574 -0.02332423
  C  1.46544128  1.98911213  0.11170556
  N  1.80281115  3.08098305  0.27500448
  N -0.05015627  0.11402444 -0.21012903
  C -1.27095313  0.59335370 -0.30196187
  C -1.62524744  2.03530097 -0.20844388
  C -2.28799432 -0.43096526 -0.52642081
  O -2.01899023 -1.61236058 -0.62672614
  O -3.53301018  0.06486993 -0.59038999
  C -4.57208376 -0.87878968 -0.80386427
  H  5.34532368 -0.48093543  0.94224389
  H  4.27327773 -1.81329432  0.43836540
  H  5.11744200 -0.84629670 -0.78434232
  H  3.65224500  1.06540257  0.24657259
  H  0.00746033 -0.92448211 -0.29094849
  H -0.82629622  2.60421969  0.25832688
  H -1.80869208  2.44641937 -1.20235807
  H -2.54066610  2.15286539  0.36772339
  H -4.62209474 -1.14791407 -1.86135133
  H -5.49535030 -0.39517951 -0.49445958
  H -4.38940271 -1.78128941 -0.21717697
