26
opt_min/./Reactant_1835_0_opt.xyz
  C -3.10718100 -1.02125900 -0.33712100
  C -1.64562350 -0.87314960 -0.12714411
  N -1.05651388  0.29244329 -0.23319222
  C  0.23021290  0.65846859 -0.06107839
  C  0.60082391  2.03944555 -0.13291931
  C -0.50287548  3.05008353 -0.46359771
  O  1.74087481  2.43973966  0.06980658
  C  1.25936297 -0.36603797  0.19646929
  C  2.13470737 -0.22950732  1.26984985
  C  3.11871118 -1.17482673  1.49616005
  C  3.23962890 -2.26952292  0.65760607
  C  2.38172760 -2.40889338 -0.42017383
  C  1.40092953 -1.46329754 -0.65263929
  H -3.57041135 -0.06475979 -0.57612253
  H -3.58136293 -1.42338774  0.55970360
  H -3.31958675 -1.71780135 -1.15062150
  H -1.05420021 -1.72922439  0.14685830
  H -1.67512830  1.07091075 -0.45770774
  H -1.03088471  2.80125640 -1.38294564
  H -0.03105363  4.02116884 -0.58856733
  H -1.21126544  3.12153359  0.36262982
  H  2.04423613  0.62625692  1.92006780
  H  3.79297086 -1.05740700  2.33144058
  H  4.00635002 -3.00935015  0.83884104
  H  2.48136494 -3.25381383 -1.08700291
  H  0.75279365 -1.56234571 -1.51191652
