21
opt_min/./Reactant_259_0_opt.xyz
  C  4.74158190  0.32435643 -0.60160447
  C  3.24865102  0.07882046 -0.65279389
  O  2.75900003 -0.83785686 -1.30001114
  C  2.47055340  0.98544408  0.13730877
  N  1.18213138  0.87091872  0.17633774
  C  0.03391436  0.64836664  0.10571216
  C -1.31510365  0.36021196  0.03450817
  C -2.26181672  1.12648508  0.73309873
  C -3.60129196  0.81739142  0.63130663
  C -4.02505631 -0.24485197 -0.15404680
  C -3.09026058 -1.00590133 -0.84247704
  C -1.74609710 -0.71584425 -0.75949885
  H  5.22358777 -0.18763740 -1.42913612
  H  5.13107092 -0.08081854  0.33180978
  H  4.96636758  1.38718894 -0.64034476
  H  2.91806948  1.76645998  0.72729305
  H -1.92989851  1.95204822  1.34483388
  H -4.32440226  1.41197452  1.17047642
  H -5.07548033 -0.47868342 -0.22879436
  H -3.41496601 -1.83550073 -1.45245408
  H -1.01291009 -1.30447702 -1.28906009
