17
opt_min/./Reactant_3524_0_opt.xyz
  C  3.00856400 -0.29100690 -0.14431409
  O  1.59329926 -0.34659007 -0.26054023
  C  0.89468329  0.45615583  0.57964117
  O  1.42541310  1.15666909  1.40631377
  C -0.55798768  0.35469725  0.42515163
  C -1.31567953  1.18156431  1.27214755
  N -1.95290963  1.84612726  1.95923607
  N -1.21295867 -0.43238580 -0.44359687
  C -2.66649159 -0.34083105 -0.43718239
  N -0.76140512 -1.24912028 -1.29178734
  H  3.39035861 -1.20194547 -0.60119597
  H  3.38991237  0.58630829 -0.67131045
  H  3.29475149 -0.22838092  0.90639564
  H -3.05932703 -0.54441758  0.55865293
  H -3.04003410 -1.07422186 -1.15005013
  H -2.97925308  0.66261023 -0.73389493
  H  0.25532915 -1.30919657 -1.30185773
