30
opt_min/./Reactant_1970_1_opt.xyz
  C  2.55433600 -2.70929800  0.83689200
  N  1.77339211 -1.50533824  0.71855522
  C  2.24738399 -0.39263258  0.10558171
  O  3.34668349 -0.33944676 -0.41346479
  C  1.32484194  0.75166713  0.10232741
  C -0.00408116  0.89383937  0.20494758
  C -1.09964421 -0.05697741  0.27239587
  C -1.09638786 -1.19439134 -0.53792367
  C -2.14850323 -2.08865365 -0.49042890
  C -3.21396284 -1.86762401  0.36799220
  C -3.22630287 -0.74183536  1.17450476
  C -2.18207034  0.16263645  1.12426314
  C -0.22153002  2.42126089  0.11109327
  C  0.08122163  2.75606682 -1.35000808
  C  1.39126933  2.61038189 -1.46248327
  C  1.85474934  2.18778196 -0.06862142
  O  0.94487098  2.90148026  0.75497079
  H  1.99371286 -3.56482427  0.45645476
  H  3.45851854 -2.57125133  0.24631883
  H  2.83174880 -2.89893948  1.87680325
  H  0.87174795 -1.47746311  1.16600145
  H -0.27128313 -1.35475773 -1.21625611
  H -2.14034229 -2.96103954 -1.12713350
  H -4.03454622 -2.56862399  0.40570997
  H -4.05477090 -0.56568429  1.84509281
  H -2.18756814  1.03373879  1.76236891
  H -1.13075402  2.82528822  0.54038866
  H -0.66533204  3.01162829 -2.07405198
  H  2.04472766  2.71610495 -2.30300986
  H  2.89180902  2.35163019  0.19529940
