28
opt_min/./Reactant_4687_1_opt.xyz
  C -0.78676400  3.26768000  0.20843000
  N -0.72299975  1.82856086  0.34989557
  C  0.25262635  1.11805408 -0.29436899
  O  1.03543228  1.65013727 -1.06299695
  C  0.28794337 -0.32099755  0.02015645
  N  1.42008745 -1.01409454 -0.09950980
  C  2.64315505 -0.67599387 -0.43161248
  C  3.63572667 -1.73385033 -0.41293182
  O  3.38862557 -2.88248780 -0.10641225
  O  4.85728999 -1.28941009 -0.75871704
  C  5.89051124 -2.26318012 -0.76986385
  C -0.84784376 -1.18068043  0.39925129
  O -0.64309917 -2.32185287  0.79169442
  N -2.09824033 -0.64685084  0.30639518
  C -3.26211417 -1.48104950  0.50410902
  H -1.47189103  3.53984137 -0.59828389
  H  0.20295041  3.64885339 -0.04658281
  H -1.12925584  3.71710524  1.13684873
  H -1.15944749  1.41136254  1.15590563
  H  1.29180597 -2.01092951  0.15879072
  H  2.87347440  0.32964721 -0.73337509
  H  5.85975312 -2.86108683  0.14303492
  H  6.82675163 -1.71545741 -0.84131074
  H  5.77338918 -2.92825457 -1.62845055
  H -2.21594179  0.17226307 -0.27085720
  H -4.06438357 -0.88195725  0.93182855
  H -3.60651862 -1.93396127 -0.42949177
  H -2.98587927 -2.27780206  1.19247549
