25
opt_min/./Reactant_1861_0_opt.xyz
  C -2.36772535  3.22166763 -0.25239557
  N -1.65240233  1.97958125 -0.10054985
  C -2.24515104  0.87925951  0.43486242
  O -3.39109047  0.86758740  0.81496095
  C -1.35461745 -0.31380966  0.52211206
  N -0.14174629 -0.25791943  0.11987702
  C  0.98278623 -0.22165154 -0.22859374
  C  2.34738589 -0.22609774 -0.59321192
  O  3.06191057 -1.18878408 -0.45950206
  O  2.72312725  0.95946656 -1.11065808
  C  4.08819806  1.04013832 -1.49670455
  C -1.84645753 -1.59308145  1.06763519
  O -2.95165428 -1.80257959  1.48090213
  O -0.86164040 -2.51746935  1.04049409
  C -1.20063768 -3.80120632  1.54333531
  H -2.51165624  3.46120432 -1.30884177
  H -1.82472599  4.03849205  0.22622206
  H -3.33883146  3.10137497  0.22468771
  H -0.69300711  1.94321366 -0.40421349
  H  4.21466135  2.02071255 -1.94782580
  H  4.73801308  0.92077976 -0.62802945
  H  4.32625114  0.25764817 -2.22156259
  H -1.76397119 -4.36103162  0.79310546
  H -1.80962070 -3.70719365  2.44458474
  H -0.26074423 -4.30352298  1.75804030
