37
opt_min/./Reactant_2929_1_opt.xyz
  C  5.47465900 -0.65483300  0.13947800
  C  4.76932530  0.40884260  0.67630119
  C  3.39133008  0.44508390  0.61720084
  C  2.67745854 -0.60126576  0.00540071
  N  1.32304232 -0.69110020 -0.10968112
  N  0.59626660  0.36245844  0.09733184
  C -0.72359741  0.38183464  0.08705824
  C -1.40582696 -0.91336003 -0.14920855
  C -1.45962810 -1.45235766 -1.42737701
  C -2.08549501 -2.66692731 -1.64498521
  C -2.65758860 -3.34905667 -0.58498134
  C -2.60240518 -2.81953633  0.69188690
  C -1.97733889 -1.60471522  0.91209419
  C -1.47723836  1.58943629  0.27731060
  C -2.87652145  1.54197127  0.15928554
  C -3.64358880  2.67560983  0.32174677
  C -3.04885045  3.89523641  0.60630688
  C -1.67017737  3.96159132  0.73148336
  C -0.89345235  2.83364689  0.57243858
  C  3.40724546 -1.68045868 -0.51541631
  C  4.78262564 -1.70263149 -0.45082755
  H  6.55321179 -0.67236135  0.18865839
  H  5.30145755  1.22060506  1.15299404
  H  2.87286054  1.27585113  1.08055544
  H  1.06105777  1.26954054  0.25484686
  H -1.00906265 -0.91631571 -2.24974598
  H -2.12434171 -3.07848681 -2.64237000
  H -3.14621693 -4.29771876 -0.75514193
  H -3.04448745 -3.35268128  1.52101105
  H -1.93090420 -1.18620872  1.90666617
  H -3.34930434  0.59872273 -0.06786510
  H -4.71817510  2.61245843  0.22668460
  H -3.64995527  4.78311268  0.72912007
  H -1.19643995  4.90668573  0.95590395
  H  0.17742775  2.92826268  0.68750159
  H  2.85326911 -2.48561356 -0.97270295
  H  5.32352617 -2.54272137 -0.86158834
