24
opt_min/./Reactant_4660_0_opt.xyz
  C  3.01111301  0.59727200  0.50124389
  O  1.65064867  0.28234256  0.26941788
  C  1.40723984 -0.78052064 -0.57789209
  O  2.30458166 -1.37831896 -1.13352006
  C  0.02402558 -1.13982792 -0.63002994
  C -0.30385386 -2.40877370 -1.11113148
  N -0.62313009 -3.43642553 -1.52204186
  N -1.01630900 -0.41025242 -0.05712648
  C -1.98674563 -1.19189014  0.69997504
  C -1.19132058  0.87571242 -0.23491340
  C -0.32780790  1.61864122 -1.17989181
  C -2.25574582  1.63367468  0.47928135
  H  3.21399386  0.49921823  1.56902042
  H  3.20133144  1.62462000  0.18273570
  H  3.64660359 -0.08954333 -0.06292259
  H -2.93490077 -1.25320110  0.16223940
  H -1.60254553 -2.20068765  0.83721590
  H -2.15099923 -0.75164900  1.68211255
  H  0.57512261  1.97301076 -0.68105716
  H -0.00846768  0.95222549 -1.98567103
  H -0.84877807  2.47909184 -1.59506135
  H -1.83745759  2.10129715  1.37390510
  H -3.09961364  1.01717267  0.77400311
  H -2.63056738  2.43214899 -0.15818606
