37
opt_min/./Reactant_3088_0_opt.xyz
  C -1.18846352  2.63344508  2.63874936
  O -0.90227860  1.54262520  1.77076643
  C -1.92922057  0.93019494  1.19700622
  O -3.07708516  1.24933526  1.34906576
  C -1.48894832 -0.27059180  0.34698949
  C -2.68010148 -0.56952405 -0.57224005
  O -2.69572883 -0.31025650 -1.74451762
  O -3.66730757 -1.13964377  0.10482899
  C -4.88765853 -1.39031495 -0.58052330
  C -0.27736686  0.00454597 -0.37906491
  C  0.85883124  0.22429086 -0.70401205
  C  2.20425220  0.53970819 -0.26662933
  C  2.77271253  1.84125245 -0.81676412
  C  2.26260439  2.22405040 -2.17718301
  O  3.58734777  2.48390186 -0.20615410
  C  2.00361527  0.60201061  1.26568407
  C  1.56554310 -0.70373388  1.96669849
  C  0.44526265 -1.67517058  1.49389086
  C -1.07584280 -1.44303403  1.28819051
  H -0.38657585  3.35806201  2.51381461
  H -2.15215897  3.07607287  2.38347194
  H -1.21225968  2.27635377  3.66983199
  H -4.76001517 -1.21140469 -1.64942302
  H -5.16610544 -2.42765157 -0.39772855
  H -5.64973057 -0.72281711 -0.17825119
  H  2.91275106 -0.25186353 -0.54114954
  H  1.17500784  2.24234622 -2.17043408
  H  2.65619064  3.19354617 -2.47006468
  H  2.57569630  1.47332580 -2.90155158
  H  1.27581712  1.38653792  1.45644284
  H  2.94491014  0.89295723  1.73942714
  H  1.39155764 -0.44583160  3.01273116
  H  2.44657673 -1.35366184  1.94185322
  H  0.49212448 -2.47834627  2.23807961
  H  0.81404113 -2.14758345  0.58002976
  H -1.40305711 -2.35166807  0.77481669
  H -1.61790503 -1.38733457  2.23178140
