24
opt_min/./Reactant_4393_0_opt.xyz
  C -3.31675600  1.57748700 -0.88256500
  O -2.10978108  0.89041194 -0.59354965
  C -2.20352875 -0.44509156 -0.41015194
  O -3.24208471 -1.06358809 -0.48977390
  C -0.90898769 -1.05769573 -0.11844872
  C -0.88538643 -2.53878371  0.08374000
  O  0.08404714 -0.22125601 -0.06036353
  C  1.36604018 -0.32258140  0.11327349
  C  2.13248496 -1.59631703  0.28325327
  C  2.11120403  0.93521146  0.11864076
  C  1.32929233  2.20987841 -0.08106273
  O  3.32283707  0.93969787  0.26445107
  H -3.78484955  1.91096712  0.04649388
  H -3.05108348  2.43603982 -1.49627138
  H -4.00562164  0.91811372 -1.41427779
  H -1.85460954 -2.83736705  0.47911411
  H -0.10372542 -2.84620303  0.77063452
  H -0.75285818 -3.05937977 -0.86657521
  H  1.82876139 -2.34992295 -0.44033734
  H  2.02344429 -2.00151706  1.29001439
  H  3.18494547 -1.35891865  0.13623457
  H  1.68077018  2.95371791  0.63040920
  H  1.54426257  2.58705724 -1.08051656
  H  0.25962773  2.06356909  0.02109489
