35
opt_min/./Reactant_3056_0_opt.xyz
  C -3.78189000  2.75217100 -0.88863000
  O -2.70479026  1.83244172 -0.90341865
  C -2.76672426  0.85138340  0.02146648
  O -3.67786657  0.76235611  0.81845814
  C -1.65351126 -0.07288406 -0.02394831
  C -1.54786710 -1.18524516  0.74415672
  C -2.46553801 -1.75984072  1.75399304
  O -0.38502481 -1.84850060  0.48850549
  N -0.54441004 -0.02192964 -0.89157034
  C  0.00537660  1.21015895 -1.39874809
  C  0.35734356 -1.10595861 -0.49145541
  C  0.61145957 -2.02090046 -1.69285735
  C  1.62834735 -0.58342562  0.17462489
  C  2.90426044 -0.81978407 -0.31972290
  C  4.01333994 -0.30577618  0.33075857
  C  3.86339960  0.44949736  1.48020137
  C  2.59520441  0.68880322  1.97988568
  C  1.48661473  0.17672523  1.33145885
  H -3.74984397  3.36256597  0.01702338
  H -3.66164751  3.37608306 -1.77098895
  H -4.73633419  2.22170871 -0.91671405
  H -2.02294617 -2.65913441  2.17321972
  H -2.65642419 -1.03231594  2.54103518
  H -3.42563125 -1.99523412  1.29835925
  H -0.62162440  1.57397661 -2.21271052
  H  0.07239080  1.99308857 -0.63483059
  H  1.00602522  1.01458009 -1.78012929
  H -0.35109019 -2.35939692 -2.06832329
  H  1.19576976 -2.88305089 -1.38326017
  H  1.12352935 -1.48413181 -2.48519648
  H  3.04644675 -1.40511292 -1.21378854
  H  4.99995039 -0.49882309 -0.06476575
  H  4.73069504  0.84862153  1.98534518
  H  2.46724622  1.27590926  2.87756025
  H  0.50049361  0.36461458  1.73052375
