22
opt_min/./Reactant_192_1_opt.xyz
  C -2.62537103 -1.32791297  0.80135395
  O -1.70302961 -1.33485214 -0.26893312
  C -0.72410196 -0.43002284 -0.24929255
  C -0.40244243  0.56629184  0.60913140
  C -1.00237651  0.95395991  1.80519039
  N -1.47807186  1.29830649  2.79482220
  C  0.88750357  1.17665352  0.08669647
  C  1.98828288  0.12592704  0.34226713
  C  1.60803523 -1.00896938 -0.62919191
  C  0.33730622 -0.46293378 -1.32112321
  C  0.67598470  1.02705151 -1.42249403
  H -3.31572336 -2.14851919  0.61108405
  H -3.17376288 -0.38311605  0.84078347
  H -2.11959420 -1.48136271  1.75805524
  H  1.11333047  2.17128462  0.46344267
  H  1.99130320 -0.19905545  1.38240444
  H  2.97014601  0.53762140  0.11032774
  H  1.41443354 -1.95112718 -0.11822587
  H  2.38851823 -1.17605568 -1.37098765
  H  0.04951936 -0.98692872 -2.22831423
  H  1.57486385  1.22325962 -2.00358064
  H -0.15060540  1.62771590 -1.79863639
