26
opt_min/./Reactant_2404_1_opt.xyz
  C  3.98541703 -2.17174383  3.01974602
  N  2.96881415 -1.49882176  2.24295238
  C  2.32941009 -2.15282774  1.23867953
  O  2.55900890 -3.29180748  0.89533635
  C  1.33609661 -1.34523390  0.59721743
  N  0.47893423 -0.73991134  0.08037099
  C -0.46793865 -0.07592337 -0.49785634
  C -1.20392206 -0.76908671 -1.59958982
  O -0.88457159 -1.88430051 -1.96452406
  N -2.21100309 -0.05624032 -2.13409262
  C -3.00681888 -0.57117574 -3.22179372
  C -0.71450015  1.27640313 -0.04740922
  O -1.56407128  2.02595041 -0.48660406
  O  0.12110100  1.62163271  0.96364108
  C -0.02084364  2.93409944  1.48777592
  H  4.69196143 -2.65834001  2.34592440
  H  3.53908704 -2.94151016  3.65393791
  H  4.50734334 -1.44767241  3.63828378
  H  2.70704139 -0.55667031  2.48140142
  H -2.43573184  0.86694494 -1.78620101
  H -2.91303859  0.06886270 -4.10128863
  H -2.64230466 -1.56909215 -3.46115580
  H -4.05789911 -0.62800748 -2.93278831
  H  0.69212506  3.60210106  1.00012880
  H  0.18959881  2.87682086  2.55402431
  H -1.03469372  3.29913272  1.31488349
