25
opt_min/./Reactant_4947_1_opt.xyz
  C  2.44640900  2.61371800 -0.93812400
  C  3.08756224  1.32382148 -1.40764945
  O  4.17463099  1.30401033 -1.96642516
  C  2.35506152  0.11116808 -1.13604421
  C  2.88758659 -1.20924072 -1.59193390
  O  1.19956714  0.22697550 -0.51790508
  C  0.36166668 -0.72471225 -0.23884235
  C -0.85826798 -0.43532060  0.43946123
  C -1.72200006 -1.48582563  0.78866748
  C -2.90593156 -1.22759731  1.44568401
  C -3.25955257  0.07565097  1.76554317
  C -2.41639797  1.12383944  1.42414950
  C -1.22862044  0.87776107  0.76933238
  H  2.03783913  2.51016733  0.06219750
  H  1.63926875  2.88059198 -1.61775321
  H  3.19038695  3.40472043 -0.95557394
  H  3.93437981 -1.07410792 -1.84811986
  H  2.36494502 -1.56860256 -2.48133717
  H  2.79934452 -1.96196750 -0.80807102
  H  0.56986853 -1.74108814 -0.54975997
  H -1.44668208 -2.49982647  0.53936648
  H -3.56089753 -2.04401490  1.71216471
  H -4.18940952  0.27175646  2.27751460
  H -2.69130123  2.13900787  1.67142671
  H -0.57332680  1.69235628  0.50177082
