24
opt_min/./Reactant_2090_0_opt.xyz
  C  3.00791458 -0.99138914  1.43615869
  N  1.98701237 -0.38941429  0.60902502
  C  0.69176417 -0.71434296  0.79462677
  O  0.34189328 -1.53095798  1.63857430
  C -0.29312744 -0.12006084 -0.12402046
  O -1.57309171 -0.51927184 -0.03860643
  C -2.29583069 -0.78728136  0.99187192
  C -2.03287434 -0.55297202  2.43865738
  C -3.56321702 -1.33737601  0.69728320
  N -4.60452211 -1.79063483  0.52096830
  C -0.11568440  0.68957134 -1.32184566
  O -1.04608593  1.07501316 -1.99215544
  O  1.16907341  1.06080631 -1.57609820
  C  1.33279590  1.90270756 -2.71168240
  H  2.70741255 -0.93130323  2.48304597
  H  3.94546714 -0.46349571  1.28945883
  H  3.14142105 -2.04744149  1.18810415
  H  2.26838826  0.21044559 -0.14483773
  H -1.08759266 -0.04805790  2.60147867
  H -2.84658907  0.05955484  2.83507400
  H -2.03145625 -1.49191479  2.99015685
  H  2.29584671  2.39343774 -2.59144281
  H  0.52507818  2.63452284 -2.75551002
  H  1.32069898  1.30693909 -3.62573665
