17
opt_min/./Reactant_3593_1_opt.xyz
  C -2.49739519  1.29247869 -0.01370342
  O -1.14480674  0.86803531  0.04598574
  C -0.91052175 -0.42679641 -0.16897434
  O -1.76668551 -1.24758050 -0.41374463
  C  0.51596612 -0.77593661 -0.08096518
  C  0.91059387 -2.19384923 -0.32764926
  N  1.46028597  0.09754916  0.19166004
  N  1.31890478  1.36046032  0.42484851
  C  2.32776989  2.12613228  0.69159633
  N  3.16218596  2.88816239  0.92819924
  H -2.96937246  1.16105736  0.96235267
  H -3.04492130  0.70946067 -0.75705067
  H -2.47992097  2.34630326 -0.28097984
  H  1.45515953 -2.29188536 -1.26807240
  H  0.00778599 -2.79557389 -0.39352695
  H  1.53962034 -2.57860592  0.47439979
  H  2.41508327 -0.30089039  0.21242650
