24
opt_min/./Reactant_1902_1_opt.xyz
  C  3.60610100  0.71727300 -0.84855800
  N  2.36982328  0.08564011 -0.46243692
  C  1.21291722  0.78717700 -0.33139473
  O  1.17750067  1.98707546 -0.56165552
  C  0.05848373 -0.01530362  0.07501711
  C -1.27782241  0.19896850  0.07707237
  O -2.14135836  1.15937517 -0.19541361
  C -1.70326249  2.49025644 -0.44119747
  C -1.89973875 -1.14922468  0.51190192
  C -1.65720837 -2.09185961 -0.66442179
  C -0.35351502 -2.31892160 -0.64453359
  C  0.16184560 -1.49444690  0.53515738
  O -0.92825028 -1.58772569  1.43652615
  H  4.35436144  0.62409315 -0.05822420
  H  3.39202428  1.77080727 -1.01867995
  H  3.99694900  0.27161216 -1.76524332
  H  2.38372687 -0.90725146 -0.30891895
  H -2.52741545  2.98058408 -0.95535942
  H -0.79631173  2.51749383 -1.03991846
  H -1.50794206  2.99433018  0.50838424
  H -2.89842591 -1.09502619  0.93230009
  H -2.42087749 -2.42913422 -1.33394947
  H  0.26878647 -2.90162369 -1.29243202
  H  1.08176015 -1.80828351  1.01944088
