17
opt_min/./Reactant_2714_1_opt.xyz
  C  0.94017437  0.93757658 -2.33876844
  C  0.58652560  0.19903407 -1.09968170
  N -0.31258914  0.67872679 -0.28482722
  C -0.84161810  0.28866921  0.90864657
  C -1.84113432  1.15986075  1.37725488
  N -2.64721329  1.90792434  1.71229271
  C -0.53097936 -0.85921492  1.73470585
  C  0.57809836 -1.79861012  1.30139675
  O -1.14447830 -1.06452663  2.76777282
  H  0.08501354  1.48762825 -2.73096093
  H  1.73966606  1.65906957 -2.14658103
  H  1.29681000  0.24917378 -3.09987614
  H  1.09904382 -0.71348914 -0.86510305
  H -0.73291857  1.55539559 -0.60206353
  H  0.32358829 -2.28747191  0.36194689
  H  0.68614912 -2.55942617  2.07181923
  H  1.52168346 -1.26618321  1.19489153
