30
opt_min/./Reactant_5329_0_opt.xyz
  C  0.04559400  3.75832300  0.40458500
  N -0.13584519  2.34831536  0.62926747
  C  0.58608534  1.41832256 -0.02414199
  O  1.49636624  1.71388302 -0.78888819
  C  0.21257722  0.01431479  0.30352335
  C -1.20792524 -0.22983755  0.63619571
  O -1.84319188  0.45620634  1.42693769
  N -1.79264974 -1.24525926 -0.04790906
  C -3.18405220 -1.58885914  0.11608832
  N  1.08894977 -1.00186067  0.19775620
  C  0.75653179 -2.25145571  0.87102501
  C  2.29132672 -0.91051200 -0.36488055
  C  3.30507981 -1.92865385 -0.39401283
  C  4.57580308 -1.47083256 -1.07743177
  O  3.20016604 -3.06531518  0.05459880
  H  0.89483564  3.88517914 -0.26508751
  H  0.24638757  4.26684945  1.34870663
  H -0.84474473  4.19555493 -0.05325843
  H -0.89079136  2.03987181  1.23223633
  H -1.28694722 -1.73268651 -0.76926970
  H -3.58116773 -0.98099708  0.92673132
  H -3.74574991 -1.38016301 -0.79648665
  H -3.28515359 -2.64597133  0.36604460
  H  1.60766389 -2.55751135  1.47785666
  H -0.11902293 -2.12713682  1.50230920
  H  0.58897181 -3.04861712  0.14668141
  H  2.51903742  0.02693982 -0.84676047
  H  5.01787690 -0.65103300 -0.51503679
  H  5.28154142 -2.29530769 -1.12622076
  H  4.35753742 -1.11422366 -2.08074284
