20
opt_min/./Reactant_561_0_opt.xyz
  C -1.86675999  0.52063097  1.40974503
  C -1.70082520 -0.37947255  0.20168941
  O -2.66122726 -1.01962287 -0.20385321
  C -0.45592763 -0.37002148 -0.55146836
  C -0.55984251 -0.88402682 -1.95637671
  N  0.71148785  0.13270668 -0.13139432
  C  1.70848275  0.45427689 -1.14077670
  C  1.06698781  0.32512588  1.14405344
  C  2.23710839  0.95248353  1.52539606
  N  3.21000223  1.46550656  1.87708837
  H -1.65678705 -0.02479474  2.32899670
  H -2.91428872  0.81501603  1.44693237
  H -1.23788701  1.40673191  1.36346681
  H -1.51006935 -1.40665251 -2.04451051
  H -0.54986087 -0.07507875 -2.68912180
  H  0.24249140 -1.57960430 -2.20013897
  H  1.28437290  1.12833914 -1.88435031
  H  2.04463762 -0.45141216 -1.64606914
  H  2.56473736  0.92906750 -0.66662869
  H  0.44163918 -0.05944016  1.92940653
