36
opt_min/./Reactant_2446_0_opt.xyz
  C  5.09956368  0.25809035  0.53748091
  O  3.84214294 -0.28762592  0.91321027
  C  2.77040107  0.42952940  0.59020798
  O  2.79975098  1.47209165 -0.00564802
  C  1.49022059 -0.25377038  1.05227554
 Cl  1.62448404 -0.46543476  2.84852042
  C  0.28889559  0.48128888  0.77651192
  C -0.85587705  0.71854350  0.50139616
  C -2.24699054  0.42394193  0.27478951
  C -3.24985247  1.25932487  1.09601901
  C -2.70442611  2.52242046  1.70054756
  O -4.39479759  0.91597515  1.20291467
  C -2.70230468  0.64617654 -1.17895717
  C -2.05165880  1.80859105 -1.88023009
  O -3.54799821 -0.04076974 -1.67936808
  C -2.31803447 -1.06882946  0.67446194
  C -1.29135086 -1.92727976 -0.09029116
  C -0.01819096 -2.37094265  0.66735445
  C  1.30373361 -1.62867007  0.38390374
  H  5.85462501 -0.36771569  1.00577897
  H  5.18474764  1.28966065  0.88440271
  H  5.20742008  0.24299521 -0.54893294
  H -2.88305501  3.34301842  1.00554263
  H -3.24421441  2.74237344  2.61881974
  H -1.63756777  2.45251577  1.89154619
  H -1.73130279  1.48955157 -2.87024842
  H -1.20450177  2.20498134 -1.32837595
  H -2.79749554  2.59073730 -2.02076621
  H -3.33037467 -1.43642099  0.50724825
  H -2.11407258 -1.13436779  1.74599243
  H -0.99419208 -1.41864280 -1.00906868
  H -1.80824976 -2.83669622 -0.40213749
  H -0.20406322 -2.39312112  1.74123806
  H  0.18827074 -3.39704429  0.35222852
  H  1.40705051 -1.48691110 -0.69590800
  H  2.12660931 -2.26593967  0.71697920
