28
opt_min/./Reactant_5647_1_opt.xyz
  O -1.16383400  2.94919000  0.73815100
  C -0.62606256  1.90401498  0.47721970
  O  0.79305995  1.78187294  0.43474264
  C  1.08618339  0.53302109  0.12605059
  C  2.41680376  0.03177254 -0.00856579
  C  3.51007732  0.88590941  0.19113497
  C  4.79241087  0.39681704  0.05992524
  C  5.00779174 -0.93407493 -0.26819386
  C  3.92782998 -1.78351720 -0.46686191
  C  2.63869870 -1.31182910 -0.33985814
  O  0.01096787 -0.19078543 -0.04185911
  C -1.07831889  0.59127952  0.15945508
  C -2.41160604  0.07490068  0.04466771
  C -2.63772109 -1.26658477 -0.28214166
  C -3.92795065 -1.74368825 -0.38768257
  C -5.00805174 -0.90190447 -0.17181171
  C -4.78866490  0.42885355  0.15242751
  C -3.50508207  0.92232283  0.26203841
  H  3.32869354  1.91782136  0.44567050
  H  5.63380295  1.05571530  0.21399615
  H  6.01447080 -1.30960034 -0.36913176
  H  4.09617373 -2.81890499 -0.72213442
  H  1.79411560 -1.96563821 -0.49265355
  H -1.79548784 -1.92113922 -0.45001930
  H -4.09657919 -2.78078329 -0.64039167
  H -6.01456685 -1.28247539 -0.25619848
  H -5.62831302  1.08730929  0.32123853
  H -3.32517337  1.95495484  0.51355370
