21
opt_min/./Reactant_2079_1_opt.xyz
  C  2.96519900 -2.18870100 -0.04289200
  C  1.91977579 -1.17769175  0.33675643
  O  1.99947518 -0.48601569  1.32778890
  C  0.77947055 -1.06245210 -0.59323674
  C -0.13270898 -0.09476568 -0.45608914
  C -1.25981667  0.00225986 -1.44400983
  C -1.61791074  1.40683714 -1.82705734
  O -1.79893630 -0.98380261 -1.87553618
  C -0.04520965  0.96602878  0.60064228
  C -0.74904716  0.57644753  1.87280231
  O  0.46099316  2.03644865  0.39446065
  H  3.65166870 -1.71264440 -0.74325310
  H  2.52907628 -3.05647062 -0.52810667
  H  3.53349040 -2.48575677  0.83432366
  H  0.69008352 -1.79219657 -1.38606859
  H -2.24902235  1.41485112 -2.71095196
  H -0.71377594  1.98897764 -1.99363834
  H -2.15562411  1.87393180 -1.00190503
  H -0.56193762  1.31179937  2.64910061
  H -0.40790146 -0.40332807  2.19714338
  H -1.82021872  0.51410459  1.68049033
