23
opt_min/./Reactant_1737_0_opt.xyz
  C  4.14610500 -0.15840300  1.03975600
  N  3.02623183  0.07239872  0.16033848
  C  1.74708810 -0.06284255  0.59102384
  O  1.46669320 -0.36698169  1.74499737
  C  0.68472213  0.14559314 -0.40104100
  C  0.93859247  0.45511342 -1.83927148
  N -0.52490302  0.03103413  0.10787906
  C -1.74790725  0.14597100 -0.39530236
  C -2.85243657 -0.08656858  0.48346482
  C -4.23416525  0.01807714 -0.12914105
  O -2.68857666 -0.38607061  1.66123449
  H  4.93362152  0.56765148  0.84301608
  H  3.79240078 -0.05368924  2.06518712
  H  4.54687960 -1.16847592  0.91267993
  H  3.21415207  0.32551640 -0.79445200
  H  0.02351225  0.35264350 -2.41732883
  H  1.29843878  1.48067239 -1.95767279
  H  1.67982927 -0.22427187 -2.25985046
  H -0.50199644 -0.20286602  1.11892184
  H -1.88414647  0.41280649 -1.42963923
  H -4.65909913 -0.98224626 -0.20265771
  H -4.21016534  0.47169786 -1.11551995
  H -4.87505202  0.59952993  0.53018435
