42
opt_min/./Reactant_3209_1_opt.xyz
  C  3.16529000  1.27906700 -2.63461800
  O  2.11940865  0.71519713 -1.86986245
  C  2.49231199  0.26318663 -0.61730738
  O  3.64398905  0.35656410 -0.24371462
  C  1.37165169 -0.23470745  0.10536948
  C  1.36304580 -0.58832085  1.49409622
  C  2.68046058 -0.57812956  2.22204962
  O  0.32266379 -0.96456367  2.03749249
  N  0.16363032 -0.52652282 -0.54040243
  C  0.20389659 -1.45387832 -1.65349582
  C -0.96252690 -0.24271959  0.07510372
  C -2.19272530 -1.01193785 -0.17134907
  C -3.35991302 -0.35578307 -0.56108107
  C -4.52644468 -1.06991314 -0.76330521
  C -4.54687215 -2.43968253 -0.55645843
  C -3.39711943 -3.09449169 -0.14275673
  C -2.22290467 -2.38959719  0.04326130
  C -1.10308889  0.94941931  0.91253090
  C -2.00204778  0.95322300  1.97893968
  C -2.16569097  2.09065750  2.74737008
  C -1.45321317  3.23974998  2.45124151
  C -0.57176118  3.24995356  1.38007744
  C -0.38810117  2.11421811  0.61830893
  H  3.57637141  2.15953176 -2.13562761
  H  2.72749485  1.55473785 -3.59035213
  H  3.97099018  0.55395335 -2.77437740
  H  3.07835887  0.43213297  2.22051237
  H  2.52844054 -0.91962510  3.24138148
  H  3.39839043 -1.21281204  1.71299343
  H  0.39419119 -2.46933605 -1.30412693
  H  1.01497832 -1.15771149 -2.31297796
  H -0.73872089 -1.42806765 -2.19578670
  H -3.34393997  0.71298577 -0.71638427
  H -5.42230343 -0.55527445 -1.07630157
  H -5.45906089 -2.99771764 -0.70747766
  H -3.42024453 -4.15888111  0.03815450
  H -1.33839597 -2.89189354  0.40250852
  H -2.53724002  0.04824901  2.21856802
  H -2.85156454  2.07311811  3.58118371
  H -1.58149692  4.12680311  3.05437272
  H -0.02585451  4.15168434  1.14430666
  H  0.28934224  2.12823917 -0.22172095
