30
opt_min/./Reactant_1971_1_opt.xyz
  C  2.55433600 -2.70929800  0.83689200
  N  1.77339211 -1.50533823  0.71855523
  C  2.24738397 -0.39263258  0.10558169
  O  3.34668345 -0.33944678 -0.41346484
  C  1.32484194  0.75166714  0.10232741
  C -0.00408116  0.89383939  0.20494758
  C -1.09964421 -0.05697741  0.27239587
  C -1.09638787 -1.19439133 -0.53792366
  C -2.14850323 -2.08865363 -0.49042890
  C -3.21396285 -1.86762400  0.36799219
  C -3.22630290 -0.74183535  1.17450474
  C -2.18207036  0.16263647  1.12426313
  C -0.22153001  2.42126090  0.11109329
  C  0.08122161  2.75606681 -1.35000807
  C  1.39126932  2.61038190 -1.46248326
  C  1.85474934  2.18778196 -0.06862143
  O  0.94487100  2.90148027  0.75497079
  H  1.99371284 -3.56482427  0.45645477
  H  3.45851853 -2.57125133  0.24631880
  H  2.83174881 -2.89893948  1.87680326
  H  0.87174796 -1.47746309  1.16600149
  H -0.27128314 -1.35475773 -1.21625609
  H -2.14034228 -2.96103953 -1.12713349
  H -4.03454622 -2.56862399  0.40570995
  H -4.05477093 -0.56568428  1.84509278
  H -2.18756816  1.03373880  1.76236889
  H -1.13075401  2.82528823  0.54038868
  H -0.66533208  3.01162830 -2.07405197
  H  2.04472765  2.71610496 -2.30300987
  H  2.89180902  2.35163018  0.19529939
