28
opt_min/./Reactant_2627_0_opt.xyz
  C  3.61050372 -0.80576887  0.45082821
  O  2.26150102 -0.42634049  0.23283789
  C  1.30263285 -1.25773767  0.70878643
  O  1.56213729 -2.29950462  1.28549574
  C -0.01599408 -0.73606374  0.42884211
  C -0.10490553  0.57166354 -0.25260748
  C -0.60629441  0.66043043 -1.55052869
  C -0.65447419  1.88004540 -2.19923089
  C -0.20384706  3.02597281 -1.56586590
  C  0.30265654  2.94492051 -0.27941216
  C  0.35392596  1.72741395  0.37300584
  N -1.13551706 -1.40798389  0.74812368
  C -2.41389427 -0.74436347  0.53946199
  C -1.18104295 -2.63527939  1.25276156
  C -2.36729432 -3.26497737  1.58445691
  N -3.33161541 -3.82741223  1.87791501
  H  4.05644398 -0.12905944  1.18114093
  H  4.13669250 -0.72339067 -0.49932592
  H  3.65485499 -1.83127968  0.82201788
  H -0.93794623 -0.23289892 -2.05904383
  H -1.04021384  1.93569687 -3.20653634
  H -0.24071109  3.97716190 -2.07454602
  H  0.65909128  3.83493807  0.21765074
  H  0.74818538  1.66523112  1.37652218
  H -2.80399385 -0.97180628 -0.45271848
  H -2.29923630  0.33360007  0.63453506
  H -3.13135641 -1.10471227  1.27608775
  H -0.25810008 -3.16672424  1.42712040
