21
opt_min/./Reactant_5140_1_opt.xyz
  C -2.66641033  0.50286101  1.71378597
  O -1.34579339  0.50717021  1.18658360
  C -0.93894969 -0.57770570  0.50995379
  O -1.60668422 -1.57675288  0.38404688
  C  0.41679189 -0.38166564 -0.00944005
  N  1.05280072  0.79143086 -0.03315120
  C  0.75865086  2.07492490  0.10824374
  C -0.49399021  2.66760327  0.35245781
  N -1.46062629  3.27917129  0.46207523
  C  1.80409213  3.00919570 -0.05986588
  N  2.64150584  3.78314545 -0.18458484
  C  1.34334597 -1.46145823 -0.42406175
  C  0.88096584 -2.87553110 -0.48989359
  O  2.48423131 -1.12434983 -0.71658708
  H -3.00775131  1.53573695  1.68295131
  H -2.64727709  0.13451618  2.74056537
  H -3.30684586 -0.13979761  1.10765256
  H  2.03171714  0.58973990 -0.35305335
  H -0.15398591 -2.98588877 -0.19122383
  H  1.01816122 -3.23700436 -1.50845774
  H  1.52414938 -3.48079852  0.14832986
