28
opt_min/./Reactant_2759_1_opt.xyz
  C  1.34867600  1.83017400  2.84585300
  O  0.67431456  0.94156496  1.95914802
  C  0.62011697  1.27107965  0.67589077
  O  1.06172780  2.27964787  0.19215706
  C -0.02504839  0.17928884 -0.12739147
  C  0.98200766 -0.67351016 -0.83908030
  O  0.74204889 -1.31145958 -1.82951278
  O  2.17000971 -0.60152703 -0.24674733
  C  3.22181574 -1.35909787 -0.83633475
  C -1.32537443 -0.08878355 -0.29782299
  C -2.48869521  0.67297126  0.25677131
  C -2.21322143  2.00606726  0.88852134
  O -3.60605325  0.22351257  0.16723951
  C -1.74312975 -1.35075451 -1.04622463
  C -2.33764259 -1.08911840 -2.39450345
  O -1.64612112 -2.41986390 -0.51276458
  H  1.64485160  2.73459846  2.31103585
  H  0.66768211  2.07497661  3.66060064
  H  2.22871542  1.32072404  3.23846867
  H  4.15006445 -0.96265317 -0.43224505
  H  3.19463817 -1.25895497 -1.92262854
  H  3.10933598 -2.41237535 -0.57064968
  H -1.82659365  1.83878076  1.89348594
  H -3.14699437  2.55995322  0.97497697
  H -1.49276239  2.58568702  0.31960379
  H -2.54482384 -2.02800170 -2.90073037
  H -1.65076134 -0.49135515 -2.98852408
  H -3.26356250 -0.53192946 -2.25667349
