20
opt_min/./Reactant_4328_1_opt.xyz
  C  1.62469461  1.44269800 -1.31547599
  C  1.77453881 -0.07827039 -1.21108682
  O  2.76811872 -0.63318081 -1.64344999
  C  0.68895436 -0.78898215 -0.57279825
  C  0.77367285 -2.18131026 -0.52015262
  N  0.89878980 -3.32616785 -0.51043324
  N -0.35743893 -0.08988811 -0.03532696
  C -1.46408769 -0.47028445  0.55201518
  C -1.81434283 -1.90534528  0.72049358
  C -2.38797345  0.56840643  1.08618135
  H  1.65866881  1.90392999 -0.32785554
  H  2.46858817  1.81635367 -1.88790445
  H  0.70784783  1.73141547 -1.82635376
  H -0.21047475  0.91400986 -0.09965970
  H -1.14859954 -2.37939541  1.44276031
  H -2.83560796 -2.00681640  1.07574582
  H -1.70531737 -2.44409841 -0.21689150
  H -2.02058459  1.57489782  0.89789546
  H -3.37362593  0.46899077  0.63420043
  H -2.51295530  0.44008142  2.16094051
