37
opt_min/./Reactant_2115_0_opt.xyz
  C  0.93827469 -3.02060273  0.24131599
  C -0.09693469 -1.97158708 -0.10394795
  O -1.24857360 -2.28842518 -0.38541788
  C  0.34124695 -0.60261631 -0.02227871
  C  1.69783434 -0.29567651  0.48549395
  C  1.96681694 -0.23765674  1.85039418
  C  3.24608076  0.03199890  2.30049586
  C  4.27000292  0.24901839  1.39332456
  C  4.01200114  0.19051532  0.03487653
  C  2.73379050 -0.08199771 -0.41774850
  N -0.53612804  0.41049408 -0.20027747
  C -0.23133676  1.68955231  0.41789268
  C -1.61457401  0.31477682 -0.99874761
  C -1.57075011 -0.55814896 -2.09833323
  N -1.50814153 -1.12715551 -3.09642599
  C -2.82110076  1.10263223 -0.83512054
  C -3.58233272  1.44712806 -1.95821022
  C -4.75110530  2.16802063 -1.82198989
  C -5.19242575  2.55640732 -0.56711136
  C -4.45992121  2.20273419  0.55367025
  C -3.28827857  1.48304746  0.42687201
  H  1.40458538 -2.81992473  1.20333832
  H  0.45482447 -3.99409688  0.26035998
  H  1.71363308 -3.02263182 -0.52255789
  H  1.17070404 -0.41799638  2.56054153
  H  3.44475779  0.07316435  3.36188059
  H  5.26843926  0.46074741  1.74625846
  H  4.80999827  0.35356358 -0.67583838
  H  2.52823123 -0.13006724 -1.47844121
  H -0.92030609  2.45126704  0.05964583
  H  0.78905133  1.97565419  0.15194233
  H -0.29239750  1.62475254  1.50459667
  H -3.24035724  1.14376131 -2.93642193
  H -5.32398085  2.42700854 -2.70032144
  H -6.10658103  3.12146300 -0.46298670
  H -4.81109900  2.47955533  1.53756452
  H -2.75734571  1.17373656  1.31537671
