22
opt_min/./Reactant_5050_1_opt.xyz
  C  4.83210705  0.24582228 -0.65385028
  O  3.46018372 -0.12173212 -0.72588058
  C  2.58242175  0.73532541 -0.21288131
  O  2.82560949  1.80374199  0.30413369
  C  1.23486004  0.30145331 -0.32896808
  N  0.06805053  0.26674309 -0.17874617
  C -1.18280853 -0.04891624 -0.20007064
  C -2.15479683  0.86759539  0.40202275
  C -1.57037785  2.13328584  0.98495232
  O -3.34229474  0.63069427  0.45762888
  C -1.48731892 -1.35781232 -0.83832428
  C -2.92672849 -1.76583037 -0.87017891
  O -0.59150699 -2.03205569 -1.29920438
  H  5.29748627 -0.07741597 -1.58295431
  H  4.92879513  1.32602732 -0.52829920
  H  5.29665046 -0.26369975  0.19242899
  H -2.33366931  2.90811597  0.97910155
  H -1.30033099  1.93972573  2.02301023
  H -0.68634380  2.47344521  0.45420404
  H -3.00954336 -2.73046050 -1.36479569
  H -3.32154218 -1.82627310  0.14155360
  H -3.51762890 -1.01990018 -1.39696997
