36
opt_min/./Reactant_2938_0_opt.xyz
  C  2.64766500  0.46855200  2.90207200
  N  2.50475452 -0.07526820  1.57901049
  C  1.39795618 -0.02468745  0.85551621
  O  0.28061840  0.57987475  1.29903853
  C  1.22053971 -0.59450836 -0.39071795
  C  2.22788268 -1.33071873 -1.05761108
  C  1.90254090 -1.94703169 -2.39727421
  O  3.34364763 -1.47591232 -0.53738322
  N -0.10993822 -0.26553661 -0.85582819
  C -0.11339255  0.59380888 -2.04571942
  C -0.75006448  0.23728404  0.35193980
  C -1.61610786 -0.87691527  1.03721678
  O -2.23537853 -0.64690307  2.04981421
  N -1.54895629 -2.05731730  0.41637884
  C -2.25049374 -3.22652059  0.88620818
  C -1.69310313  1.43012164  0.15973639
  O -2.77479068  1.33470481 -0.35514362
  O -1.17536041  2.54827690  0.63826060
  C -2.02049155  3.69282257  0.59294928
  H  3.09765008 -0.27520297  3.56046007
  H  1.66399125  0.74156864  3.27945963
  H  3.28372874  1.35737856  2.89021179
  H  3.26419624 -0.55548882  1.08416224
  H  0.84110610 -2.15737624 -2.48498010
  H  2.19049996 -1.25656982 -3.18826846
  H  2.48170622 -2.85844349 -2.51988075
  H -0.82368036  1.41021630 -1.94646496
  H  0.87632722  1.01610834 -2.23257531
  H -0.41247126 -0.00865583 -2.90411276
  H -1.00836540 -2.11069438 -0.43530235
  H -3.14880580 -3.40685236  0.29157396
  H -1.59902562 -4.09738313  0.82903027
  H -2.54276011 -3.04836117  1.91973884
  H -2.25567991  3.94914667 -0.44218202
  H -2.95048113  3.49095121  1.12648059
  H -1.46609887  4.49544117  1.07124066
