28
opt_min/./Reactant_5167_0_opt.xyz
  C -4.93859341  0.37574230 -0.57976063
  N -3.71744084 -0.38805821 -0.67845651
  C -2.51837678  0.14809952 -0.42396768
  O -2.32940843  1.30245254 -0.04652682
  C -1.33635617 -0.74300424 -0.57611724
  C -1.50386762 -2.08488196 -0.91958921
  N -1.83259235 -3.17333451 -1.10811629
  N -0.21838699 -0.09967741 -0.25593154
  C  1.07393924 -0.43212759 -0.29764882
  C  1.46940155 -1.48659712 -1.23894005
  C  2.91985136 -1.83426227 -1.34573696
  O  0.62312524 -1.99962636 -1.95409700
  C  2.03572944  0.40445753  0.45273264
  O  3.24235515  0.35898442  0.29334808
  N  1.48848587  1.22401104  1.39284759
  C  2.33192929  2.08775456  2.18808681
  H -5.76630755 -0.29115316 -0.35293470
  H -4.82449140  1.11262028  0.21476383
  H -5.14563318  0.90517456 -1.51350947
  H -3.76611477 -1.34290833 -0.99987452
  H -0.50046023  0.87443007 -0.01412153
  H  3.50241291 -0.95182823 -1.60003086
  H  3.04525946 -2.60209690 -2.10462680
  H  3.28563957 -2.18771138 -0.38459586
  H  0.50463238  1.23802365  1.59818477
  H  3.28808664  1.58976944  2.34904538
  H  2.52029189  3.03129393  1.66907887
  H  1.85445606  2.28925825  3.14376142
