39
opt_min/./Reactant_2563_0_opt.xyz
  C -3.12993197  0.85114075  0.15651193
  C -2.28591796  0.46416614 -1.06022721
  C -2.73505221  1.26658786 -2.28163910
  C -0.87519411  0.63821488 -0.77362796
  C  0.25903382  0.34511906 -0.52640825
  C  1.44888058 -0.40875961 -0.17058128
  C  2.16374133  0.18439566  1.03264068
  C  1.36627507  0.61982082  2.08792151
  C  1.93458444  1.15049301  3.22940178
  C  3.31171806  1.25545209  3.33246254
  C  4.10872477  0.82717394  2.28724554
  C  3.54203413  0.29245371  1.14104764
  C  2.33863958 -0.46614506 -1.41961128
  F  1.65539696 -0.81883916 -2.52030353
  F  3.34486065 -1.35349260 -1.32701436
  F  2.90199596  0.71852132 -1.70431314
  C  0.92192625 -1.83326430  0.17625169
  C -0.21409829 -2.42245544 -0.68465338
  C -1.67197536 -2.00379304 -0.36318394
  C -2.37515104 -1.05372174 -1.35634891
  H -4.16532841  0.55886137 -0.00089004
  H -3.09204482  1.92706742  0.31268068
  H -2.76392605  0.36303010  1.05635903
  H -2.13706781  1.00114831 -3.15038030
  H -3.78016831  1.06153674 -2.50107480
  H -2.62057167  2.33245905 -2.09676698
  H  0.29183885  0.55060437  1.99754533
  H  1.30226616  1.48483798  4.03844179
  H  3.75938271  1.67139691  4.22249591
  H  5.18312498  0.90719359  2.35776700
  H  4.19587664 -0.03462231  0.34950243
  H  0.58548161 -1.81647137  1.21523002
  H  1.77882417 -2.51101899  0.12329387
  H -0.15555399 -3.49586427 -0.47987582
  H -0.01704710 -2.29847361 -1.74710429
  H -2.25993520 -2.92482790 -0.38961771
  H -1.73315374 -1.62487368  0.65593161
  H -3.43559856 -1.31465250 -1.39277016
  H -1.95585434 -1.23574419 -2.34713610
