9
opt_min/./Reactant_3330_1_opt.xyz
  C -1.87647304  0.15187003  0.04262106
  N -0.72990648 -0.69946419  0.00034476
  N  0.41248932 -0.32383005 -0.03325349
  C  1.57999644 -0.16497835 -0.07495204
  C  2.90935023 -0.03773092 -0.12518015
  N  4.05734367  0.09834006 -0.16635197
  H -1.61579246  1.20849494  0.15288324
  H -2.45191297  0.01978518 -0.87867820
  H -2.50286387 -0.15947837  0.88078164
