35
opt_min/./Reactant_3001_1_opt.xyz
  C  3.23547062  1.73566526  1.13995686
  C  3.27028617  1.53168960 -0.34997681
  O  3.96678688  2.16779601 -1.09005488
  C  2.28521169  0.48301776 -0.86486390
 Br  2.57492356  0.29659335 -2.81862452
  C  0.93189270  0.90098221 -0.64572369
  C -0.24516962  0.85286422 -0.42863481
  C -1.54884039  0.25722238 -0.23032361
  C -2.54516272  0.90478334 -1.20294444
  C -3.92448346  0.31419092 -1.34047937
  O -2.19879177  1.84074760 -1.87394648
  C -1.84321242  0.27322007  1.27505803
  C -3.26376514  0.08727820  1.72861456
  O -0.93867799  0.39886645  2.06037953
  C -1.31039730 -1.22831604 -0.65393293
  C -0.12026658 -2.00209608 -0.05100013
  C  1.33289244 -1.95683145 -0.58420833
  C  2.37244440 -0.88982093 -0.19023792
  H  2.21405760  1.70570726  1.51543142
  H  3.70203455  2.68819834  1.38252433
  H  3.80634636  0.94056384  1.61994656
  H -4.32542275  0.61548622 -2.30729924
  H -4.57582335  0.72305911 -0.57145732
  H -3.92265351 -0.76895426 -1.26347337
  H -3.75244809 -0.73384157  1.21427744
  H -3.26504641 -0.10080847  2.80135965
  H -3.81720413  1.00567887  1.53705063
  H -2.19782377 -1.79854275 -0.36235583
  H -1.23843358 -1.26620687 -1.74374757
  H -0.11064576 -1.87834021  1.03560724
  H -0.39976341 -3.04330243 -0.25745096
  H  1.32453350 -2.07787415 -1.67132052
  H  1.76036283 -2.87290231 -0.15893413
  H  3.34701155 -1.32396791 -0.43769192
  H  2.33283760 -0.75487958  0.89313833
