27
opt_min/./Reactant_2501_1_opt.xyz
  C  2.32851710 -0.14610022 -3.14840667
  N  1.57542015 -0.46375088 -1.95714948
  C  0.60668675 -1.39754120 -1.96325427
  O  0.29060320 -2.03712681 -2.93604482
  C -0.12240526 -1.58994748 -0.61759109
 Br -0.36902203 -3.55242904 -0.43452044
  C -1.39684841 -0.91949205 -0.61883067
  C -2.21799643 -0.13291935 -0.22674052
  C -2.77048903  0.82493487  0.71253223
  F -2.57336178  2.10766338  0.28704086
  F -4.11015004  0.71483860  0.90496252
  C -2.02136054  0.55778960  2.03221769
  C -0.52251965  0.91119351  2.04555299
  C  0.40792649  0.45951267  0.90074869
  C  0.54944745 -1.06368355  0.67714624
  H  2.24539851  0.91710893 -3.37574568
  H  3.38058638 -0.40678975 -3.02058854
  H  1.91196481 -0.72835245 -3.96839493
  H  1.80346183  0.04142031 -1.11823388
  H -2.17021886 -0.49887640  2.26088986
  H -2.51355592  1.14722761  2.80946798
  H -0.12490064  0.51236619  2.98201695
  H -0.43701535  1.99888818  2.09582574
  H  0.08338172  0.95249445 -0.01656543
  H  1.39030454  0.86349454  1.16127180
  H  1.60065549 -1.36387435  0.66892217
  H  0.07665254 -1.58273203  1.51380568
