37
opt_min/./Reactant_2787_0_opt.xyz
  C  2.40772600 -0.11997600 -3.45322300
  C  2.71162636 -1.21206636 -2.44526581
  O  3.58043957 -2.03956527 -2.62865687
  C  1.85289126 -1.20550061 -1.26496726
  O  1.04257218 -0.14915262 -1.15769361
  C -0.05179463 -0.03322779 -0.46118093
  C -0.63692353  1.29062182 -0.44441964
  C -1.99400557  1.48301882 -0.15210053
  C -2.53801998  2.75105592 -0.15933237
  C -1.74998069  3.85135595 -0.46392891
  C -0.40904428  3.67392554 -0.76618319
  C  0.14497932  2.41100505 -0.75667200
  C -0.70453684 -1.15603358  0.21466222
  C -1.19357171 -1.01814275  1.51646302
  C -1.83781235 -2.07346541  2.13470273
  C -2.01165157 -3.27262882  1.46337974
  C -1.53823950 -3.41454071  0.16817990
  C -0.88475955 -2.36964427 -0.45370977
  C  2.06768253 -2.20521131 -0.21525271
  C  2.07703995 -1.67367304  1.20817465
  O  2.33218540 -3.36241408 -0.45627152
  H  1.38041280 -0.20026131 -3.80306306
  H  3.08611382 -0.22065924 -4.29562158
  H  2.53418346  0.85858638 -2.99523575
  H -2.62162733  0.62988345  0.05573334
  H -3.58547172  2.88313332  0.06621477
  H -2.18389952  4.83968354 -0.46686666
  H  0.20590574  4.52901018 -1.00458878
  H  1.19446818  2.28044839 -0.97318409
  H -1.03889740 -0.08861197  2.04449163
  H -2.20194211 -1.95859814  3.14495415
  H -2.51390020 -4.09538605  1.94916034
  H -1.67670320 -4.34497614 -0.36048793
  H -0.52848398 -2.49071755 -1.46545936
  H  1.14449091 -1.92016856  1.71496845
  H  2.22720225 -0.59675348  1.24611189
  H  2.88302694 -2.17010781  1.74376283
