23
opt_min/./Reactant_4782_0_opt.xyz
  C  4.76655700  0.14987900  0.46984000
  N  3.36040104  0.31298709  0.18982501
  C  2.46931768 -0.67758753  0.48801805
  O  2.80519731 -1.73228142  0.98338976
  N  1.13438000 -0.45507493  0.20447749
  O  0.84543407  0.76033615 -0.29195633
  C -0.35258553  1.11030391 -0.60656336
  C -1.57384596  0.37755584 -0.54396626
  C -2.75315360  1.00860639 -0.97791117
  C -3.95734036  0.34180032 -0.94217664
  C -4.01605975 -0.96492190 -0.47513600
  C -2.86114772 -1.59824549 -0.04349209
  C -1.64480638 -0.94437661 -0.07213801
  H  5.31197702  1.01848999  0.11059947
  H  4.92786468  0.03372828  1.54477692
  H  5.14056906 -0.75059872 -0.02315930
  H  3.04459307  1.17573655 -0.22068277
  H -0.37338387  2.13203342 -0.97270351
  H -2.70599159  2.02482434 -1.34148539
  H -4.85711405  0.83510567 -1.27777057
  H -4.96219662 -1.48479410 -0.44889634
  H -2.90600373 -2.61382942  0.31993559
  H -0.74409314 -1.43229846  0.26315265
