23
opt_min/./Reactant_935_0_opt.xyz
  C -3.57755500 -0.53195800 -0.06956900
  N -2.47164235  0.35493248  0.03993171
  N -1.34016351 -0.19086645  0.14919333
  C -0.15502182  0.39227201  0.33391902
  C  1.05526379 -0.45994592  0.30419596
  O  1.98451509 -0.35493145  1.07349107
  N  1.02502852 -1.41887458 -0.67073586
  C  2.14332958 -2.31333464 -0.87511371
  C -0.07377610  1.81134204  0.68949425
  O -1.00476190  2.50157382  1.02781983
  O  1.19306321  2.25623975  0.60402850
  C  1.40335277  3.59963835  1.00469114
  H -3.28087329 -1.55008084 -0.37719003
  H -4.27714681 -0.11281721 -0.78927471
  H -4.09057661 -0.60132977  0.89305134
  H -1.28062803 -1.23250235  0.06534162
  H  0.36387270 -1.35879074 -1.42715572
  H  2.49973322 -2.26130167 -1.90322483
  H  1.85949580 -3.34339686 -0.64529943
  H  2.93970812 -2.00717051 -0.19831458
  H  1.01310387  4.28443806  0.24810080
  H  2.47862242  3.71927118  1.10900761
  H  0.89991527  3.79722217  1.95309366
