29
opt_min/./Reactant_839_0_opt.xyz
  C  4.23532700  0.29956900 -0.82238000
  C  2.72912890  0.22809423 -0.80321230
  O  2.04188924  0.71734274 -1.71482968
  C  2.08583709 -0.40961044  0.30454762
  C  2.83434040 -0.95082544  1.48077259
  N  0.74446967 -0.38180265  0.15790953
  C -0.32866012 -0.87260274  0.74922569
  C -0.21019559 -1.84771099  1.87939740
  C -1.62294783 -0.42982824  0.26457790
  C -2.79442965 -1.17139619  0.47015646
  C -4.01374913 -0.73307095 -0.00331672
  C -4.11369856  0.46210537 -0.69568332
  C -2.97061056  1.21765053 -0.90364142
  C -1.74930448  0.78647452 -0.43063394
  H  4.58480525  0.96796964 -0.03748277
  H  4.56168482  0.68694937 -1.78309103
  H  4.66678155 -0.68405463 -0.65759844
  H  2.20663186 -0.98951061  2.36364918
  H  3.22922848 -1.95042477  1.28581765
  H  3.68115875 -0.30584943  1.70528701
  H  0.57578395  0.14914285 -0.72003461
  H -1.08235328 -2.49130898  1.92071844
  H  0.66489020 -2.47748738  1.74790087
  H -0.14034596 -1.33769842  2.84135877
  H -2.75649688 -2.11927412  0.98412869
  H -4.89648521 -1.33259625  0.16614632
  H -5.06978245  0.80190399 -1.06379518
  H -3.03414530  2.15763157 -1.43192434
  H -0.88785216  1.42182342 -0.57865834
