14
opt_min/./Reactant_615_0_opt.xyz
  C  0.51124800  1.26606400  0.17572600
  C  0.05221954  0.02614108  0.02955896
  O  0.75817211 -1.06163062 -0.37778635
  C  2.14010152 -0.90726550 -0.58868907
  O -1.21791438 -0.39732351  0.26566578
  C -2.18601120  0.56941930  0.58485415
  H -0.11330015  2.06578072  0.51798876
  H  1.52982439  1.51667033 -0.04365492
  H  2.51018701 -1.89915053 -0.83886749
  H  2.34453900 -0.22072468 -1.41732542
  H  2.64373372 -0.53931526  0.31092308
  H -3.13143873  0.03271127  0.64805888
  H -2.25478363  1.33903733 -0.19013696
  H -1.97659908  1.04357830  1.54970973
