23
opt_min/./Reactant_350_1_opt.xyz
  C  0.76378200  2.21396700  0.26624500
  C  0.27523623  0.86752808 -0.11720477
  C  0.91255562 -0.30770805 -0.14006784
  C  2.31421243 -0.64358659  0.19994536
  F  3.05363239  0.40405801  0.60028666
  F  2.97525064 -1.19019672 -0.84513058
  F  2.39389987 -1.55405029  1.19569218
  C -0.09048373 -1.38642089 -0.49460446
  C -1.00019461 -1.52422321  0.74762301
  C -1.74204007 -0.17021479  0.77081546
  C -1.16469392  0.56509694 -0.46109966
  C -0.99939946 -0.60148694 -1.44488855
  H  0.05772285  2.98018588 -0.03713869
  H  1.72700037  2.43041615 -0.18660822
  H  0.89366973  2.28499469  1.34429158
  H  0.32846523 -2.32050414 -0.86550962
  H -0.41803324 -1.69140922  1.65003627
  H -1.68857267 -2.35645001  0.62450335
  H -2.81365177 -0.30768676  0.65417571
  H -1.56619927  0.38100596  1.68916073
  H -1.74012775  1.42332898 -0.80591681
  H -0.49500451 -0.30711598 -2.36122807
  H -1.93093911 -1.11487997 -1.66337294
