23
opt_min/./Reactant_930_1_opt.xyz
  N -2.85579179  2.18589564 -0.98284307
  C -2.13193459  1.41990378 -0.54451757
  C -1.20676345  0.45230350 -0.00003762
  C  0.14841932  0.95341282  0.08997125
  C  1.34330312  0.97108780 -0.02325814
  C  2.62989514  0.33074646 -0.26905860
  C  3.41003742  1.03288065 -1.26992332
  N  4.00346256  1.58930218 -2.07010085
  C  3.39503430  0.24450474  0.96507893
  N  3.96970252  0.17026303  1.94821061
  C  2.23266159 -1.09878254 -0.76951133
  C  1.19224358 -1.77519582  0.14246106
  C -0.24344058 -1.94806531 -0.39923712
  C -1.05324857 -0.76397737 -0.95403632
  H -1.56767506  0.13608936  0.98710015
  H  3.14334282 -1.69991787 -0.81723990
  H  1.83714260 -1.00151046 -1.78272614
  H  1.53904700 -2.79144629  0.34699857
  H  1.16173186 -1.26427249  1.10626758
  H -0.20627813 -2.68252996 -1.20858678
  H -0.81929985 -2.39805832  0.41405516
  H -0.59710931 -0.40208218 -1.87849820
  H -2.04956689 -1.13840670 -1.20231891
