27
opt_min/./Reactant_2651_1_opt.xyz
  C  3.97398874 -0.83817779 -1.46361547
  N  2.71528363 -0.87142649 -0.75974402
  C  2.20622465  0.20893113 -0.14473941
  O  2.73492844  1.29441637 -0.09628776
  C  0.85872307 -0.07011021  0.53434857
 Br  1.31968718 -1.10825807  2.19466444
  C -0.08437583 -0.82902379 -0.22828517
  C -1.14435019 -1.14600234 -0.69876252
  C -2.55956257 -1.14987491 -0.90621585
 Cl -2.94265072 -0.27776834 -2.43272885
 Cl -3.24722690 -2.79910222 -1.02031981
  C -3.15505921 -0.39896388  0.29450933
  C -2.50764652  0.96919682  0.59324182
  C -1.28409381  1.01345593  1.54220068
  C  0.11350058  1.20976146  0.92900825
  H  3.81633843 -0.80591063 -2.54400884
  H  4.56574176 -1.71698544 -1.21146677
  H  4.50310756  0.06217602 -1.15567022
  H  2.19453684 -1.73570023 -0.76262886
  H -3.05713474 -1.04460221  1.17006613
  H -4.21847475 -0.25749881  0.09546586
  H -3.29229812  1.54760907  1.08481773
  H -2.27504508  1.48166560 -0.34039491
  H -1.28908725  0.13787883  2.19321224
  H -1.43345506  1.88266361  2.18635802
  H  0.03751010  1.82242946  0.02663562
  H  0.75086480  1.74946295  1.63263585
