21
opt_min/./Reactant_2817_1_opt.xyz
  C  3.79759000  0.17115100 -0.01069900
  N  2.45446145 -0.27844346  0.25182120
  C  1.39365980  0.14442329 -0.47232463
  O  1.47847247  0.79207321 -1.50000938
  N  0.22588397 -0.25546035  0.16685768
  N -0.91916963 -0.28850739 -0.38229214
  C -1.12612407 -0.17373004 -1.83147101
  N -1.92011672 -0.49440099  0.35014367
  C -3.24530808 -0.62912135  0.04543221
  C -4.06706327  0.57487298  0.46062389
  O -3.72617931 -1.65218992 -0.38035665
  H  4.10688943  0.94329571  0.69735230
  H  4.48869309 -0.66966449  0.05245837
  H  3.81805603  0.58134496 -1.01831744
  H  2.24512692 -0.68108166  1.15191713
  H -0.29538548  0.37261513 -2.27617358
  H -2.06829731  0.33747612 -2.01635356
  H -1.17923248 -1.17955930 -2.24703381
  H -4.82992192  0.25757815  1.16590775
  H -3.44619124  1.34308292  0.91103177
  H -4.57020203  0.96853360 -0.42020219
