28
opt_min/./Reactant_2357_1_opt.xyz
  C -1.97028300  3.05231000  0.95091400
  O -1.10323654  2.04847283  0.44281535
  C -1.21821422  0.83601750  1.01007423
  O -2.00473741  0.59815510  1.89452543
  C -0.31071609 -0.16816816  0.44048916
  C  0.81975822 -0.07548580 -0.28700453
  C  1.66810408  1.04577720 -0.72789763
  C  1.91606936  2.14222764  0.27563554
  O  2.18464946  1.03586689 -1.82250077
  C  1.15331934 -1.48374334 -0.74177525
  C  0.06182669 -1.84693371 -1.77618931
  C -1.20843357 -1.95571399 -0.91872041
  C -0.68880636 -1.63031637  0.50407521
  C  0.69041192 -2.28977864  0.47212571
  H -1.80219792  3.93726269  0.34271304
  H -3.00988135  2.72716147  0.87623690
  H -1.74036581  3.25570111  1.99904282
  H  1.08924603  2.84624021  0.22042980
  H  1.95925119  1.74212865  1.28508969
  H  2.83700326  2.66372406  0.03128324
  H  2.16818775 -1.61434242 -1.10320393
  H  0.30858807 -2.80053971 -2.24220855
  H -0.00617808 -1.09227786 -2.55697967
  H -1.98830954 -1.26065582 -1.22711584
  H -1.62516044 -2.96215481 -0.94314752
  H -1.37549176 -1.88878693  1.30340816
  H  0.65078365 -3.36202149  0.29275273
  H  1.27980045 -2.09160717  1.36690249
