23
opt_min/./Reactant_4566_1_opt.xyz
  C -1.33147600 -1.62945800 -0.64406700
  C -0.84547571 -0.28744263 -0.18663257
  C  0.59023622 -0.05089941 -0.09428688
  C  1.14762909  1.20589425 -0.34593520
  C  2.51332979  1.39709427 -0.28890180
  C  3.35809445  0.34919939  0.03900491
  C  2.82078885 -0.89696431  0.30955803
  C  1.45718234 -1.09928156  0.24028953
  N -1.73186299  0.65130696  0.12180245
  C -3.14861597  0.29473775  0.01390376
  N -1.39867133  1.83685103  0.52068846
  H -2.02081377 -1.54448371 -1.48644354
  H -1.84787461 -2.17511658  0.15152431
  H -0.48779438 -2.22754067 -0.97330801
  H  0.49994259  2.03057662 -0.58947510
  H  2.92565833  2.37405184 -0.49993953
  H  4.42598213  0.50472590  0.09227386
  H  3.47005964 -1.71815904  0.58132095
  H  1.05535822 -2.07149148  0.48601486
  H -3.38170905 -0.55526839  0.65607977
  H -3.75745763  1.14661214  0.31988179
  H -3.39581349  0.04160996 -1.01728951
  H -2.21659719  2.38674541  0.77686994
