24
opt_min/./Reactant_4870_1_opt.xyz
  C -1.77016200 -3.09182200  0.60654400
  N -0.56557265 -2.40329703  0.31107536
  N -0.64678289 -1.14755445  0.24314453
  C  0.34035303 -0.25735049  0.09737313
  C  1.74799095 -0.71788998  0.17921616
  O  2.04708030 -1.89898226  0.17607880
  N  2.65538888  0.27928574  0.26642284
  C  4.06518310  0.01457899  0.37648852
  C -0.03650695  1.14619322 -0.08446497
  O  0.66534158  2.09732950  0.23844005
  N -1.27291485  1.34660696 -0.64358200
  C -1.76594198  2.68251628 -0.89855080
  H -1.95563413 -3.82851931 -0.17679357
  H -1.63980673 -3.63708601  1.54297821
  H -2.64570364 -2.42533683  0.69124665
  H -1.59239097 -0.71832517  0.37218452
  H  2.31502523  1.23234499  0.29900277
  H  4.60856673  0.46269975 -0.45962408
  H  4.19814411 -1.06540925  0.35684706
  H  4.46147055  0.41789799  1.30981639
  H -1.69146785  0.61048851 -1.18818207
  H -2.74045022  2.81915297 -0.42943401
  H -1.84911016  2.87072052 -1.96945552
  H -1.05133738  3.37934274 -0.46488943
