19
opt_min/./Reactant_5006_1_opt.xyz
  C -4.28414500 -0.63430400  0.10255100
  O -3.03998627  0.00360929  0.39045900
  C -1.93155507 -0.60589020 -0.00066885
  O -1.84487025 -1.65407534 -0.58444688
  C -0.74363759  0.19979551  0.38249480
  O -0.78129967  1.33999944  1.01870649
  C  0.58549277  1.79059887  1.20000706
  O  0.83274629  2.81159332  1.75272064
  C  1.33292459  0.73242345  0.57093123
  C  2.77806219  0.56810150  0.40175393
  C  3.16197406 -0.67782831 -0.35527419
  O  3.57021726  1.37006280  0.83171946
  O  0.46321920 -0.18179375  0.10779309
  H -4.11050908 -1.58672134 -0.39915555
  H -4.80152501 -0.78647000  1.04948774
  H -4.86452485  0.03262726 -0.53500778
  H  4.21560554 -0.88870729 -0.19096691
  H  2.54925980 -1.52553934 -0.06546750
  H  3.01400820 -0.48989926 -1.41909962
