21
opt_min/./Reactant_1575_0_opt.xyz
  C  2.69050026 -0.42164703  2.27604153
  O  1.53170998  0.13477580  1.68079605
  C  1.01904113 -0.52184315  0.60949733
  O  1.52448502 -1.54641799  0.18382561
  C -0.13553731  0.16271731  0.07338086
  C -0.57640040  1.44925235  0.69287617
  N -0.79727474 -0.30671508 -0.99420379
  C -0.51030669 -1.64368194 -1.48236016
  C -1.73963922  0.35468676 -1.66832908
  C -2.11011962  1.68578789 -1.57697774
  N -2.47433488  2.77953922 -1.63659769
  H  2.76812021 -1.48223400  2.02842918
  H  3.57580880  0.10202275  1.90838087
  H  2.59875542 -0.28428036  3.35171579
  H -0.14998112  1.54101791  1.68617769
  H -0.26284330  2.31330024  0.10679441
  H -1.66368726  1.47432159  0.76785488
  H -1.24463871 -1.93653318 -2.22889602
  H  0.48591949 -1.67706925 -1.92233731
  H -0.52405967 -2.35516850 -0.65876872
  H -2.26319588 -0.19099823 -2.43988216
