19
opt_min/./Reactant_454_0_opt.xyz
  C  2.27805500 -0.99915500 -0.32267500
  O  1.28175133 -0.53291497  0.56059668
  C  0.26493561  0.19821134 -0.04891621
  C  0.66559000  1.53847641 -0.61183428
  C -0.97741505 -0.28274253 -0.05684132
  C -2.13009484  0.48837476 -0.62960835
  C -1.32749306 -1.61023823  0.54618199
  H  2.98524010 -1.57058149  0.27488743
  H  2.80644532 -0.17684294 -0.81972463
  H  1.83518540 -1.65002826 -1.08887013
  H  1.67110982  1.78079691 -0.27266292
  H  0.65065868  1.53130072 -1.70363172
  H -0.01494936  2.31261987 -0.26249903
  H -1.80849830  1.18527355 -1.40137878
  H -2.85663387 -0.19839648 -1.06179217
  H -2.63303661  1.05801766  0.15418313
  H -0.46253704 -2.04578068  1.04017225
  H -2.13252614 -1.48873777  1.27034705
  H -1.67459646 -2.29651016 -0.22975814
