22
opt_min/./Reactant_732_0_opt.xyz
  C  3.68380936  1.28208978  0.57906963
  N  2.27720610  0.94227185  0.59638174
  C  1.63827130  0.53589016 -0.53269632
  O  2.14607376  0.52606004 -1.62617530
  C  0.19449345  0.17638281 -0.28824536
  N -0.55946180  1.12843465  0.20923196
  N -1.83991380  1.08581276  0.46411256
  C -2.45672986  2.12092373  0.95642436
  N -3.11461546  2.95561829  1.40251830
  C -0.27187933 -1.17598585 -0.72669544
  O  0.52152725 -2.02755979 -1.07308413
  N -1.60857921 -1.34807349 -0.69112698
  C -2.22850055 -2.56618821 -1.14480378
  H  4.03308909  1.18247667 -0.44729409
  H  3.82892161  2.31104616  0.91299365
  H  4.25351652  0.61157528  1.22232721
  H  1.86889633  0.77207249  1.50240250
  H -0.06920118  2.02038283  0.38444132
  H -2.18816354 -0.60333085 -0.32379927
  H -1.43648153 -3.27306718 -1.38764289
  H -2.86514926 -2.98101798 -0.36220529
  H -2.83285894 -2.38272037 -2.03546208
