35
opt_min/./Reactant_2731_0_opt.xyz
  C -4.22555496  0.57213001  2.36594007
  N -3.08398723 -0.05464711  1.74152254
  C -2.03702856  0.69477699  1.31291691
  O -2.00967656  1.90969903  1.40686233
  C -0.94430471 -0.06912263  0.67165071
  O -0.04380829  0.70458418  0.13597938
  C  1.10754176  0.42273945 -0.42341001
  C  1.63211525 -0.87264975 -0.52712818
  N  2.12588345 -1.91066558 -0.61543693
  C  1.88268398  1.54737502 -0.92338837
  C  3.11139134  1.34350362 -1.55902567
  C  3.83575450  2.41981896 -2.02988760
  C  3.35284405  3.71056676 -1.87893461
  C  2.13520736  3.92063657 -1.24911854
  C  1.40183748  2.85324742 -0.77427419
  C -0.91547503 -1.53523317  0.60203793
  C -0.94497731 -2.30812190  1.76399646
  C -0.93348203 -3.68743453  1.68076050
  C -0.90349374 -4.31263441  0.44521553
  C -0.88658713 -3.55308769 -0.71304175
  C -0.89064112 -2.17395474 -0.63937124
  H -4.92936712 -0.19072433  2.68314446
  H -4.71316297  1.25441470  1.66648916
  H -3.90076153  1.15602385  3.22926200
  H -3.08264056 -1.04891839  1.59701856
  H  3.49072829  0.33926717 -1.67737796
  H  4.78375278  2.25170998 -2.51856624
  H  3.92345782  4.54821083 -2.24979360
  H  1.75583120  4.92457532 -1.12747869
  H  0.45651342  3.01947187 -0.27956989
  H -0.94855262 -1.81856586  2.72712977
  H -0.94049603 -4.27597115  2.58623256
  H -0.89033726 -5.38965535  0.38566265
  H -0.86458515 -4.03584645 -1.67757073
  H -0.88778999 -1.58576152 -1.54608857
