27
opt_min/./Reactant_1263_0_opt.xyz
  C -2.95712000  1.89555200 -0.48048400
  N -2.53799668  0.53137636 -0.25651882
  C -1.45852283  0.04188868 -0.92130589
  O -0.96276972  0.57583716 -1.89333662
  C -1.06316766 -1.33865018 -0.51995987
  C -2.10504817 -2.40008193 -0.37890300
  N  0.20932258 -1.68836259 -0.50634534
  C  1.31099919 -0.91820377 -0.38023287
  C  2.62405160 -1.57540854 -0.67678148
  C  1.20884803  0.36564080  0.23012259
  O  0.18208118  0.84394194  0.69752623
  O  2.41414018  0.99116284  0.33342203
  C  2.41600146  2.25876182  0.96123871
  H -2.35096292  2.60021349  0.09447000
  H -2.82966992  2.11505271 -1.53905989
  H -4.00496751  2.00135404 -0.20374505
  H -2.69930910  0.17088171  0.67093184
  H -2.47484531 -2.45514083  0.64799393
  H -1.69748683 -3.37812286 -0.63711863
  H -2.95502102 -2.19008336 -1.02459382
  H  0.40227482 -2.69080411 -0.56285333
  H  2.82600863 -2.39536062  0.01846016
  H  2.63403803 -1.97618661 -1.69029460
  H  3.42056962 -0.84583173 -0.58733910
  H  2.83598376  2.16692277  1.96577371
  H  3.03486074  2.92528902  0.36106052
  H  1.39549713  2.64171429  1.02512248
