18
opt_min/./Reactant_955_0_opt.xyz
  C -2.86998550  0.89688865 -1.33863590
  N -1.59994818  0.75914265 -0.67262578
  C -0.92258451 -0.41636581 -0.65479440
  O -1.31345970 -1.42090365 -1.22352057
  C  0.34964116 -0.40208646  0.10070246
  C  1.19382090 -1.62415989  0.11553886
  O  0.65317276  0.69313471  0.71931744
  C  1.71780968  0.99127459  1.42850181
  C  2.84277030  0.22247489  1.68466155
  N  3.82337275 -0.33919043  1.91911330
  H -2.97818738  0.05085356 -2.01667044
  H -3.69607519  0.87929689 -0.62185109
  H -2.90335306  1.83006376 -1.90029137
  H -1.23817920  1.55105576 -0.16624114
  H  0.61264472 -2.44354101 -0.30070272
  H  2.09302566 -1.49190334 -0.49071641
  H  1.51239312 -1.86434316  1.13064928
  H  1.67461087  1.98462677  1.85468296
