32
opt_min/./Reactant_5519_0_opt.xyz
  C  4.04105221  2.67409779  1.20824780
  N  3.01963213  1.88638999  0.57024956
  C  2.49997244  0.76987574  1.15424848
  O  2.88690977  0.39984694  2.25793003
  C  1.47715744  0.10762432  0.34122038
  C  1.12746759  0.72335554 -0.85629903
  N  0.90436795  1.28014671 -1.84402091
  N  0.84335440 -1.06174937  0.69387594
  C  1.44968347 -1.83021401  1.76391401
  C -0.26812800 -1.46876915  0.09313208
  C -0.59531439 -2.92547158 -0.05543930
  C -1.21190294 -0.53637522 -0.50496162
  C -1.98912330 -0.88833668 -1.61308687
  C -2.96077373 -0.03694800 -2.09998528
  C -3.20335021  1.18027733 -1.48749407
  C -2.45723238  1.53555831 -0.37355416
  C -1.47474292  0.69710092  0.10377377
  H  4.86074478  2.86958760  0.51573411
  H  3.64019861  3.62562408  1.56954958
  H  4.40862649  2.10640475  2.06388313
  H  2.68283934  2.18576931 -0.33105622
  H  2.43846554 -2.18782368  1.47588924
  H  0.81502395 -2.65859671  2.05925995
  H  1.59347113 -1.16793572  2.61964976
  H -0.36854560 -3.21934535 -1.08508359
  H -0.01654390 -3.57724754  0.59024733
  H -1.65502366 -3.10593414  0.11436336
  H -1.80697673 -1.82158072 -2.12357679
  H -3.53378220 -0.32706545 -2.96915023
  H -3.96130503  1.84528451 -1.87247126
  H -2.64093151  2.47738436  0.12251778
  H -0.91737621  0.98804985  0.98486517
