17
opt_min/./Reactant_1357_1_opt.xyz
  F  0.70719300 -0.10089300  2.73339600
  C  0.60463506  0.07231291  1.41442669
  C  1.46430770 -0.26827982  0.45764566
 Br  3.12221304 -1.14192384  0.61276376
  C  0.79707140  0.05661679 -0.86007198
  C -0.33184833 -0.98964388 -1.02006886
  C -1.32737338 -0.59073221  0.09341464
  C -0.63502138  0.62334813  0.75882629
  C -0.00226230  1.30487339 -0.46367036
  H  1.47319766  0.14901804 -1.70913710
  H  0.04293959 -2.00067399 -0.89131084
  H -0.78550294 -0.92023322 -2.00453217
  H -1.50119572 -1.39562765  0.80370138
  H -2.28397044 -0.28777483 -0.32354593
  H -1.26997927  1.23009899  1.40279070
  H  0.63074463  2.14797824 -0.20046564
  H -0.73137942  1.59662193 -1.21354995
