19
opt_min/./Reactant_3948_1_opt.xyz
  C -4.24302482  0.01003182 -0.83113143
  N -2.81280590 -0.19477211 -0.82506410
  C -2.04810446  0.25866167  0.19296131
  O -2.45180457  0.82986989  1.18570788
  C -0.64502060  0.02143741  0.05466337
  N  0.52384171 -0.04123045  0.12160191
  C  1.81989755 -0.03536618  0.15090488
  C  2.51488587 -0.59822417 -0.93029226
  N  3.10388366 -1.07924835 -1.79215475
  C  2.52174221  0.50836099  1.32218286
  C  4.02046901  0.57834033  1.16890247
  O  1.93424129  0.88058408  2.31217833
  H -4.60700848 -0.04846390  0.19311277
  H -4.49617560  0.99478213 -1.22755849
  H -4.71483550 -0.75697475 -1.43687360
  H -2.38626574 -0.64311732 -1.61887053
  H  4.45840167  0.93111606  2.09704922
  H  4.42964041 -0.39701225  0.91837234
  H  4.27513855  1.26733279  0.36652230
