26
opt_min/./Reactant_5135_0_opt.xyz
  C -2.54950165  2.41365735  0.03414776
  N -1.92621216  1.13006681 -0.18938945
  C -2.05146464  0.13766258  0.72295130
  O -2.74476914  0.22751259  1.71009936
  C -1.41575341 -1.16652170  0.33876981
  C -2.13324036 -2.28318168  0.79551186
  N -2.71942323 -3.19999762  1.16457094
  N -0.35936216 -1.36349941 -0.44148112
  C -0.16663343 -2.68121082 -1.02656586
  C  0.60672764 -0.43706453 -0.66706574
  C  1.47189212 -0.57331175 -1.75359606
  N  2.12444969 -0.63157257 -2.69991450
  C  0.92237880  0.57489858  0.34098937
  O  0.37131828  0.67053539  1.41436272
  O  1.93813015  1.35292342 -0.05847800
  C  2.38452846  2.31595444  0.88468964
  H -2.73631820  2.90102806 -0.91902674
  H -3.48850164  2.25404605  0.56307242
  H -1.91152412  3.04930460  0.65291499
  H -1.36775137  1.01471579 -1.01873450
  H -1.12886895 -3.15119368 -1.22099907
  H  0.39292856 -2.58589407 -1.95579728
  H  0.40026607 -3.31320761 -0.34090133
  H  3.27777559  2.76298313  0.45793846
  H  1.61460307  3.07428116  1.04398966
  H  2.60963090  1.83798300  1.83924270
