13
opt_min/./Reactant_932_0_opt.xyz
  C  3.09388173 -1.68927566  0.75104783
  N  2.11417101 -0.94465272  0.45704163
  C  1.25793309 -0.20169980  0.11089279
  C  0.12656819  0.63524368  0.17058844
  O  0.16924269  1.68973356  0.78625730
  N -0.95305619  0.22329252 -0.55977465
  C -2.16372005  0.99964100 -0.61503475
  H  3.14343202 -2.68300151  0.34803233
  H  3.86716250 -1.32443251  1.39910520
  H -0.93428877 -0.68465482 -0.99738986
  H -2.43782803  1.21402253 -1.64999982
  H -1.96604561  1.93553090 -0.09330000
  H -2.99177252  0.48245209 -0.12285470
