31
opt_min/./Reactant_2357_0_opt.xyz
  C  3.20066400  1.78100600  2.17233700
  O  2.24790909  1.25731977  1.26599538
  C  2.75920256  0.52288571  0.23949983
  O  3.95285508  0.35127189  0.10480418
  C  1.70229125  0.00804989 -0.60319970
  O  0.45303483  0.19191115 -0.07409132
  C -0.62604475  0.27706047 -0.77557503
  C -0.60879338  0.57927269 -2.22598893
  C -1.86371081  0.17427663 -0.02621768
  C -3.11049007  0.10149159 -0.66072110
  C -4.26804629 -0.01913357  0.08199009
  C -4.21429939 -0.06471325  1.46655589
  C -2.98626934 -0.00027257  2.10860689
  C -1.82428857  0.10978524  1.37527403
  C  1.86741580 -0.94088201 -1.67237026
  C  3.25797684 -1.14792160 -2.20775750
  O  0.90989668 -1.59823949 -2.07860730
  H  3.94651842  2.37633519  1.63999114
  H  2.64374316  2.39941698  2.87252682
  H  3.71306032  0.97235302  2.69923109
  H -0.60028921 -0.33903858 -2.82116118
  H -1.46591390  1.18630093 -2.50490616
  H  0.31596919  1.11115065 -2.46082946
  H -3.17606933  0.11460602 -1.73661616
  H -5.22149396 -0.08013028 -0.42123914
  H -5.12349443 -0.15627909  2.04176194
  H -2.93705506 -0.04114341  3.18664945
  H -0.86831166  0.15931706  1.87317825
  H  3.63109949 -0.22316259 -2.64172729
  H  3.23483530 -1.93106382 -2.96134206
  H  3.93355448 -1.42062262 -1.40164811
