23
opt_min/./Reactant_1373_0_opt.xyz
  C -0.93138798  3.20780449 -0.00010346
  N -0.79891461  1.84869847 -0.46830313
  C  0.08579323  1.00390550  0.09436537
  O  0.93339793  1.34235409  0.91488919
  C -0.04735882 -0.42034420 -0.29410528
  O  0.92305952 -1.30469949 -0.11953250
  C  2.20849011 -1.14866743 -0.08994247
  C  2.96035330  0.09626061 -0.38468279
  C  2.93931426 -2.31325811  0.20837281
  N  3.55453633 -3.24521826  0.48224664
  C -1.33897346 -1.01394341 -0.60972054
  C -1.38408345 -2.52161898 -0.63901842
  O -2.32234369 -0.33610748 -0.87501868
  H -1.80402312  3.31978569  0.64735882
  H -0.03546127  3.46074628  0.56495724
  H -1.03085431  3.87938389 -0.85305520
  H -1.59748280  1.43349701 -0.93834074
  H  2.90985888  0.79352807  0.45705343
  H  3.99957612 -0.13791748 -0.60386870
  H  2.50192777  0.60325718 -1.23614352
  H -0.70481345 -2.90600536 -1.39754545
  H -1.07802549 -2.92396225  0.32453222
  H -2.39690835 -2.84298130 -0.86415355
