28
opt_min/./Reactant_1585_0_opt.xyz
  C  4.81062800 -0.78727900 -1.04250200
  N  3.44418349 -0.42551593 -0.74933415
  C  2.86298003  0.66865693 -1.33102440
  O  3.39097999  1.34053335 -2.18261251
  N  1.58849626  0.96565103 -0.85217696
  N  0.77825969  0.01959228 -0.59976168
  C -0.43234160  0.10639053 -0.08697623
  C -1.13575503 -1.19095035 -0.05770195
  O -0.59600262 -2.17911736 -0.54340040
  N -2.34304553 -1.21480993  0.54077987
  C -3.11537887 -2.42625743  0.66782178
  C -0.94353162  1.36587051  0.53773341
  O -0.38668201  1.90887253  1.46294477
  N -2.14025331  1.77155678  0.02895496
  C -2.74242320  3.02102634  0.43941529
  H  4.87128435 -1.84185596 -1.31722805
  H  5.13160798 -0.17393662 -1.88314416
  H  5.46515955 -0.60063458 -0.18862598
  H  3.05468093 -0.78744905  0.11009750
  H  0.97768775 -0.97120982 -0.88073801
  H -2.68397473 -0.37011266  0.97337992
  H -3.99256604 -2.40025538  0.01606806
  H -3.43736712 -2.56061843  1.69950781
  H -2.48114791 -3.25909688  0.36638156
  H -2.41320547  1.40451875 -0.87022010
  H -3.81800931  2.88859013  0.55255449
  H -2.54715552  3.81406806 -0.28470819
  H -2.30102119  3.30053175  1.39433714
