24
opt_min/./Reactant_4661_0_opt.xyz
  C  3.01111301  0.59727200  0.50124389
  O  1.65064867  0.28234254  0.26941782
  C  1.40723989 -0.78052062 -0.57789222
  O  2.30458174 -1.37831891 -1.13352016
  C  0.02402563 -1.13982792 -0.63003007
  C -0.30385380 -2.40877370 -1.11113160
  N -0.62313002 -3.43642556 -1.52204197
  N -1.01630889 -0.41025245 -0.05712652
  C -1.98674545 -1.19189017  0.69997509
  C -1.19132043  0.87571241 -0.23491343
  C -0.32780782  1.61864119 -1.17989195
  C -2.25574554  1.63367477  0.47928144
  H  3.21399385  0.49921815  1.56902043
  H  3.20133141  1.62462002  0.18273578
  H  3.64660362 -0.08954327 -0.06292263
  H -2.93490060 -1.25320127  0.16223947
  H -1.60254526 -2.20068763  0.83721603
  H -2.15099906 -0.75164895  1.68211257
  H  0.57512265  1.97301086 -0.68105733
  H -0.00846754  0.95222542 -1.98567110
  H -0.84877810  2.47909171 -1.59506153
  H -1.83745717  2.10129728  1.37390508
  H -3.09961334  1.01717285  0.77400337
  H -2.63056713  2.43214908 -0.15818597
