12
opt_min/./Reactant_3679_0_opt.xyz
  C -2.33955342 -0.09563789 -1.64712748
  O -1.02770246 -0.14200909 -1.09994468
  C -0.91203203  0.29012438  0.15708153
  O -1.80939852  0.69217200  0.85171274
  C  0.44205342  0.21206663  0.61287656
  N  1.50651803  0.24401207  1.09792805
  N  2.51774777  0.32154452  1.76213222
  C  3.74506019  0.00760881  1.49464558
  N  4.86317611 -0.24217166  1.39506878
  H -3.05295574 -0.55902962 -0.96314061
  H -2.63859498  0.93969443 -1.82338515
  H -2.29280639 -0.64057198 -2.58618842
