29
opt_min/./Reactant_4630_1_opt.xyz
  C -3.79209982  1.82327413  0.29886307
  N -2.63763904  1.02137060 -0.04141444
  C -1.68732684  0.74161514  0.88767641
  O -1.80212727  1.02671407  2.06302915
  C -0.52305309 -0.03061884  0.38674295
  N  0.71251288  0.28339526  0.74664246
  C  1.22608413  1.33916194  1.37169948
  C  0.47879826  2.48062987  1.70087393
  N -0.06258875  3.47101536  1.91446973
  C  2.66364586  1.35429091  1.66298141
  O  3.26056629  2.26978992  2.17163284
  O  3.24158967  0.18728594  1.28727803
  C  4.63919415  0.05082521  1.50003285
  C -0.58182887 -1.27850873 -0.39472359
  O  0.45897274 -1.80572478 -0.77110208
  N -1.80531504 -1.78097181 -0.67136690
  C -1.93667941 -3.04061773 -1.37104233
  H -3.94924604  2.59713273 -0.44973335
  H -4.68713452  1.20012943  0.36776166
  H -3.60740934  2.28229387  1.26972103
  H -2.43523277  0.87590791 -1.01735823
  H  1.40102609 -0.42547315  0.43808702
  H  4.80285448 -0.76212494  2.20820837
  H  5.10383009 -0.19030953  0.54388471
  H  5.04622875  0.98245205  1.89733725
  H -2.61857702 -1.39072470 -0.22487104
  H -2.98889579 -3.26299205 -1.51884757
  H -1.46375464 -3.84705325 -0.80590882
  H -1.43548514 -2.97143223 -2.33762892
