32
opt_min/./Reactant_731_0_opt.xyz
  C -2.96115047  1.13100384 -1.62741272
  O -1.62244051  1.36519561 -1.24427437
  C -1.13649307  0.54874892 -0.20489473
  O -1.87841051  0.71460455  0.98228022
  C -1.78754304  2.00568842  1.54726976
  C  0.28375691  0.82784874 -0.02096617
  C  1.46131483  0.64170181  0.12066437
  C  2.72849708 -0.03830577  0.33134882
  C  3.60524471  0.60817965  1.40772806
  C  3.43765568 -0.05783473 -0.93479678
  N  3.99358080 -0.05676248 -1.93306967
  C  2.31185512 -1.48805239  0.71561749
  C  1.18260293 -2.07072990 -0.15505091
  C -0.26113846 -1.83094699  0.34948807
  C -1.16846712 -0.96812546 -0.54556164
  H -3.27830134  2.02102229 -2.16827585
  H -3.03929429  0.26001793 -2.28640807
  H -3.60237558  0.98322286 -0.75406136
  H -2.09476394  2.77462135  0.83220135
  H -0.76323081  2.21549714  1.87499806
  H -2.45884862  2.00730305  2.40373290
  H  4.41782947 -0.06256695  1.68100979
  H  3.00752948  0.81821042  2.29235729
  H  4.03211518  1.54103071  1.04405860
  H  3.19695341 -2.12487713  0.63729747
  H  1.99824986 -1.47561787  1.76169318
  H  1.28704503 -1.68438934 -1.17101364
  H  1.34375647 -3.14883655 -0.21074995
  H -0.24082669 -1.38161316  1.34363521
  H -0.74570287 -2.80298100  0.45365727
  H -0.88167706 -1.07065280 -1.59324074
  H -2.20214272 -1.29641875 -0.42756914
