20
opt_min/./Reactant_2701_0_opt.xyz
  C  2.85133284  0.84098516  1.23497589
  N  1.74333758  0.62172454  0.31112125
  N  0.64787115  0.35858474  0.88293383
  C -0.54583627  0.11860514  0.24364187
  C -1.61287619 -0.14123160  1.11815669
  C -2.87371228 -0.40133135  0.63000817
  C -3.09960005 -0.41251892 -0.73969677
  C -2.05261159 -0.16338193 -1.61072041
  C -0.78233232  0.10416126 -1.13660696
  N  1.93691808  0.73420971 -0.95821924
  C  3.08358753  1.00646795 -1.49332614
  N  4.03281715  1.24135748 -2.10657447
  H  3.73676924  0.31513640  0.87553369
  H  3.07462899  1.90850339  1.28419774
  H  2.55744496  0.48132223  2.21764935
  H -1.41416892 -0.12889871  2.17837185
  H -3.68649591 -0.59880150  1.31314176
  H -4.08792926 -0.61468194 -1.12482330
  H -2.22676153 -0.17394881 -2.67676421
  H  0.01907587  0.29536090 -1.83132297
