27
opt_min/./Reactant_3947_1_opt.xyz
  C -5.03670800 -0.36344100  0.80988900
  O -4.01969290 -0.48806796 -0.16716337
  C -2.75166173 -0.32533144  0.28283296
  O -2.48014288 -0.09899487  1.45710867
  C -1.74826986 -0.45186265 -0.72968715
  C -2.02027719 -0.72918417 -2.16845823
  N -0.50410232 -0.27918995 -0.26195437
  C  0.66338774 -0.28527926 -0.87009629
  C  1.90411087 -0.07107170 -0.18733948
  C  3.10561750 -0.26253299 -0.88590038
  C  4.32316832 -0.06954067 -0.26839974
  C  4.37834526  0.32254506  1.06019998
  C  3.20102497  0.52830844  1.76289793
  C  1.97835228  0.33817359  1.15361321
  H -5.22233952  0.69043867  1.03231985
  H -5.92820913 -0.82118365  0.38666567
  H -4.74234163 -0.86945376  1.73190891
  H -3.04520855 -1.06851757 -2.28010439
  H -1.34500631 -1.49998913 -2.54067258
  H -1.88398788  0.16613291 -2.77823320
  H -0.51185276 -0.11705439  0.75119994
  H  0.67977361 -0.48032885 -1.93004157
  H  3.06734727 -0.56887045 -1.92121511
  H  5.23718142 -0.22628559 -0.82245444
  H  5.33251631  0.47161299  1.54266020
  H  3.23955804  0.84438420  2.79509606
  H  1.07566810  0.52459742  1.71815869
