31
opt_min/./Reactant_2943_1_opt.xyz
  C -2.96221800 -3.71989600 -0.23534200
  N -2.55655509 -2.34286793 -0.33721000
  C -1.28683411 -1.95438530 -0.19433205
  O -0.34055292 -2.71548262  0.01961075
  C -1.00155601 -0.49841084 -0.33163463
  N  0.32254817 -0.30796261 -0.28935596
  C  1.19165883  0.64630342 -0.56547218
  C  0.91028579  1.88185095 -1.35778962
  C  2.59847616  0.36926442 -0.28853161
  O  3.50654153  1.13204331 -0.53546463
  O  2.77425108 -0.83278401  0.31202026
  C  4.10710648 -1.21558656  0.61587684
  C -2.07201343  0.48516807 -0.32463411
  O -3.22951836  0.20963969 -0.63984486
  N -1.75471100  1.72237414  0.14928195
  C -2.77132138  2.73748757  0.30869075
  H -2.06774593 -4.34181575 -0.24570356
  H -3.60483558 -3.98482221 -1.07502756
  H -3.50593825 -3.90033349  0.69603090
  H -3.25070784 -1.61913332 -0.51686509
  H  0.74622301 -1.22493799 -0.00290994
  H -0.12594563  2.19827041 -1.32431413
  H  1.56281403  2.69012796 -1.03634705
  H  1.15296276  1.67243273 -2.40343471
  H  4.33050524 -0.95837506  1.65298759
  H  4.16366645 -2.29279918  0.47504363
  H  4.80348198 -0.69843354 -0.04655628
  H -0.88485289  1.85613406  0.63672871
  H -3.74457801  2.25279435  0.38985753
  H -2.78789530  3.40655539 -0.55512167
  H -2.58008141  3.32056953  1.20745736
