34
opt_min/./Reactant_3162_1_opt.xyz
  C  2.91485400 -0.79709800  2.38475500
  O  2.61750318 -0.55234027  1.01779327
  C  1.58962913  0.24838798  0.75410441
  O  0.93419654  0.78958102  1.61964385
  C  1.33196597  0.49341405 -0.68538120
  C  2.33307187  0.35247471 -1.73818330
  C  3.71250347 -0.11439063 -1.35609518
  O  2.07850448  0.54875118 -2.91824122
  N  0.06157864  0.87034092 -0.98036614
  C -0.17601015  1.71561017 -2.12760163
  C -0.98167903  0.43978599 -0.26654477
  C -2.28184145  1.14282346 -0.24154980
  O -3.36418981  0.61588684 -0.25406443
  O -2.11243920  2.47757114 -0.17990300
  C -3.30267312  3.24198570 -0.06646791
  C -0.90540664 -0.83056674  0.48620470
  O -0.07875843 -1.69061711  0.27861938
  O -1.91187814 -0.96294732  1.34002354
  C -1.99246378 -2.20653606  2.01913560
  H  2.06144652 -0.53017241  3.01021391
  H  3.14398267 -1.85715429  2.47807744
  H  3.78117783 -0.20091516  2.67809235
  H  3.67071638 -1.12294785 -0.95620256
  H  4.32947182 -0.10345360 -2.25177769
  H  4.14755401  0.53605264 -0.60265496
  H  0.20075202  1.20247993 -3.01680916
  H -1.23411802  1.92466401 -2.24115529
  H  0.38193697  2.64579754 -2.02375712
  H -3.80722371  3.01856665  0.87505244
  H -3.98251797  3.01529503 -0.89071161
  H -2.99560468  4.28401871 -0.09642380
  H -1.16567835 -2.30227408  2.72645649
  H -1.94769401 -3.03301097  1.30756714
  H -2.94436268 -2.20088652  2.54342579
