33
opt_min/./Reactant_5015_1_opt.xyz
  C -2.46094200 -2.66583300 -0.57010900
  N -1.98261560 -1.40764673 -0.05385596
  C -2.16048245 -0.22903053 -0.71406679
  O -2.79005874 -0.16343287 -1.75042231
  C -1.52990673  0.92560033 -0.00367524
  C -2.28600764  2.12867866  0.22378168
  C -3.74525105  2.05448862 -0.15839232
  O -1.82480176  3.16984672  0.68901696
  N -0.18515015  0.81380914  0.22705349
  C  0.41116277  1.65464341  1.24544567
  C  0.56378556  0.00485907 -0.50369045
  C  1.91707205 -0.41826965 -0.25751329
  C  2.48778243 -0.56492837  1.01343717
  C  3.78645715 -1.01501588  1.15572562
  C  4.54845846 -1.32971095  0.04325315
  C  3.99184910 -1.21666231 -1.22219298
  C  2.69304273 -0.78092636 -1.37068982
  H -3.12708458 -3.14789239  0.14669052
  H -1.62693246 -3.33486239 -0.79566995
  H -3.00904517 -2.44645029 -1.48500098
  H -1.48725593 -1.41970784  0.82262058
  H -4.23126305  1.21788348  0.33865178
  H -4.23422243  2.98315889  0.12633229
  H -3.83863627  1.90928374 -1.23168945
  H  1.48026006  1.75426005  1.07647968
  H -0.07046042  2.63441076  1.18602129
  H  0.22118233  1.24542855  2.23810305
  H  0.10015885 -0.38786760 -1.39746662
  H  1.90653615 -0.36691762  1.90010721
  H  4.20301593 -1.12668258  2.14583406
  H  5.56476502 -1.67357270  0.16269294
  H  4.57354397 -1.47451659 -2.09433426
  H  2.26091556 -0.69478437 -2.35663635
