28
opt_min/./Reactant_737_1_opt.xyz
  C -0.43846800 -1.57336300 -2.13687300
  C -1.58129508 -0.66192486 -1.75548501
  O -2.69413716 -0.79902264 -2.21951004
  C -1.28197594  0.41424466 -0.81851418
  C -0.25518814  0.67643771  0.00902288
  C  0.91367768 -0.07776321  0.42128688
  C  2.17818009  0.50749689  0.37218640
  C  3.29110414 -0.20582516  0.77671977
  C  3.15501917 -1.49927118  1.25301720
  C  1.89924738 -2.08043721  1.32215264
  C  0.78421124 -1.37848787  0.90613095
  C -0.61573966  2.04366903  0.62786056
  C -1.78627757  1.73345749  1.56567701
  C -2.80181760  1.47561599  0.75704518
  C -2.22351493  1.62501943 -0.65068256
  O -1.28106919  2.66566478 -0.45366588
  H -0.36168268 -2.37643008 -1.40613451
  H  0.50712292 -1.03886460 -2.15842994
  H -0.64863424 -2.01632821 -3.10808538
  H  2.28125796  1.51326655 -0.00780261
  H  4.26750169  0.25234522  0.72342375
  H  4.02738636 -2.04968088  1.57172985
  H  1.79088558 -3.08548516  1.70250271
  H -0.19816221 -1.82240420  0.97293594
  H  0.20129659  2.64060395  1.01935978
  H -1.71626729  1.71998034  2.63380710
  H -3.80869778  1.18657330  0.97716676
  H -2.90823180  1.82201451 -1.46701928
