20
opt_min/./Reactant_2408_0_opt.xyz
  C  3.55129390  0.91459718  0.58124027
  O  2.13631273  1.03551663  0.51988903
  C  1.44715124  0.03377635 -0.02744391
  O  1.94904598 -0.97794477 -0.46627289
  C  0.01309562  0.37569406 -0.02335478
  C -0.27092699  1.66041117  0.47323874
  N -0.45934863  2.66826151  0.99005876
  N -0.97098195 -0.43230655 -0.44689487
  C -0.73803334 -1.85125684 -0.64589654
  C -2.23097548 -0.02288475 -0.65264902
  C -3.24028921 -0.95807444 -0.93499381
  N -4.07538258 -1.70810056 -1.17755593
  C -2.66079717  1.31349219 -0.69522476
  N -3.09040609  2.37196201 -0.80958670
  H  3.85355134 -0.10438339  0.33344157
  H  3.85478287  1.17071874  1.59495438
  H  3.99034789  1.61774687 -0.12739032
  H -1.15154493 -2.40864028  0.19670654
  H -1.23347619 -2.18587829 -1.55760478
  H  0.32908771 -2.04725830 -0.72577320
