35
opt_min/./Reactant_5810_1_opt.xyz
  C -3.01668400  3.16318900  0.76910900
  N -2.26993680  1.94484836  0.56325880
  C -0.93620892  1.96337980  0.37995381
  O -0.27975568  3.00295100  0.33739672
  C -0.25203511  0.67532528  0.16079902
  N  1.00642719  0.87253117 -0.21256028
  C  2.02051317  0.05061000 -0.48362072
  C  3.19098426  0.52704199 -1.21868488
  C  3.11816825  1.88538061 -1.89463894
  O  4.19389167 -0.14927384 -1.33136362
  C  2.05351483 -1.34527706  0.01008355
  C  1.66740777 -1.52481196  1.46793096
  O  2.45494612 -2.27196736 -0.65006359
  C -0.91566196 -0.62128776  0.21509438
  C -0.77300755 -1.52633614 -0.84064867
  C -1.42432551 -2.74314623 -0.81030452
  C -2.22384343 -3.08353314  0.27030414
  C -2.37322244 -2.19539605  1.32214870
  C -1.72790906 -0.97210596  1.29709717
  H -4.07084752  2.97542691  0.58791372
  H -2.88120417  3.53217145  1.78890944
  H -2.65235943  3.92883050  0.08350131
  H -2.76079497  1.06710216  0.53887497
  H  1.17724135  1.89433978 -0.26268286
  H  2.35186419  2.55577308 -1.51901241
  H  4.09231158  2.35936390 -1.80236521
  H  2.93883430  1.71196614 -2.95509318
  H  1.43954482 -0.58794639  1.96533669
  H  2.51011500 -2.00341251  1.96332947
  H  0.81833226 -2.20009854  1.54325501
  H -0.16121802 -1.26596134 -1.69064745
  H -1.30621882 -3.43161176 -1.63269643
  H -2.72425160 -4.03946064  0.29453450
  H -2.98849623 -2.45641290  2.17063421
  H -1.81734221 -0.29725871  2.13676633
