28
opt_min/./Reactant_4681_1_opt.xyz
  C -0.81758203  3.98555124  0.57609689
  N -0.95282768  2.55993358  0.38792934
  C  0.11488737  1.79395568  0.06843868
  O  1.24105734  2.24622651 -0.06625635
  C -0.15339277  0.33797932 -0.06355867
  N  0.91135905 -0.38504775 -0.02673797
  C  2.02051082 -0.79585389  0.00940314
  C  3.37213687 -1.11029787  0.01435168
  C  4.13843882  0.20391077  0.17903986
  O  3.89873670 -2.19980911 -0.08218694
  C -1.45991386 -0.29346328 -0.18621196
  C -2.49675195  0.31425459 -0.89904850
  C -3.72551558 -0.30872800 -1.01116796
  C -3.94177556 -1.54561257 -0.42668681
  C -2.91221507 -2.16705596  0.26221343
  C -1.68260475 -1.55093226  0.38138339
  H -1.65636230  4.35894288  1.15711320
  H -0.78643594  4.50024035 -0.38770271
  H  0.11705819  4.19268440  1.09978193
  H -1.83714693  2.12180268  0.58502159
  H  3.49302619  1.06935818  0.04574736
  H  4.94561290  0.22031640 -0.54936090
  H  4.57166376  0.22410450  1.17741599
  H -2.32543261  1.25746899 -1.39707545
  H -4.51753880  0.17038169 -1.56804227
  H -4.90324904 -2.02798497 -0.51592365
  H -3.06803998 -3.13680309  0.71086109
  H -0.88097505 -2.03374688  0.92198452
