30
opt_min/./Reactant_5337_0_opt.xyz
  C  4.73605400  1.00785700  0.93366600
  N  3.42838801  1.45027215  0.51362157
  C  2.36816546  0.59491659  0.51809466
  O  2.47117987 -0.57498617  0.83970358
  C  1.11085616  1.21077200  0.08519105
  O  0.08389266  0.43044751  0.06253119
  C -1.18516797  0.57879071 -0.20621828
  C -1.78433509  1.83574631 -0.65675864
  O -2.96548445  2.05058042 -0.80466438
  O -0.85435778  2.79161630 -0.92777816
  C -1.36144148  4.02713234 -1.40802050
  C -1.96478921 -0.65144420 -0.03864704
  C -1.31688481 -1.79722878  0.44651506
  C -2.00600500 -2.97901949  0.61566433
  C -3.35630558 -3.05475319  0.30986106
  C -4.00628833 -1.93139697 -0.17113418
  C -3.32458994 -0.74166928 -0.34704943
  H  4.78151327  0.90658705  2.02114362
  H  5.48704137  1.72023800  0.60398280
  H  4.93668346  0.02925060  0.49727026
  H  3.30035443  2.41201186  0.25490841
  H  1.05170602  2.25742750 -0.17659092
  H -2.26844064  4.29774484 -0.86543417
  H -0.57858198  4.76443779 -1.24698519
  H -1.59499150  3.94663935 -2.47089996
  H -0.26607685 -1.75371348  0.68967437
  H -1.48885930 -3.84985711  0.99053799
  H -3.89423363 -3.98121751  0.44547430
  H -5.05740435 -1.97685336 -0.41527655
  H -3.84862697  0.11912152 -0.72412613
