28
opt_min/./Reactant_2029_0_opt.xyz
  C  5.39195901 -0.49050359 -0.70514024
  O  4.02636960 -0.68146841 -1.03575345
  C  3.10838671 -0.08131397 -0.23083217
  O  3.41925164  0.58824088  0.73783532
  C  1.79444766 -0.37836409 -0.72062397
  N  0.64938711  0.05103879 -0.18580845
  C  0.71112400  0.88706464  0.99581725
  C -0.54010716 -0.21816876 -0.73197280
  C -0.63424630 -0.87684709 -1.96238958
  N -0.77527821 -1.42404398 -2.96578718
  C -1.83691661  0.07862974 -0.10146231
  C -2.11242064 -0.32730473  1.20486633
  C -3.35525334 -0.08365873  1.75859834
  C -4.33551004  0.55540250  1.01764051
  C -4.07497934  0.94316105 -0.28570744
  C -2.83403268  0.70367681 -0.84764811
  H  5.90516443 -1.43136729 -0.89688951
  H  5.48287675 -0.21054476  0.34728185
  H  5.81012531  0.30168104 -1.32919246
  H  1.73524612 -0.99351897 -1.60433934
  H -0.27150096  1.29184176  1.22423566
  H  1.09084700  0.31371711  1.84189929
  H  1.42094077  1.69668466  0.82391767
  H -1.35868373 -0.84911369  1.77625999
  H -3.56102696 -0.40272003  2.76979363
  H -5.30569262  0.74283489  1.45353148
  H -4.83857199  1.43379081 -0.87012078
  H -2.62988416  1.00092871 -1.86543296
