44
opt_min/./Reactant_2909_0_opt.xyz
  C -0.87603800 -1.55042200  3.46644400
  N -0.92315217 -0.53305288  2.44781341
  C -1.61632594 -0.69711578  1.28881077
  O -2.28232222 -1.69050921  1.06199426
  C -1.54756036  0.47626983  0.37867381
  O -0.42599651  1.10931468  0.08191514
  C  0.82879785  0.74598073  0.24664070
  C  1.80327795  1.77097679 -0.04391677
  C  3.14976785  1.45485012 -0.27736755
  C  4.06454846  2.44848383 -0.55642732
  C  3.66737516  3.77568960 -0.61952708
  C  2.33705251  4.10186694 -0.40419135
  C  1.41548049  3.11779856 -0.11661706
  C  1.23388925 -0.61046906  0.62832323
  C  0.69696274 -1.71931539 -0.02873928
  C  1.10192078 -2.99483790  0.30994938
  C  2.04491977 -3.18760803  1.30701742
  C  2.59240978 -2.09387704  1.95789600
  C  2.19292608 -0.81427469  1.62284202
  C -2.74835863  1.03668313 -0.19155211
  C -4.02112313  0.58245657  0.18124366
  C -5.15262721  1.14078488 -0.37570671
  C -5.05267990  2.16667806 -1.30330107
  C -3.80052347  2.62734455 -1.68004584
  C -2.66174600  2.06998734 -1.13941270
  H  0.15770475 -1.82315943  3.68610548
  H -1.36465541 -1.20980079  4.38172442
  H -1.40539307 -2.41841980  3.07699823
  H -0.43401577  0.32902446  2.62723010
  H  3.46543155  0.42301995 -0.25790090
  H  5.09731883  2.18664704 -0.73475942
  H  4.38817949  4.54923800 -0.83771728
  H  2.01932772  5.13316359 -0.45461659
  H  0.38349826  3.38095071  0.06307893
  H -0.02968710 -1.57943691 -0.81606771
  H  0.67850857 -3.84258031 -0.20656796
  H  2.35379522 -4.18697396  1.57439402
  H  3.33041134 -2.23889370  2.73365772
  H  2.61118059  0.03877611  2.13824997
  H -4.11375757 -0.21645005  0.89822582
  H -6.12590018  0.77587243 -0.08176448
  H -5.94350209  2.60036387 -1.73305572
  H -3.71350042  3.42176952 -2.40737977
  H -1.68953917  2.42257973 -1.44967496
