22
opt_min/./Reactant_4456_1_opt.xyz
  C  4.61083500 -0.88132200  0.06669500
  O  3.34539252 -0.24361552  0.12838517
  C  3.37814309  1.08906187  0.33184345
  O  4.39908990  1.72406766  0.47538995
  C  2.05313738  1.67265814  0.40879629
  O  1.01634157  0.91255083  0.26080711
  N -0.19899571  1.42091200  0.32715666
  C -1.20958427  0.50419145  0.22535267
  C -2.51053257  1.02172164  0.29531582
  C -3.59576538  0.17724311  0.20045774
  C -3.40904685 -1.18781607  0.03573884
  C -2.12393497 -1.70763446 -0.03524199
  C -1.02784556 -0.87785668  0.05782519
  H  4.41037230 -1.94164437 -0.06444261
  H  5.17125737 -0.70624036  0.98761286
  H  5.19267438 -0.49344712 -0.77223714
  H  1.94942764  2.73399426  0.59165834
  H -2.63578457  2.08487012  0.42311269
  H -4.59612528  0.58048640  0.25510372
  H -4.26116645 -1.84662484 -0.03784152
  H -1.97836916 -2.77019665 -0.16461251
  H -0.02584477 -1.27728288  0.00222590
