32
opt_min/./Reactant_1641_0_opt.xyz
  C  3.95015498  2.08666002  0.84652005
  N  2.69211689  1.65333349  0.29161259
  C  2.32182085  0.34534724  0.33948302
  O  3.07609421 -0.50076067  0.81535322
  C  1.00065950  0.07957794 -0.22028282
  C  0.24117114  1.16866999 -0.63069202
  N -0.31332101  2.10201898 -1.02614102
  N  0.45059562 -1.18160325 -0.31288663
  C  1.35091982 -2.30665153 -0.48383823
  C -0.84958042 -1.39140604 -0.36191200
  C -1.38654005 -2.71860201 -0.79016809
  C -1.81137198 -0.37650636  0.07534665
  C -2.92781554 -0.05752991 -0.69555433
  C -3.85645362  0.85835330 -0.23846550
  C -3.69737461  1.45441944  0.99987514
  C -2.59811300  1.13451487  1.78060528
  C -1.65843354  0.23455738  1.32269909
  H  4.75709397  1.46396429  0.45534027
  H  4.12495569  3.12481949  0.57728749
  H  3.94944225  1.98836928  1.93693034
  H  2.05177516  2.33881880 -0.07378683
  H  1.43953828 -2.56081875 -1.54213596
  H  0.98430136 -3.17103762  0.06710966
  H  2.33080139 -2.02815977 -0.09270193
  H -2.44814206 -2.63360017 -1.00832767
  H -0.87304494 -3.10085142 -1.67200635
  H -1.27634880 -3.45674245  0.01041427
  H -3.04758474 -0.50021302 -1.67366245
  H -4.70682818  1.10992034 -0.85483964
  H -4.42403964  2.17024893  1.35485413
  H -2.47131834  1.59156494  2.75139466
  H -0.80510999 -0.01460900  1.93755095
