24
opt_min/./Reactant_3786_1_opt.xyz
  C  1.63800489  3.20307227  0.84056143
  O  1.11919109  1.91623779  0.52705322
  C  1.13014968  1.01330421  1.51952878
  O  1.59077774  1.20282417  2.61394682
  C  0.55811171 -0.28564123  1.06311831
  C  0.67547267 -1.33100486  1.98837531
  N  0.80077175 -2.13101549  2.80461118
  O -0.00985668 -0.22911123 -0.10902740
  C -0.66686318 -0.96037446 -0.95065543
  C -1.05841216 -0.17637378 -2.18132992
  C -1.27147498  1.29335146 -1.93067576
  O -1.19549605 -0.70137003 -3.25304073
  C -1.03191912 -2.40628501 -0.94590698
  C -0.20582207 -3.36130996 -0.13052068
  O -1.95106560 -2.77371544 -1.63752155
  H  2.47999368  3.11136743  1.52859512
  H  0.86032380  3.81332488  1.30265299
  H  1.95645918  3.64421364 -0.10065458
  H -1.98139159  1.42920303 -1.11712654
  H -0.33354081  1.76325146 -1.64203796
  H -1.65689635  1.75832458 -2.83266600
  H -0.56559752 -4.36992405 -0.31683923
  H  0.84387128 -3.29463676 -0.41008262
  H -0.30095078 -3.15079036  0.92994935
