38
opt_min/./Reactant_2365_0_opt.xyz
  C -1.30889700  2.77429100  2.33343800
  N -1.27064105  1.77362079  1.30072481
  C -0.21648229  0.91944418  1.15307875
  O  0.79458314  1.02977642  1.84740036
  C -0.37938273 -0.12174794  0.15421416
  C -1.70038504 -0.53266477 -0.30668764
  C -2.79317506 -0.64878582  0.55870611
  C -4.04036332 -1.00264440  0.08229010
  C -4.23083990 -1.25941011 -1.26587604
  C -3.15605701 -1.16102984 -2.13580582
  C -1.90941851 -0.80067165 -1.66635573
  N  0.71958913 -0.81512783 -0.26366023
  C  0.58024746 -2.26058098 -0.37906433
  C  1.90991824 -0.24480027 -0.41489142
  C  2.01728664  1.23480461 -0.56816974
  C  3.16322071 -1.02459446 -0.49629990
  O  3.29065069 -2.13668248 -0.98949716
  N  4.23339848 -0.33893497 -0.00719420
  C  5.55003210 -0.92267423  0.04933076
  H -0.42743754  2.62940062  2.95687564
  H -2.20933273  2.67006908  2.94256339
  H -1.28215299  3.78165958  1.90843213
  H -2.06846069  1.68095592  0.69568999
  H -2.64851993 -0.48006584  1.61619019
  H -4.86926371 -1.08996749  0.77002711
  H -5.20649325 -1.53695550 -1.63509869
  H -3.29426586 -1.35818160 -3.18914763
  H -1.08053558 -0.71068085 -2.35532761
  H  1.34194598 -2.66065630 -1.04355983
  H  0.70662062 -2.70822681  0.60914856
  H -0.41211198 -2.50744358 -0.74321164
  H  2.86908388  1.48686680 -1.19647514
  H  1.09766715  1.60905991 -1.02264289
  H  2.11302868  1.74600122  0.39527469
  H  4.06878517  0.47678508  0.55835468
  H  5.52636381 -1.84366361 -0.53113006
  H  5.83914373 -1.15400189  1.07697126
  H  6.28219900 -0.23775676 -0.38160428
