34
opt_min/./Reactant_2168_1_opt.xyz
  C -3.11687960 -2.35437618  1.60474909
  N -1.99682442 -1.47828435  1.34627822
  C -1.42036830 -1.40898326  0.13189143
  O -1.82731036 -2.01343423 -0.83655891
  C -0.26665540 -0.38923543  0.03749586
  C -0.93471038  0.99580383  0.03236282
  O -0.71627801  1.82784781  0.88590995
  N -1.81120765  1.14369202 -0.97385862
  C -2.59899462  2.34004184 -1.14516973
  C  0.52790569 -0.60418363 -1.13312449
  C  1.46568018 -0.72914587 -1.87153418
  C  2.80716679 -0.52168139 -2.32492991
  F  3.51852492 -1.69234398 -2.39388417
 Cl  2.85123168  0.19686304 -3.97576945
  C  3.44735666  0.41469297 -1.29479525
  C  3.31408856  0.03040732  0.19431597
  C  2.07949502  0.29427011  1.09440698
  C  0.77473685 -0.53222202  1.17131103
  H -3.75332961 -1.91962594  2.37321149
  H -2.77635876 -3.34066470  1.93130599
  H -3.67991195 -2.47372320  0.67892830
  H -1.65376756 -0.91031652  2.10378354
  H -1.92293296  0.39559042 -1.64299449
  H -2.63910581  2.61558233 -2.19811724
  H -3.61603336  2.19117906 -0.77267286
  H -2.12767141  3.13892525 -0.57230998
  H  3.07024090  1.42406055 -1.46094733
  H  4.52053047  0.40987424 -1.51327637
  H  4.07017055  0.67014262  0.66563878
  H  3.65092276 -1.00087332  0.32921874
  H  2.49856819  0.15093132  2.09799671
  H  1.80910184  1.35080249  1.02328819
  H  1.01168055 -1.59208244  1.28863551
  H  0.30162860 -0.17392708  2.09206212
