9
opt_min/./Reactant_320_1_opt.xyz
  C  2.27569900 -0.42478100 -0.10360000
  C  1.16756505 -0.12070027  0.24318041
  C -0.14513296  0.27183850  0.68884217
  C -1.22536555  0.10562924 -0.35603466
  O -0.35783130  0.64717120  1.81452582
  H  3.24504417 -0.69480644 -0.40294968
  H -1.85874061 -0.72673596 -0.06657193
  H -1.83902820  1.00033395 -0.37407911
  H -0.81241308 -0.07988245 -1.34082724
