27
opt_min/./Reactant_2091_1_opt.xyz
  C -3.06595453  1.49788632  0.45070129
  O -2.39668244  0.29821065  0.76715295
  C -1.45867456 -0.11848115 -0.19799701
  C -2.05918984 -0.33273272 -1.51392337
  N -2.54188621 -0.52265111 -2.53161897
  C -0.31578694  0.78660930 -0.33716641
  C  0.85576409  1.04242714 -0.27418156
  C  2.27217274  0.92068605  0.04882300
  C  3.06456631  0.67613293 -1.14086014
  N  3.70062142  0.43872917 -2.05813720
  C  2.74089202  2.11795162  0.72484413
  N  3.07214736  3.05049791  1.29313920
  C  2.30989458 -0.29363507  1.02528853
  C  1.84503459 -1.64092650  0.43736438
  C  0.53246752 -1.80182542 -0.35691105
  C -0.81136101 -1.44632105  0.31553763
  H -3.71955663  1.70264731  1.29615074
  H -3.66366959  1.39985026 -0.46246415
  H -2.35325045  2.32331361  0.32616366
  H  3.34445974 -0.44226840  1.35529010
  H  1.71556209 -0.03014284  1.90332022
  H  2.62680982 -1.97830740 -0.25073436
  H  1.82319416 -2.33077374  1.28524695
  H  0.49545177 -2.86628307 -0.60705585
  H  0.61559701 -1.27851735 -1.31054280
  H -1.52156962 -2.25337274  0.13407315
  H -0.70443403 -1.34716715  1.39585988
