28
opt_min/./Reactant_1459_1_opt.xyz
  C  3.39887700 -1.06762900 -1.39052100
  N  2.04170235 -0.92704018 -0.92426091
  C  1.58168367  0.21257839 -0.37417263
  O  2.30867718  1.20143127 -0.29268744
  C  0.17395755  0.21239471  0.11219982
  C -0.27630923  1.30110264  1.05892040
  O -1.17754925  1.11671049  1.86071153
  N  0.39017948  2.46023343  0.94469279
  C  0.06660914  3.60963984  1.74940188
  C -0.76706989 -0.69582119 -0.24409964
  O -0.44936620 -1.84109083 -0.92143576
  C -1.43218277 -2.41242953 -1.77663023
  O -2.08163928 -0.50125990 -0.02514928
  C -2.67484078 -1.25318647  1.03916577
  H  3.88432448 -0.09691795 -1.30106309
  H  3.41256883 -1.38777743 -2.43300221
  H  3.93705853 -1.79643252 -0.78173768
  H  1.38574706 -1.67462892 -1.08291611
  H  1.27417442  2.40674158  0.43964565
  H -0.70135063  3.31843765  2.46529693
  H -0.31479980  4.41529414  1.11873033
  H  0.94959304  3.96528294  2.28269758
  H -1.05042933 -3.39520949 -2.04551810
  H -1.54709561 -1.80282899 -2.67697430
  H -2.40181433 -2.50872963 -1.28904460
  H -3.73886001 -1.30246472  0.81684176
  H -2.25476616 -2.26009842  1.10429081
  H -2.50315231 -0.71715741  1.97418097
