24
opt_min/./Reactant_528_1_opt.xyz
  C  4.46810400  0.14877400  0.16594000
  N  3.11982266 -0.34082397  0.03398737
  C  2.04807843  0.46356157  0.15600948
  O  2.10847795  1.65767883  0.40701836
  C  0.77569769 -0.26351001 -0.03835128
  O  0.79527506 -1.57076136 -0.28889356
  C -0.55563929 -2.03255143 -0.36926439
  O -0.78642038 -3.18203476 -0.59657609
  C -1.34424606 -0.85006675 -0.15927629
  C -2.79889803 -0.88378533 -0.21146852
  C -3.56103349  0.41968398 -0.35539604
  O -3.38923059 -1.94180119 -0.18365746
  N -0.47069005  0.18630349  0.03691304
  C -0.78845052  1.56135197  0.33880475
  H  4.41624268  1.15871045  0.57244647
  H  5.03735169 -0.49507138  0.83494064
  H  4.96558519  0.18553592 -0.80702914
  H  2.97451553 -1.31583601 -0.18382809
  H -3.54711630  0.97286783  0.58135767
  H -3.14959836  1.04031600 -1.14631384
  H -4.59253885  0.16701470 -0.58985594
  H  0.13773850  2.07772629  0.58932447
  H -1.48289261  1.60421290  1.17523776
  H -1.23914043  2.04171252 -0.52979222
