22
opt_min/./Reactant_969_0_opt.xyz
  C  3.02184400  0.66399400 -0.85065700
  C  1.50920730  0.48789489 -0.88998142
  O  0.83058255  1.09841849 -1.73211375
  C  0.99478535 -0.43203026  0.03433817
  N -0.34052236 -0.73278386  0.15597184
  C -0.67615401 -2.13301955  0.34682660
  C -1.29616677  0.17283324  0.09637272
  C -2.72455678 -0.23349801 -0.06905088
  C -0.97456205  1.60741049  0.20475959
  H  3.28440383  1.34008932 -0.03798125
  H  3.35648682  1.10183224 -1.78713807
  H  3.52666796 -0.28513297 -0.68952472
  H  1.66811456 -1.08548441  0.56520459
  H  0.19107044 -2.64925901  0.75510447
  H -0.92855975 -2.59591843 -0.60927450
  H -1.51425461 -2.24599575  1.03303108
  H -3.17849354 -0.47950225  0.89461486
  H -2.82826858 -1.09636761 -0.72379721
  H -3.28665491  0.59144599 -0.49954104
  H -0.16588716  1.74728415  0.92612275
  H -0.57466195  1.97785061 -0.75388215
  H -1.84862366  2.18589397  0.48747264
