25
opt_min/./Reactant_1770_1_opt.xyz
  C  5.50936300  0.42650100 -0.67965200
  O  4.30207585 -0.00558084 -0.06591410
  C  3.17898514  0.37269768 -0.67981604
  O  3.12200472  1.05477304 -1.68552693
  C  1.97655467 -0.06660516 -0.00487970
  N  0.74974116  0.23029122 -0.45366468
  C -0.19785462 -0.29301815  0.34793149
  C -1.61824164 -0.17276050  0.16688585
  C -2.48647422 -0.77313348  1.08648971
  C -3.85390598 -0.66584144  0.92543969
  C -4.38142160  0.03593920 -0.14623614
  C -3.52967402  0.63441446 -1.06293209
  C -2.16224986  0.53484791 -0.91365446
  C  0.52253690 -0.98289749  1.40122388
  O  0.15742761 -1.61049456  2.36111215
  O  1.87741913 -0.79415561  1.10906918
  H  5.55668436  1.51720865 -0.69711733
  H  6.31645408  0.01849513 -0.07740447
  H  5.56801276  0.05687274 -1.70505573
  H  0.61014085  0.77918718 -1.29244961
  H -2.07140473 -1.31802630  1.91858747
  H -4.50892824 -1.13489217  1.64386654
  H -5.45049437  0.11823820 -0.26978106
  H -3.94000811  1.18175205 -1.89877439
  H -1.51613528  1.00838347 -1.63894262
