29
opt_min/./Reactant_4748_1_opt.xyz
  C  5.23801001  0.32634799  0.18457285
  N  3.88644821  0.76942760 -0.03460043
  C  2.80720501 -0.00808181  0.27960666
  O  2.94621360 -1.13073804  0.75343624
  C  1.54535970  0.64994950  0.00893426
  N  0.33773015  0.11971886  0.18389559
  C  0.21131955 -1.29960146  0.44027528
  C -0.78648198  0.84349930  0.05660938
  C -0.72255725  2.20714343 -0.22380000
  N -0.70728097  3.34097830 -0.43655881
  C -2.14492480  0.28552694  0.17455361
  C -2.56734238 -0.35648104  1.33876660
  C -3.86021916 -0.83410100  1.44036709
  C -4.74973686 -0.66739373  0.39179503
  C -4.34485070 -0.00937944 -0.75703468
  C -3.05215028  0.47007604 -0.86569982
  H  5.75023185  0.13913087 -0.76386175
  H  5.80028784  1.06967570  0.75337440
  H  5.18588227 -0.60485773  0.74931904
  H  3.74495017  1.69285058 -0.41151425
  H  1.55740933  1.70101403 -0.23702590
  H  1.06109047 -1.82564367  0.00915627
  H -0.71983582 -1.67097923  0.01300539
  H  0.21782838 -1.49026362  1.51423730
  H -1.88662491 -0.46580836  2.16981477
  H -4.17735515 -1.33034249  2.34583430
  H -5.75935373 -1.04080352  0.47528521
  H -5.03779461  0.13228546 -1.57321025
  H -2.73704526  0.98997118 -1.75916006
