15
opt_min/./Reactant_2723_0_opt.xyz
  C  2.60132826  0.20939751 -0.56239002
  C  1.45127241  0.75608846  0.23057078
  O  1.52124352  1.71619183  0.95716966
  C  0.15098874  0.04390508  0.06810630
  C  0.02216980 -1.04148834 -0.81106032
  N -0.05365178 -1.90574314 -1.56534016
  O -0.82277361  0.54192124  0.77423775
  C -2.06500071  0.15969180  0.86179360
  C -2.92988284  0.93514009  1.66700911
  N -3.65067583  1.56386964  2.29817745
  C -2.64402304 -0.94627943  0.21119003
  N -3.17471731 -1.84354553 -0.27176916
  H  2.67422733  0.77281877 -1.49359003
  H  3.52576927  0.36214911 -0.01081089
  H  2.47275832 -0.83868034 -0.80441904
