20
opt_min/./Reactant_3617_1_opt.xyz
  C -3.72003200 -0.57041001  0.89374098
  O -2.51255816 -1.15383449  0.42702440
  C -1.42231691 -0.37480930  0.37394971
  O -1.39673448  0.79650325  0.68292428
  C -0.27176866 -1.12788514 -0.13326467
  C -0.41567854 -2.48986533 -0.43288771
  N -0.50902019 -3.61684929 -0.63595595
  N  0.92781720 -0.55628867 -0.31107549
  C  1.33524715  0.67499029 -0.11915473
  C  2.72175580  0.95355225 -0.44664384
  C  3.17019767  2.36701493 -0.20920399
  O  3.44378114  0.07248972 -0.88864948
  H -4.08895801 -1.17927045  1.71907018
  H -3.53620710  0.45353703  1.22765326
  H -4.44348490 -0.57447457  0.07674874
  H  1.67136199 -1.17419032 -0.67051532
  H  0.65681996  1.42069269  0.25867998
  H  4.20346465  2.48871486 -0.52379140
  H  2.53359546  3.05528481 -0.76252047
  H  3.08266632  2.60474034  0.85067991
