19
opt_min/./Reactant_1976_1_opt.xyz
  C  2.23865516  1.64037059  0.64841018
  C  2.66612353  0.19723818  0.55716656
  O  3.78411885 -0.19041260  0.79142668
  C  1.58873593 -0.74102336  0.15310842
  C  1.88213618 -2.11454104  0.08029140
  N  2.20346629 -3.21673796  0.04945475
  O  0.42014068 -0.21674845 -0.11589617
  C -0.68322432 -0.81011349 -0.48794889
  C -0.82732172 -2.20040711 -0.64948457
  N -1.04047184 -3.32055555 -0.78579642
  C -1.85789529  0.06287869 -0.74378210
  C -1.61094098  1.53083020 -0.50784091
  O -2.91251039 -0.39248756 -1.11151773
  H  1.90743003  1.99674042 -0.32473249
  H  3.08374347  2.23731285  0.97960315
  H  1.41970721  1.74994114  1.35552682
  H -2.53697277  2.07484154 -0.66885875
  H -0.85507944  1.89612571 -1.20044628
  H -1.26176847  1.70136400  0.50782023
