42
opt_min/./Reactant_3064_0_opt.xyz
  C -3.61331800 -3.16924100  0.04163600
  O -3.30510915 -1.78316111  0.00457204
  C -2.02047506 -1.44101405 -0.20972152
  O -1.13888982 -2.27801308 -0.30867435
  C -1.76531977 -0.00103369 -0.09267404
  C -2.75119091  1.05151528 -0.16240857
  C -2.43029265  2.39571742  0.08555352
  C -3.36987190  3.39977760 -0.04308667
  C -4.66443791  3.11523837 -0.43861113
  C -4.98912947  1.80328190 -0.74720701
  C -4.05650697  0.79702963 -0.62347640
  N -0.46217811  0.24534829  0.24516227
  C -0.11892022  0.96770153  1.45741087
  C  0.51395635 -0.37498193 -0.43487045
  C  0.36622303 -0.56577061 -1.87329367
  C  1.60177490 -1.04808651 -2.60088115
  O -0.64337076 -0.26291561 -2.48696448
  C  1.81267243 -0.61928817  0.22244160
  C  1.95939863 -1.74057650  1.03542945
  C  3.16652671 -1.99282352  1.66178937
  C  4.23620854 -1.13096412  1.48376906
  C  4.09650330 -0.01475271  0.67624936
  C  2.89129035  0.24407108  0.04938608
  H -2.69876368 -3.75531892  0.14388975
  H -4.27117646 -3.33277216  0.89413385
  H -4.12423178 -3.44437873 -0.88259451
  H -1.43010486  2.69368812  0.35231939
  H -3.07674101  4.41960807  0.16366085
  H -5.39775232  3.90203821 -0.52857494
  H -5.98105802  1.56160747 -1.10094330
  H -4.33052957 -0.20189078 -0.90739700
  H  0.54392627  0.34607889  2.06138884
  H  0.40613702  1.89509580  1.22699517
  H -1.02149824  1.17348014  2.02606699
  H  2.21637170 -0.19120575 -2.87186086
  H  2.18974225 -1.72469582 -1.99063963
  H  1.29147598 -1.54003619 -3.51779280
  H  1.11976124 -2.40936977  1.15215556
  H  3.27164132 -2.86788087  2.28581448
  H  5.17756826 -1.33200785  1.97296915
  H  4.92823986  0.65953084  0.53434794
  H  2.77978742  1.11518240 -0.57996682
