26
opt_min/./Reactant_1755_0_opt.xyz
  C  5.39746300  0.16512100 -0.33750300
  N  4.04957089  0.49427751  0.04915590
  C  2.97085764 -0.07163708 -0.53167373
  O  3.00207306 -0.90005997 -1.43020580
  C  1.69325114  0.36844339  0.02087354
  N  0.50754234 -0.06737963 -0.39833456
  C -0.49948357  0.51196177  0.29577253
  C -1.90318842  0.26882805  0.09960726
  C -2.36567101 -0.62832018 -0.87016767
  C -3.71999349 -0.83952812 -1.03339630
  C -4.63692975 -0.16760883 -0.24106900
  C -4.18785901  0.72276552  0.72191656
  C -2.83683094  0.94332080  0.89564494
  C  0.13429861  1.39439852  1.24066377
  O -0.27811765  2.14223262  2.09067512
  O  1.51899608  1.25044041  1.00825728
  H  5.94899347  1.06673738 -0.60645734
  H  5.33563754 -0.49783536 -1.19945579
  H  5.91966148 -0.34442506  0.47513987
  H  3.90419633  1.15525239  0.79719233
  H  0.41741306 -0.74523257 -1.14465439
  H -1.67147062 -1.16502883 -1.50105956
  H -4.06458965 -1.53462182 -1.78549035
  H -5.69425796 -0.33860479 -0.37528144
  H -4.89753953  1.24940296  1.34245821
  H -2.48200247  1.63419731  1.64254292
