40
opt_min/./Reactant_2386_0_opt.xyz
  C  0.56583000  2.50682700 -2.99926000
  N  0.56061856  1.31752659 -2.18072446
  C  1.44373144  1.17219105 -1.15854065
  O  2.37269669  1.93153300 -0.98649106
  C  1.27331534 -0.10849735 -0.39907187
  O  0.12880657 -0.62364240 -0.04191429
  C -1.09910869 -0.10499498  0.04045583
  C -1.26273345  1.33159451  0.16138645
  O -0.33794219  2.09957227  0.35532474
  O -2.54152412  1.75950317  0.05795899
  C -2.72693071  3.15256698  0.24896413
  C -2.12975822 -1.11106263  0.21970052
  C -3.38270183 -0.84020972  0.77914471
  C -4.31536323 -1.84648555  0.93271097
  C -4.02770580 -3.14502404  0.54407611
  C -2.78812805 -3.43019857 -0.00585155
  C -1.85324186 -2.42971790 -0.17154321
  C  2.42230993 -0.94370550 -0.12244645
  C  2.27818292 -2.07759810  0.69480899
  C  3.35638399 -2.89301896  0.96347304
  C  4.60554018 -2.59875599  0.43790225
  C  4.76464572 -1.47758860 -0.36190217
  C  3.69103507 -0.65894882 -0.64746285
  H  0.10453169  2.29039103 -3.95988496
  H  1.59964254  2.81891079 -3.14236437
  H  0.02881865  3.32276749 -2.50762200
  H -0.21369432  0.68277903 -2.28717215
  H -2.48148965  3.43405171  1.27536166
  H -2.08452058  3.72008680 -0.42805572
  H -3.77541293  3.34884596  0.03917782
  H -3.62093901  0.15828805  1.10311282
  H -5.27664713 -1.61582221  1.36826858
  H -4.76135566 -3.92723765  0.66826236
  H -2.55166140 -4.43806914 -0.31458463
  H -0.89588435 -2.66330220 -0.61422868
  H  1.31418913 -2.30481382  1.12417678
  H  3.22615842 -3.76007181  1.59461681
  H  5.44957788 -3.23607503  0.65547799
  H  5.73605434 -1.24143440 -0.77017195
  H  3.82809070  0.21179626 -1.26609300
