35
opt_min/./Reactant_4783_1_opt.xyz
  C  5.15674980  0.00666903  1.02458728
  N  3.78312831 -0.26744213  0.69134658
  C  3.42072898 -1.37623228 -0.00892645
  O  4.21740891 -2.21473973 -0.38578006
  C  1.97193994 -1.48750024 -0.26068409
  C  1.48761927 -2.60688971 -0.93467765
  N  1.08972983 -3.51402164 -1.52394633
  O  1.21377280 -0.46083317  0.12751132
  C -0.08043441 -0.31394599  0.08902051
  C -0.55536768  1.01950542  0.41357157
  C -1.88036729  1.23091501  0.81235850
  C -2.31855102  2.50111288  1.12679951
  C -1.45126529  3.58122673  1.05528744
  C -0.13639763  3.38413402  0.66174749
  C  0.31066971  2.11882059  0.34192159
  C -1.02355946 -1.38220997 -0.23113935
  C -2.02666399 -1.16926340 -1.17961053
  C -2.92981271 -2.17107695 -1.47344209
  C -2.85726228 -3.39041052 -0.81798469
  C -1.87943750 -3.60290841  0.13913577
  C -0.96360259 -2.61078174  0.43112244
  H  5.47265532  0.96662104  0.61152283
  H  5.75843453 -0.78997834  0.58976901
  H  5.30117865  0.01616792  2.10708013
  H  3.08099447  0.38277800  1.00163259
  H -2.55306876  0.38994358  0.88474322
  H -3.34216226  2.65082454  1.43545730
  H -1.79955101  4.57200726  1.30193338
  H  0.54048296  4.22285126  0.59663592
  H  1.32772174  1.97375772  0.00675233
  H -2.07477160 -0.22106840 -1.69434942
  H -3.69078916 -2.00069955 -2.21940405
  H -3.56319202 -4.17168822 -1.05447871
  H -1.82264314 -4.54794248  0.65603775
  H -0.21647450 -2.78205739  1.19225148
