13
opt_min/./Reactant_583_0_opt.xyz
  C -3.17791298  1.04169095 -0.07414601
  C -1.76722055  0.75551134 -0.10727052
  C -0.58516206  0.53408778 -0.13160917
  C  0.83675210  0.32386277 -0.13608217
  O  1.65032827  1.20091003  0.00659322
  O  1.13872278 -0.97099106 -0.31223022
  C  2.51981667 -1.28826269 -0.32593428
  H -3.61767547  0.83351417 -1.04876954
  H -3.33947906  2.08820619  0.17920916
  H -3.66122095  0.41129800  0.67187749
  H  2.97527605 -0.96129697 -1.26354049
  H  3.03343010 -0.79885796  0.50480959
  H  2.58840733 -2.36965564 -0.23175713
