27
opt_min/./Reactant_2165_1_opt.xyz
  C -4.06153600 -1.60771200 -0.01217400
  N -2.62292578 -1.68881601 -0.03372402
  C -1.84320452 -0.60813754 -0.20919541
  O -2.27367475  0.52112453 -0.36128521
  C -0.37780864 -0.90500608 -0.23498236
  F -0.11404029 -2.18868266 -0.63469546
  C  0.60554634 -0.04481910  0.03619985
  C  2.09128968 -0.23607080 -0.15449009
  O  2.81158113  0.73517923 -0.24413315
  N  2.55038226 -1.50415741 -0.17835629
  C  3.95910170 -1.79712541 -0.27895560
  C  0.34414857  1.26792472  0.75660184
  O  0.69485772  1.34446126  1.91241210
  N -0.15650322  2.27191096  0.01769300
  C -0.44733767  3.53911003  0.65296971
  H -4.45432998 -2.13301098  0.85844610
  H -4.48793295 -2.04601930 -0.91695589
  H -4.33365504 -0.55526390  0.04116995
  H -2.19991704 -2.59773396  0.07508819
  H  1.91248709 -2.27634459 -0.26249114
  H  4.49820373 -0.85482225 -0.20313769
  H  4.19120513 -2.27377788 -1.23340129
  H  4.26164887 -2.45789004  0.53479476
  H -0.77579373  1.99213167 -0.73069085
  H  0.40256972  3.80980663  1.27720131
  H -1.33802439  3.47652953  1.28256549
  H -0.59361654  4.29181111 -0.11767233
