26
opt_min/./Reactant_1531_1_opt.xyz
  C -0.20518994  3.40818996  1.03102717
  N -0.11360554  2.26963472  0.76573126
  C  0.01982164  1.01472541  0.48961757
  C  1.20046268  0.63725017 -0.27772965
  C  1.73971665  1.50713839 -1.23092185
  C  2.87589670  1.16163400 -1.93730124
  C  3.50040887 -0.05293198 -1.70728950
  C  2.98479078 -0.91375639 -0.75413511
  C  1.85479045 -0.57485015 -0.04010436
  C -1.00601671  0.08607161  0.93055164
  C -1.88263650  0.43002324  1.96401089
  C -2.86470423 -0.44693874  2.37901827
  C -3.00113988 -1.68536228  1.77442489
  C -2.15139415 -2.02781864  0.73513438
  C -1.17044646 -1.15471610  0.31143822
  H -0.22728100  4.40041175  1.36204189
  H  1.25046938  2.45125212 -1.42800691
  H  3.26885387  1.84664980 -2.67491506
  H  4.38729282 -0.32324765 -2.26421144
  H  3.47590909 -1.85876695 -0.55605837
  H  1.47293809 -1.23759112  0.72614575
  H -1.78167843  1.39238476  2.45037157
  H -3.53187466 -0.16785132  3.18446878
  H -3.76722031 -2.37497260  2.10375736
  H -2.25594123 -2.98498400  0.23933910
  H -0.53175390 -1.41686618 -0.52241500
