18
opt_min/./Reactant_3856_1_opt.xyz
  C  3.60055632 -0.97008326 -0.49162038
  N  2.36361523 -0.30715811 -0.15447435
  C  2.32480783  1.01387007  0.15534013
  O  3.27544310  1.75016109  0.15537406
  N  1.05399381  1.48874705  0.51889289
  N -0.00569910  0.99510580  0.21647432
  C -1.08731845  0.61860377 -0.03578706
  C -2.39335881  0.14941141 -0.35366866
  O -2.60113117 -0.84130314 -1.00941985
  O -3.33013507  0.93110765  0.19860381
  C -4.67751415  0.54764580 -0.04158289
  H  4.34467987 -0.20168280 -0.69429003
  H  3.95083532 -1.59340108  0.33501520
  H  3.46166846 -1.59046049 -1.37700062
  H  1.52950764 -0.87147262 -0.11140377
  H -4.78549040 -0.53568722  0.03771661
  H -4.98271711  0.86279648 -1.04189567
  H -5.27715231  1.05215959  0.71201438
