23
opt_min/./Reactant_5040_1_opt.xyz
  C  1.72374854 -0.37266975 -0.62006571
  N  0.41588352 -0.40217986 -1.24331246
  C -0.68540897 -0.10953249 -0.58585856
  C -0.81583574  0.33017243  0.77840558
  C -1.96045702 -0.07660542  1.48062492
  C -2.16463344  0.32015030  2.78525645
  C -1.25153918  1.15122981  3.41612649
  C -0.13785069  1.59579711  2.72132039
  C  0.08259171  1.19514128  1.41811707
  C  0.39034340 -0.82077964 -2.54383311
  C  1.56297828 -1.01408283 -3.26892354
  N  2.53069627 -1.16853204 -3.87556897
  C -0.80385481 -1.04261278 -3.23004091
  N -1.78085358 -1.21914829 -3.81379444
  H  1.62425157 -0.53237858  0.45189587
  H  2.22263323  0.58090249 -0.80069680
  H  2.34509926 -1.15668653 -1.05308108
  H -1.60815827 -0.29364461 -1.12251943
  H -2.67460377 -0.72214924  0.99278877
  H -3.04359442 -0.01501881  3.31493302
  H -1.41274207  1.46351613  4.43595504
  H  0.56226820  2.26738424  3.19629395
  H  0.92913107  1.59403987  0.88332352
