22
opt_min/./Reactant_1694_0_opt.xyz
  C -1.90641097  0.80462201  1.16684903
  C -0.39682435  0.97271288  1.01340072
  O  0.17922425  1.82617114  1.66874288
  C  0.25949339  0.02954834  0.14607276
  C  1.67945352 -0.27500292  0.16924059
  C  2.55000079  0.57465519  1.04527083
  O  2.14167258 -1.16241732 -0.54070050
  N -0.39825479 -0.60960772 -0.88643011
  C -1.07585128  0.19487825 -1.88459049
  C -0.12171196 -1.86285977 -1.16926559
  C  0.33662844 -2.79797922 -0.23301778
  N  0.65842994 -3.61124765  0.51137673
  H -2.27141591 -0.14293238  0.77989173
  H -2.13121720  0.86431604  2.22997468
  H -2.42675559  1.63341941  0.68879228
  H  2.22162233  0.48552240  2.07784170
  H  3.58063223  0.24683077  0.94129648
  H  2.45721416  1.62355871  0.77244693
  H -1.66568164  0.97020883 -1.40345132
  H -1.72608152 -0.42589949 -2.49893173
  H -0.33492167  0.68074130 -2.52422494
  H -0.35199475 -2.24314086 -2.15519716
