33
opt_min/./Reactant_2636_0_opt.xyz
  C  2.62740519 -0.66799198  2.00197953
  C  1.77787615 -1.39072589  1.00612264
  O  1.40197028 -2.52340041  1.13537890
  C  1.40158728 -0.56282303 -0.24132686
  C  2.64132165  0.02686029 -0.94062335
  C  2.36893418  1.16729010 -1.88009110
  O  3.74343225 -0.42187837 -0.77056277
  C  0.44021471  0.42421638  0.12669738
  C -0.56759957  1.03446119  0.35061853
  C -1.97678952  1.19874547  0.51160220
 Br -2.73178610  2.27843350 -0.96928880
  C -2.31850191  1.92890830  1.81065559
  F -3.59153742  2.32995624  1.87026971
  F -2.11676351  1.14253996  2.88189696
  F -1.55346414  3.01234870  1.98912608
  C -2.53709332 -0.23237253  0.46450521
  C -2.12662243 -1.12297688 -0.72847599
  C -0.81083505 -1.93505318 -0.87070162
  C  0.59370898 -1.41704295 -1.25857528
  H  2.22010726  0.32138252  2.20691484
  H  2.69860777 -1.24632438  2.92016591
  H  3.62458858 -0.54644899  1.57899444
  H  3.27044937  1.76805699 -1.98190519
  H  1.53843123  1.78083835 -1.54314980
  H  2.12842510  0.76378566 -2.86415410
  H -2.27665979 -0.73542471  1.39907696
  H -3.62868735 -0.15355846  0.41500594
  H -2.86493691 -1.93134526 -0.66320669
  H -2.32789717 -0.58991904 -1.66251352
  H -1.04541530 -2.58481364 -1.72239702
  H -0.71203008 -2.58714926  0.00034505
  H  1.18236866 -2.32186181 -1.43626773
  H  0.51898395 -0.86325704 -2.19600844
