28
opt_min/./Reactant_5478_1_opt.xyz
  C  4.68162800  0.50567500 -1.08455500
  O  3.29011886  0.44430180 -0.80547483
  C  2.96633047  0.03494608  0.43640526
  O  3.80015594 -0.23862374  1.26996825
  C  1.53518017 -0.05230848  0.73132289
  N  0.51718182  0.34346515  0.00833361
  C  0.71256958  1.07068211 -1.22860319
  C -0.75640392 -0.07441052  0.34313430
  C -0.86129764 -1.46363583  0.75350027
  C -2.23207504 -2.07709714  0.87767327
  O  0.13667783 -2.15050494  0.92634899
  C -1.82531991  0.88967583  0.17072934
  O -1.63318871  2.06813189 -0.07332882
  O -3.07201002  0.40625760  0.36720707
  C -4.11652391  1.36352187  0.29456733
  H  5.19820473  1.06603961 -0.30305450
  H  4.77776597  1.00419052 -2.04550699
  H  5.10147751 -0.50087736 -1.13126860
  H  1.34316361 -0.46873086  1.70761229
  H  1.24959980  1.99847186 -1.03796582
  H  1.30131244  0.46454194 -1.91616429
  H -0.24744356  1.30538109 -1.67523987
  H -2.79783799 -1.95085540 -0.04054249
  H -2.11210041 -3.13512503  1.09585724
  H -2.78194766 -1.59497148  1.68062530
  H -5.04377803  0.79729984  0.25909251
  H -4.10067099  2.01071060  1.17445716
  H -4.00619696  1.98367112 -0.59739363
