29
opt_min/./Reactant_586_1_opt.xyz
  C  3.55765200  0.95949200 -1.44160700
  O  2.49599571  0.30462476 -0.75433113
  C  1.80062228  1.06314807  0.09187480
  O  2.08019073  2.18245113  0.41484236
  C  0.64557148  0.28700050  0.66838727
  C  0.77547687 -0.17417027  2.09760744
  C  2.02144602 -0.97003473  2.34034491
  O -0.05165304  0.09465221  2.92368554
  C -0.46389739  0.06653573 -0.04443259
  C -1.60313054 -0.73545351  0.51580962
  O -1.49814464 -1.86776153  0.90375644
  O -2.72515169 -0.02923411  0.51436778
  C -3.87029098 -0.67812229  1.05358128
  C -0.58965659  0.57971265 -1.43840864
  O  0.16310594  1.37733555 -1.93509557
  O -1.63242806  0.03821459 -2.06111830
  C -1.86181882  0.47149801 -3.39553472
  H  4.12321284  0.17802475 -1.94276809
  H  4.18851931  1.50346968 -0.73593524
  H  3.14105975  1.66029295 -2.16616572
  H  2.08585140 -1.76763958  1.60248023
  H  2.88841437 -0.32373839  2.20708190
  H  2.02124805 -1.37927014  3.34583986
  H -3.67811421 -0.97869861  2.08516136
  H -4.11156174 -1.56661352  0.46628196
  H -4.67923428  0.04529805  1.00567827
  H -1.85010870  1.56182746 -3.44518418
  H -2.83472826  0.08051223 -3.68027527
  H -1.08546654  0.07899456 -4.05575247
