21
opt_min/./Reactant_5142_1_opt.xyz
  C -2.66641033  0.50286101  1.71378597
  O -1.34579338  0.50717021  1.18658361
  C -0.93894968 -0.57770567  0.50995366
  O -1.60668414 -1.57675293  0.38404687
  C  0.41679191 -0.38166562 -0.00944012
  N  1.05280076  0.79143085 -0.03315125
  C  0.75865089  2.07492490  0.10824371
  C -0.49399018  2.66760325  0.35245777
  N -1.46062626  3.27917125  0.46207519
  C  1.80409217  3.00919570 -0.05986590
  N  2.64150588  3.78314545 -0.18458483
  C  1.34334601 -1.46145823 -0.42406172
  C  0.88096584 -2.87553108 -0.48989356
  O  2.48423133 -1.12434982 -0.71658712
  H -3.00775127  1.53573696  1.68295142
  H -2.64727712  0.13451607  2.74056533
  H -3.30684588 -0.13979751  1.10765249
  H  2.03171716  0.58973989 -0.35305339
  H -0.15398593 -2.98588873 -0.19122380
  H  1.01816123 -3.23700434 -1.50845772
  H  1.52414937 -3.48079851  0.14832991
