19
opt_min/./Reactant_889_0_opt.xyz
  C -3.62806500 -0.50634700 -0.08777100
  C -2.58873566  0.51069135  0.27310748
  O -2.81949731  1.62751695  0.69143380
  C -1.20042343  0.08533655  0.09536689
  N -0.14101210  0.83347968  0.37076605
  C  1.00575441  0.16476557  0.10248018
  C  2.30918803  0.78344195  0.30273143
  C  3.48984539 -0.09058573  0.00696666
  O  2.37947156  1.93315184  0.69386011
  C  0.61129567 -1.12875118 -0.39302468
  O  1.21525601 -2.08980331 -0.77816400
  O -0.80386786 -1.09779764 -0.36708680
  H -3.21262317 -1.29507488 -0.70584209
  H -4.45874457 -0.01356796 -0.58881044
  H -4.01921962 -0.94090702  0.83231992
  H -0.17194723  1.78234262  0.73209634
  H  4.36902887  0.52330420 -0.16756444
  H  3.67543941 -0.72518541  0.87356274
  H  3.28708993 -0.74276439 -0.83752053
