33
opt_min/./Reactant_2757_1_opt.xyz
  C  4.10497058  1.88744763  0.30074435
  N  2.95152841  1.34731628 -0.38085379
  C  2.62295420  0.04806411 -0.27235527
  O  3.23184971 -0.75009230  0.40357727
  C  1.37078083 -0.33256966 -1.07379674
 Br  1.84798802 -0.06243371 -3.00394685
  C  0.23230995  0.45724706 -0.71549131
  C -0.83303329  0.71914108 -0.22157961
  C -2.20269329  0.47363649  0.18923324
  C -3.18762478  1.44313798 -0.48863125
  C -2.33928874  0.53437999  1.71076913
  C -2.41434971 -0.96237511 -0.35530000
  C -1.49358781 -2.10287495  0.14125155
  C  0.02752492 -1.99258092  0.37332170
  C  0.94692812 -1.79682376 -0.84955795
  H  5.00701911  1.35684489 -0.01042643
  H  4.20408020  2.94254259  0.06356164
  H  3.99389162  1.76253201  1.37958262
  H  2.40891453  1.95369987 -0.97520427
  H -3.54986419  2.18344337  0.22059854
  H -2.70977103  1.96697558 -1.31352285
  H -4.04436748  0.90314342 -0.88455082
  H -1.74582980 -0.24196210  2.18637916
  H -2.00308606  1.50064747  2.08208602
  H -3.38042636  0.39440909  1.99452730
  H -3.42959440 -1.28140556 -0.10361920
  H -2.34774654 -0.90218043 -1.44421749
  H -1.63645661 -2.91541538 -0.57843453
  H -1.90369182 -2.46053136  1.09075089
  H  0.30444844 -2.95622720  0.80971130
  H  0.25771968 -1.23623605  1.12377087
  H  1.86682120 -2.36479868 -0.68762118
  H  0.45204022 -2.18238323 -1.74159755
