30
opt_min/./Reactant_5085_0_opt.xyz
  C -3.48642572 -0.01638882  1.61177671
  C -3.23632557 -0.39035261  0.15822460
  O -4.21526768 -0.72498058 -0.50179678
  C -1.92936646 -0.41991529 -0.47634504
  C -1.95684711 -0.87385548 -1.90264004
  N -0.72659273 -0.12738405  0.05445554
  C -0.62684369  0.55288095  1.33673175
  C  0.45154464 -0.40063828 -0.53755432
  C  0.69463445 -1.10272699 -1.71297836
  N  1.09167663 -1.65988945 -2.64355544
  C  1.75634424  0.04115117  0.03304803
  C  2.22953840  1.32987068 -0.20097830
  C  3.47088622  1.71124600  0.27526396
  C  4.25252661  0.80968917  0.97783222
  C  3.79320857 -0.47766175  1.19996432
  C  2.55244851 -0.86570856  0.72767251
  H -4.56473539 -0.06084779  1.74757900
  H -3.03339246 -0.74107257  2.28467739
  H -3.14854738  0.98213759  1.86679803
  H -1.34495458 -0.22147008 -2.52554756
  H -2.98553945 -0.84747332 -2.25209369
  H -1.59064399 -1.89430794 -2.01471939
  H -1.03386763 -0.06830771  2.13045997
  H -1.16743446  1.49657379  1.29499877
  H  0.41398673  0.76036404  1.56952995
  H  1.62410589  2.02963291 -0.75908919
  H  3.82930636  2.71296953  0.08887374
  H  5.22326653  1.10636990  1.34504722
  H  4.40605581 -1.18426357  1.73928498
  H  2.19592469 -1.87214980  0.88828779
