26
opt_min/./Reactant_5286_1_opt.xyz
  C -4.02520008  0.52137533 -1.72580173
  C -3.00247668  0.26417061 -0.69948423
  O -1.88681661  0.98390754 -0.69715399
  C -2.91608572 -0.61146082  0.36721634
  N -1.72035450 -0.37258453  0.98410840
  C -1.20302240  0.58124560  0.27432619
  C  0.02510543  1.29158433  0.47724322
  C  0.26463462  2.39875635 -0.43473831
  C  0.12565058  3.24321222 -1.28869875
  C  3.31633686  1.99123628  2.03255249
  C  2.22483368  1.61438535  1.65838678
  C  1.02037584  1.12446418  1.30409892
  C -3.91205537 -1.60529411  0.77213863
  C -3.55900618 -2.41729077  1.98462141
  O -4.94604166 -1.73613768  0.15177011
  H -3.68877988  1.32055705 -2.38056513
  H -4.21667008 -0.38260086 -2.30302083
  H -4.96697107  0.79702455 -1.25249746
  H -1.98860573  4.04734804 -0.74392751
  H -2.66096978  4.43636954 -0.59668563
  H  4.25871646  2.36297897  2.30366243
  H  0.71525484 -0.15728433  2.30562066
  H  0.58946957 -0.82893945  2.84423050
  H -4.32562911 -3.16536211  2.16684568
  H -3.47278073 -1.75530537  2.84345822
  H -2.59175919 -2.89089538  1.83678848
