28
opt_min/./Reactant_1528_1_opt.xyz
  C -3.31349089  0.99195906 -1.35981274
  C -1.83058580  0.76956419 -1.47179707
  O -1.17660649  1.30015159 -2.33377560
  C -1.13659050 -0.12076708 -0.42479968
  C -2.03867252 -1.06357342  0.38419820
  C -0.39088674  0.78660070  0.43205401
  C  0.58894897  1.32633365  0.87962377
  C  1.98980559  1.43469343  1.15897228
 Cl  2.56212077  3.14225403  1.14007621
 Cl  2.38927534  0.73976455  2.76504719
  C  2.69061334  0.65205040  0.03736036
  C  2.47150651 -0.87274456  0.01484685
  C  1.04621239 -1.45200439 -0.03863345
  C  0.06352859 -0.85963424 -1.08665671
  H -3.59784260  1.28049154 -0.35112007
  H -3.83816696  0.07705301 -1.63070010
  H -3.60131211  1.77551063 -2.05655447
  H -1.78358708 -2.09715687  0.16053757
  H -1.89560736 -0.90987750  1.45108287
  H -3.09081237 -0.92647020  0.16658395
  H  3.76594822  0.82697861  0.12061494
  H  2.35546070  1.09581917 -0.90238219
  H  2.94498198 -1.29432367  0.90408123
  H  3.03026555 -1.23946301 -0.84997281
  H  1.11640777 -2.51585204 -0.27590267
  H  0.60325662 -1.35389731  0.94964726
  H -0.30432656 -1.64657100 -1.74836578
  H  0.59885043 -0.14182944 -1.70880036
