20
opt_min/./Reactant_3420_1_opt.xyz
  C -1.49717978 -0.34219456  1.82521118
  C -1.81578314 -1.14201797  0.57707734
  O -2.69273630 -1.99565633  0.61274331
  C -1.22056362 -0.77676904 -0.67384162
  N -0.18860797  0.05564658 -0.90705907
  C -0.32751391  0.93644359 -2.05248463
  C  0.90687034  0.09228958 -0.14424060
  C  1.94077820  1.17563164 -0.21899247
  C  1.11819160 -0.89392352  0.82102605
  N  1.37198307 -1.68691964  1.61739733
  H -1.10632063 -1.01639921  2.58538688
  H -0.78626565  0.46475827  1.67064001
  H -2.43421879  0.07379579  2.19302314
  H -1.78127879 -1.06735582 -1.55194175
  H  0.60637321  1.43159863 -2.30193714
  H -0.66315530  0.36201417 -2.91670144
  H -1.08521524  1.69264347 -1.83586774
  H  1.53469451  2.13676930  0.10492612
  H  2.34271045  1.29271905 -1.22607741
  H  2.76799631  0.91929743  0.43948839
