31
opt_min/./Reactant_4483_1_opt.xyz
  C -0.60689985  4.56753500  2.10492781
  O -1.21784293  3.48067815  1.42528228
  C -0.41214174  2.52081527  1.00164868
  O  0.80026993  2.50527456  1.17344783
  C -1.06801186  1.41297728  0.30507031
  N -0.16326744  0.48302442 -0.05457821
  C -0.14619559 -0.59025210 -0.82243161
  C -1.24376553 -1.02896141 -1.58498030
  N -2.03230179 -1.44505664 -2.31152186
  C  1.09689402 -1.34292942 -0.99523434
  C  1.03939705 -2.67406985 -1.42076310
  C  2.19795051 -3.40861693 -1.58165903
  C  3.43225196 -2.83289673 -1.32831028
  C  3.50127165 -1.51099557 -0.91701637
  C  2.34952800 -0.76855424 -0.75159395
  C -2.51571068  1.29069797  0.19637183
  O -3.30386649  2.19888735  0.28739562
  O -2.87120897 -0.00141275  0.02314235
  C -4.24680015 -0.28461355 -0.19024803
  H  0.12977937  4.20279517  2.82373592
  H -0.10921455  5.22519731  1.38822693
  H -1.41050207  5.10039389  2.60577895
  H  0.76233052  0.76705275  0.31346163
  H  0.07832863 -3.12615162 -1.61347749
  H  2.13444098 -4.43632976 -1.90594282
  H  4.33485557 -3.41034322 -1.45642156
  H  4.46093347 -1.05346871 -0.72916673
  H  2.43656575  0.26875419 -0.45748216
  H -4.51794713 -1.10943789  0.46626492
  H -4.37866106 -0.57676497 -1.23306608
  H -4.84597153  0.59944011  0.03389236
