21
opt_min/./Reactant_3518_1_opt.xyz
  C  2.43332908  0.10490237  2.46199393
  O  1.89124616 -0.91425893  1.64283764
  C  1.00207696 -0.50942744  0.71618419
  O  0.47515519  0.77058313  0.80532605
  C  0.49090202 -1.20450981 -0.30134198
  C  0.78121586 -2.58435516 -0.76261398
  N -0.49635291 -0.39851037 -0.95329105
  C -0.50286426  0.87200292 -0.23012010
  C -1.88540160  1.14131384  0.37735587
  C -0.12904855  1.96914558 -1.12622314
  N  0.20153889  2.77311553 -1.86788258
  H  1.64405729  0.64336187  2.99216873
  H  3.08091853 -0.40457810  3.17239588
  H  3.01410664  0.81692922  1.86921345
  H  1.52381506 -3.02240297 -0.10257977
  H  1.16501030 -2.57977476 -1.78336206
  H -0.12192594 -3.19267951 -0.74444936
  H -0.34871305 -0.31335968 -1.95451014
  H -2.13742653  0.30794173  1.02758553
  H -2.62299685  1.21804164 -0.41640452
  H -1.86754070  2.06361691  0.95182771
