38
opt_min/./Reactant_1237_1_opt.xyz
  C  4.78619202 -0.00564529 -0.65076682
  N  3.59075381 -0.63097547 -0.13835663
  C  2.49941504  0.08864297  0.21288824
  O  2.46240093  1.29683875  0.12880249
  C  1.32093662 -0.76512219  0.72008266
  C  1.71181708 -1.54912781  1.98194393
  C  0.19595076  0.11303639  0.98094743
  C -0.86217185  0.65456843  0.82524639
  C -2.21185299  0.82907877  0.29207364
  O -3.08401561  1.10379035  1.37003721
  C -4.45940394  1.14022922  1.06555224
  O -2.28237005  1.82742005 -0.69770379
  C -1.81058631  3.08988040 -0.27484040
  C -2.49114092 -0.53144355 -0.38698653
  C -1.54967240 -0.94675263 -1.53872755
  C -0.01001499 -0.86840683 -1.49866592
  C  0.77341587 -1.66223776 -0.42693269
  H  5.66793266 -0.53967108 -0.29834784
  H  4.80912309  1.02328833 -0.29151465
  H  4.78429293  0.00970752 -1.74503154
  H  3.57710071 -1.63566603 -0.07327772
  H  1.15578810 -2.48322234  2.04025210
  H  2.77604507 -1.78072088  2.00418762
  H  1.47877643 -0.95786897  2.86527067
  H -4.94051813  1.62015370  1.91787332
  H -4.64944003  1.72370413  0.15862331
  H -4.86903354  0.13126737  0.93954955
  H -2.37824008  3.45440168  0.58764232
  H -1.94772869  3.76131421 -1.12125064
  H -0.74872197  3.03302697 -0.00830942
  H -2.49044970 -1.28705661  0.40283733
  H -3.48416370 -0.50114421 -0.84315400
  H -1.82726220 -1.97973654 -1.77537149
  H -1.82589578 -0.31808171 -2.39095192
  H  0.29706351 -1.25989335 -2.47476685
  H  0.30418253  0.17399774 -1.47956009
  H  0.14002633 -2.44491284 -0.00607124
  H  1.60407001 -2.16758281 -0.92584652
