19
opt_min/./Reactant_3562_1_opt.xyz
  C  3.36623642  1.46322026 -0.12311997
  C  2.23130008  0.99588054  0.67082010
  N  1.44301153  0.09004659  0.58808166
  C  0.47691697 -0.71939140  0.80161862
  C  0.69352992 -1.94709389  1.63607200
  C -0.82750568 -0.53863104  0.16576601
  O -1.71466383 -1.37343464  0.25730077
  N -0.99832771  0.62991523 -0.51805935
  C -2.18939491  0.89191047 -1.28328266
  H  3.08195941  2.41376409 -0.57715112
  H  4.19737988  1.68217373  0.54820984
  H  3.68721915  0.76401899 -0.89645106
  H  1.68380697 -1.93119116  2.08589984
  H -0.05875818 -1.99505294  2.42148114
  H  0.59285870 -2.84365299  1.02502129
  H -0.22231104  1.26084878 -0.62033679
  H -2.49145939  1.93153752 -1.15866111
  H -2.03844682  0.68620280 -2.34805427
  H -2.97152190  0.23336134 -0.90854709
