29
opt_min/./Reactant_5919_1_opt.xyz
  C -0.57018568 -2.86263784 -2.05272851
  N -0.48781304 -1.93926037 -0.94335777
  C -0.75299686 -0.63157376 -1.10847093
  O -0.99671458 -0.10222698 -2.16882981
  C -0.64781267  0.20057031  0.15388172
  O  0.45765957  0.72720141  0.55302905
  C  1.67595990  0.59429913  0.08137812
  C  2.03513099 -0.18864194 -1.01461574
  N  2.41897626 -0.80592110 -1.91048101
  C  2.67883300  1.39591464  0.83333517
  O  2.33126435  2.09794864  1.76594720
  N  3.94808220  1.27838767  0.39250362
  C  5.04325834  1.99014916  1.00306232
  C -1.88721997  0.55810770  0.88889317
  O -2.92399575 -0.04543948  0.69220431
  N -1.73645759  1.56105224  1.77758263
  C -2.82723109  2.01901548  2.60031797
  H -1.60497149 -3.16181033 -2.23457572
  H -0.18906053 -2.36004342 -2.93968746
  H  0.03621179 -3.73832202 -1.83831293
  H -0.43648128 -2.32671622 -0.01371211
  H  4.14541795  0.68337848 -0.39667903
  H  4.62239495  2.72027466  1.69149902
  H  5.69087883  1.30717617  1.55758471
  H  5.63116884  2.50155695  0.24126443
  H -0.83373406  1.98996584  1.90952497
  H -2.70875488  1.67936818  3.63193324
  H -3.74824883  1.60551292  2.19369910
  H -2.87516929  3.10759352  2.58702159
