34
opt_min/./Reactant_5739_1_opt.xyz
  C -1.79351800 -3.92882400  1.17209000
  N -1.07326690 -2.80606476  0.63058422
  C -1.70714282 -1.68653599  0.18816215
  O -2.91920042 -1.56468041  0.22022595
  C -0.80807097 -0.63134963 -0.31429216
  O  0.47380006 -0.81483426 -0.06252805
  C  1.53241333 -0.20082066 -0.52492510
  C  1.53888048  0.76831743 -1.65402037
  C  2.81710426 -0.58645152  0.06723744
  O  3.88217124 -0.23982602 -0.41734476
  N  2.73708222 -1.36647081  1.18204907
  C  3.91346971 -1.76360224  1.91295190
  C -1.40824277  0.55473780 -0.91921708
  C -1.03992287  1.83541657 -0.49802396
  C -1.66432340  2.94894051 -1.02527678
  C -2.66485972  2.80441772 -1.97189847
  C -3.04976513  1.53749015 -2.38154202
  C -2.43241413  0.41863834 -1.85944105
  H -1.54880170 -4.84345248  0.63068861
  H -2.85451315 -3.71301141  1.06237142
  H -1.56433316 -4.06768457  2.23142829
  H -0.07652797 -2.88973900  0.52286204
  H  0.70299515  0.59504171 -2.32812777
  H  1.49971949  1.80393711 -1.31013635
  H  2.48048763  0.63876184 -2.18319845
  H  1.84258710 -1.51610457  1.61733780
  H  4.76204759 -1.67542002  1.23720760
  H  4.08672737 -1.11930636  2.77876673
  H  3.81437377 -2.79485011  2.24912616
  H -0.28782092  1.95304878  0.26757614
  H -1.37830495  3.93344155 -0.68591444
  H -3.15052888  3.67760816 -2.38234990
  H -3.83570497  1.42356456 -3.11327669
  H -2.73321933 -0.56806591 -2.17344812
