28
opt_min/./Reactant_1623_1_opt.xyz
  C -1.97028300  3.05231000  0.95091400
  O -1.10323650  2.04847285  0.44281538
  C -1.21821419  0.83601751  1.01007424
  O -2.00473745  0.59815509  1.89452538
  C -0.31071606 -0.16816814  0.44048918
  C  0.81975825 -0.07548580 -0.28700453
  C  1.66810415  1.04577718 -0.72789760
  C  1.91606934  2.14222768  0.27563553
  O  2.18464966  1.03586681 -1.82250069
  C  1.15331932 -1.48374334 -0.74177528
  C  0.06182663 -1.84693368 -1.77618930
  C -1.20843360 -1.95571395 -0.91872038
  C -0.68880634 -1.63031634  0.50407524
  C  0.69041193 -2.28977863  0.47212569
  H -1.80219789  3.93726270  0.34271307
  H -3.00988134  2.72716147  0.87623683
  H -1.74036588  3.25570110  1.99904283
  H  1.08924604  2.84624026  0.22042965
  H  1.95925105  1.74212875  1.28508972
  H  2.83700327  2.66372407  0.03128331
  H  2.16818772 -1.61434244 -1.10320398
  H  0.30858799 -2.80053966 -2.24220859
  H -0.00617816 -1.09227779 -2.55697963
  H -1.98830958 -1.26065581 -1.22711579
  H -1.62516045 -2.96215478 -0.94314747
  H -1.37549172 -1.88878689  1.30340821
  H  0.65078363 -3.36202149  0.29275271
  H  1.27980048 -2.09160717  1.36690246
