32
opt_min/./Reactant_1921_1_opt.xyz
  C -1.54644300 -2.54977200  0.66492700
  C -0.70603308 -1.35316729  0.30687163
  C  0.63444854 -1.39742184  0.32037973
  C  1.39447417 -2.62889178  0.72644437
  C  1.46619910 -0.24276055 -0.06955537
  C  2.53306295  0.15670487  0.72937592
  C  3.32163359  1.23236026  0.36538136
  C  3.06875220  1.91682330 -0.80984250
  C  2.02259470  1.51456214 -1.62454878
  C  1.22939819  0.44400320 -1.25984229
  C -1.44897271 -0.12002691 -0.01639319
  C -2.47680120 -0.13717588 -0.95644972
  C -3.17921141  1.01623171 -1.25151118
  C -2.87781862  2.20069313 -0.60389901
  C -1.87014890  2.22642994  0.34575473
  C -1.16175959  1.07535525  0.63826625
  H -1.24271664 -2.95531681  1.62958616
  H -2.59822642 -2.27752763  0.71573594
  H -1.43245808 -3.34333292 -0.07711211
  H  0.89509987 -3.53526626  0.38442725
  H  2.39845765 -2.61533659  0.30635742
  H  1.47530294 -2.69529541  1.81352862
  H  2.73605325 -0.36591438  1.65299850
  H  4.14075589  1.53943307  1.00283078
  H  3.68361964  2.75693015 -1.09823734
  H  1.82354949  2.03527370 -2.55117785
  H  0.41954485  0.11637336 -1.89430784
  H -2.70781705 -1.06035045 -1.47048250
  H -3.96652111  0.98697155 -1.99286602
  H -3.42866421  3.10016325 -0.83530080
  H -1.62882164  3.14157282  0.86680178
  H -0.38207029  1.09236608  1.38345504
