26
opt_min/./Reactant_4322_1_opt.xyz
  C -4.12950900  1.84855400  0.14929600
  O -2.85526920  1.35225153  0.51430181
  C -2.52309883  0.13216632  0.03395713
  O -3.26090121 -0.53789357 -0.66287347
  N -1.25943417 -0.13835074  0.42316822
  N -0.72900796 -1.32851694  0.28154602
  C -1.58372411 -2.51396550  0.21327349
  C  0.56698276 -1.50738068  0.25987150
  C  1.60125945 -0.50685504  0.26213693
  C  1.38239815  0.84810740  0.53677769
  C  2.44177530  1.73622280  0.53452607
  C  3.72771104  1.30361753  0.25335451
  C  3.95738320 -0.03560733 -0.01997101
  C  2.91040217 -0.93353629 -0.00691212
  H -4.52204070  1.28480943 -0.70090695
  H -4.00888267  2.90121574 -0.11082252
  H -4.81344647  1.75356406  0.99724240
  H -0.99439620 -3.41666791  0.35221473
  H -2.08963311 -2.53290157 -0.75267752
  H -2.34951953 -2.44763942  0.98742771
  H  0.89580343 -2.53422368  0.21420585
  H  0.38193598  1.18848163  0.74177035
  H  2.26133548  2.77803610  0.75410139
  H  4.54967389  2.00568642  0.24747088
  H  4.95788689 -0.38059738 -0.24040189
  H  3.09583608 -1.97772422 -0.21466899
