27
opt_min/./Reactant_4339_1_opt.xyz
  C -3.47906000  3.20795500 -0.76968900
  O -2.69904791  2.03308100 -0.60254065
  C -3.39654298  0.88997817 -0.41892149
  O -4.59576283  0.84157443 -0.39563348
  C -2.46734474 -0.25649523 -0.25531212
  O -1.22142410  0.13483024 -0.17270474
  N -0.19006987 -0.67346514 -0.03450108
  C  1.01553211 -0.03437278  0.06701838
  C  1.19542503  1.35837178  0.04081737
  C  2.46208265  1.88653134  0.16968432
  C  3.56126831  1.05200097  0.32340743
  C  3.38994738 -0.32619477  0.34550370
  C  2.13086774 -0.87206395  0.21928857
  C -2.98154623 -1.63796111 -0.19473176
  C -1.95360912 -2.72636164 -0.02429313
  O -4.16592471 -1.87593207 -0.27568397
  H -2.81387975  3.96048833 -1.18664315
  H -4.31675828  3.01303350 -1.44260497
  H -3.87190405  3.53866265  0.19463641
  H  0.33632471  2.00206911 -0.07888916
  H  2.59745440  2.95842309  0.15196855
  H  4.54864849  1.47642063  0.42683420
  H  4.24712599 -0.97239410  0.46317509
  H  1.97478366 -1.93932603  0.23531802
  H -1.38958266 -2.57344882  0.89353355
  H -1.24582567 -2.70750299 -0.85036892
  H -2.46418644 -3.68566582  0.00765681
