33
opt_min/./Reactant_2617_0_opt.xyz
  C  4.25155200 -0.57357600  0.06829400
  C  3.49013284 -1.84327473 -0.30219957
  O  4.09122667 -2.87777254 -0.57020694
  C  2.07054315 -1.77825826 -0.29457723
  N  1.39986287 -0.64032253 -0.06929945
  C  0.10435218 -0.36338539 -0.02065293
  C -0.20796908  1.08803671  0.00804353
  C -0.03904109  1.81577430  1.18007368
  C -0.30554772  3.17314840  1.20572517
  C -0.73912241  3.81742197  0.06009796
  C -0.89885968  3.10199986 -1.11536614
  C -0.63103767  1.74583445 -1.14479401
  C -0.96507558 -1.33183064  0.06205695
  C -2.25378988 -0.99067914 -0.37360428
  C -3.29644013 -1.88893520 -0.28503147
  C -3.09476256 -3.14772700  0.25861143
  C -1.83802958 -3.48533862  0.73440753
  C -0.78782772 -2.59521182  0.64136709
  H  4.10370615  0.19288667 -0.69384868
  H  5.31153445 -0.80975331  0.11392757
  H  3.93629857 -0.18852733  1.03711369
  H  1.51163907 -2.66249832 -0.54791859
  H  1.99773803  0.18161707  0.00824240
  H  0.29183060  1.31080358  2.07715354
  H -0.17527102  3.72790452  2.12373824
  H -0.94935277  4.87605877  0.08206325
  H -1.22897602  3.60469698 -2.01280269
  H -0.73792518  1.19100312 -2.06599273
  H -2.42987693 -0.01058231 -0.79043911
  H -4.27614274 -1.60401555 -0.64027144
  H -3.90993869 -3.85156392  0.32458989
  H -1.67469170 -4.45176390  1.18924169
  H  0.16679424 -2.86458597  1.06544433
