36
opt_min/./Reactant_5514_1_opt.xyz
  C  5.29415500 -0.05396800  0.96076200
  C  4.41645564 -1.09554433  0.69569958
  C  3.08409597 -0.84472522  0.45309221
  C  2.59761865  0.47271560  0.46985530
  N  1.30393460  0.83921757  0.24273491
  O  0.48861273 -0.18645175 -0.06320538
  C -0.77794869 -0.02194256 -0.32222420
  C -1.46668735 -1.25766888 -0.66204885
  C -2.83167190 -1.42108905 -0.40811890
  C -3.46643676 -2.60719905 -0.72137259
  C -2.75615333 -3.65401585 -1.28656427
  C -1.39875119 -3.51051144 -1.53192191
  C -0.75852470 -2.32855192 -1.22354105
  C -1.46766933  1.25788964 -0.29429628
  C -2.53068456  1.49787255 -1.17318116
  C -3.19354239  2.70819820 -1.16269769
  C -2.81427042  3.70314564 -0.27421701
  C -1.75892087  3.47990340  0.59490761
  C -1.08352797  2.27562631  0.58455642
  C  3.49228005  1.51801542  0.74289712
  C  4.82205380  1.25087819  0.98280398
  H  6.33700783 -0.26032434  1.15041191
  H  4.78295613 -2.11291308  0.68218384
  H  2.40216656 -1.65972850  0.25608488
  H -3.39086340 -0.62325986  0.05717810
  H -4.52092234 -2.72218553 -0.51836570
  H -3.24919785 -4.58187529 -1.53555984
  H -0.83709734 -4.32194251 -1.97048765
  H  0.29421061 -2.20490512 -1.42873284
  H -2.81915959  0.73760421 -1.88462944
  H -4.00737406  2.87999656 -1.85265772
  H -3.33614467  4.64860059 -0.26699239
  H -1.45969063  4.25654776  1.28446175
  H -0.26046171  2.11621879  1.26238123
  H  3.11740017  2.52947373  0.75558516
  H  5.50689602  2.06085392  1.19016092
