31
opt_min/./Reactant_5667_1_opt.xyz
  C -3.96184400  2.01432300 -1.06752900
  O -2.76400399  1.39139085 -0.63517884
  C -2.67451419  0.05842883 -0.90234732
  O -3.56597168 -0.52670778 -1.47509286
  C -1.46314418 -0.53586810 -0.36323490
  C -1.36700492 -1.97727005 -0.08297971
  C -2.60504660 -2.80361605 -0.28917064
  O -0.31064377 -2.48431550  0.24155892
  N -0.30757605  0.16681504 -0.23662189
  C -0.04688336  1.30372634 -1.12048872
  N  0.53528198 -0.21208528  0.62637037
  C  1.87269876  0.06610556  0.61449120
  C  2.48073879  0.41880439  1.82421723
  C  3.84510655  0.60358418  1.88962672
  C  4.63478994  0.41185784  0.76498380
  C  4.04599115  0.02689534 -0.42774547
  C  2.67761439 -0.13645377 -0.51480547
  H -4.82104039  1.59522744 -0.54011670
  H -3.85375850  3.07129465 -0.83691471
  H -4.10379602  1.86381859 -2.13947927
  H -3.44608472 -2.37242604  0.24626965
  H -2.41153352 -3.81402305  0.06208847
  H -2.86759357 -2.82822980 -1.34403513
  H  0.99816585  1.59433270 -1.03374308
  H -0.67650242  2.13937700 -0.82048441
  H -0.27696168  1.03921177 -2.15097548
  H  1.85570298  0.55777930  2.69223331
  H  4.30127503  0.89045497  2.82545719
  H  5.70395929  0.54766296  0.82264422
  H  4.65739748 -0.14986971 -1.30066493
  H  2.23018305 -0.48011362 -1.43677359
