16
opt_min/./Reactant_641_1_opt.xyz
  N  3.80395263 -0.75509661  4.19731595
  C  3.12602733 -0.73397876  3.25995832
  C  2.33735261 -0.70339881  2.18292752
  N  1.64965725 -0.66284526  1.22550085
  N  1.18944886 -0.75340087  0.11295369
  C  0.09135567 -0.12530992 -0.41189321
  C -0.93347825  0.39883271  0.38338209
  C -2.02512120  0.99868889 -0.20984410
  C -2.11156137  1.08005008 -1.59106428
  C -1.10013055  0.56032904 -2.38288532
  C -0.00264940 -0.04303779 -1.80175700
  H -0.85741644  0.33103032  1.46065661
  H -2.81372488  1.40220127  0.40725434
  H -2.96929412  1.54871813 -2.05022759
  H -1.16660088  0.62618046 -3.45834724
  H  0.79269322 -0.45266767 -2.40531153
