24
opt_min/./Reactant_1688_0_opt.xyz
  C  2.11180308 -0.33422907 -1.30360797
  C  1.38290935 -0.42510350  0.05072940
  C  2.25530598 -0.98961879  1.06000228
  N  2.87957004 -1.53851644  1.84372549
  C  0.79960272  0.82513730  0.49735164
  C -0.07159871  1.53983604  0.91930459
  C -1.44107054  1.92082634  1.19854734
  F -1.92803673  2.82757747  0.30410561
  F -1.60335751  2.50096363  2.42026416
  C -2.25170335  0.60616293  1.15497093
  C -2.30095730 -0.14542854 -0.18629111
  C -1.01387219 -0.64799847 -0.86833626
  C  0.08946445 -1.30307644  0.00406171
  H  2.00701701  0.65876126 -1.73373570
  H  3.17389691 -0.53919736 -1.18285367
  H  1.70182842 -1.06000270 -2.00106435
  H -1.85405757 -0.02537293  1.95175816
  H -3.28052780  0.86982010  1.41898309
  H -2.79631049  0.50902707 -0.90771727
  H -2.96364733 -0.99860413 -0.02098353
  H -1.29255192 -1.40915494 -1.60044948
  H -0.57198129  0.18064776 -1.41926811
  H -0.26422166 -1.43103500  1.02872131
  H  0.34266271 -2.29249618 -0.38160967
