31
opt_min/./Reactant_2944_1_opt.xyz
  C -2.96221800 -3.71989600 -0.23534200
  N -2.55655508 -2.34286793 -0.33721000
  C -1.28683411 -1.95438530 -0.19433205
  O -0.34055291 -2.71548262  0.01961074
  C -1.00155601 -0.49841084 -0.33163463
  N  0.32254817 -0.30796261 -0.28935596
  C  1.19165883  0.64630342 -0.56547218
  C  0.91028579  1.88185096 -1.35778963
  C  2.59847616  0.36926442 -0.28853161
  O  3.50654154  1.13204331 -0.53546463
  O  2.77425108 -0.83278401  0.31202027
  C  4.10710648 -1.21558656  0.61587684
  C -2.07201342  0.48516807 -0.32463411
  O -3.22951835  0.20963969 -0.63984486
  N -1.75471099  1.72237414  0.14928196
  C -2.77132138  2.73748758  0.30869075
  H -2.06774592 -4.34181575 -0.24570356
  H -3.60483558 -3.98482221 -1.07502757
  H -3.50593825 -3.90033349  0.69603090
  H -3.25070783 -1.61913332 -0.51686509
  H  0.74622301 -1.22493798 -0.00290995
  H -0.12594564  2.19827042 -1.32431414
  H  1.56281403  2.69012796 -1.03634705
  H  1.15296277  1.67243274 -2.40343472
  H  4.33050525 -0.95837505  1.65298759
  H  4.16366645 -2.29279918  0.47504364
  H  4.80348198 -0.69843355 -0.04655628
  H -0.88485289  1.85613405  0.63672872
  H -3.74457801  2.25279434  0.38985753
  H -2.78789529  3.40655539 -0.55512166
  H -2.58008141  3.32056953  1.20745736
