19
opt_min/./Reactant_2005_0_opt.xyz
  C  4.40189100 -0.07724700 -0.40154600
  N  2.96657341 -0.20856695 -0.32862378
  C  2.22064089  0.56357411  0.46924111
  O  2.62301977  1.43768171  1.21432294
  N  0.84437280  0.27812279  0.31332275
  N  0.13143161  1.05004229  1.01154714
  N -1.11545844  1.08664155  1.16402296
  C -1.94946973  0.38279585  0.29657032
  O -1.74268114  0.18030589 -0.87021617
  O -3.06525576  0.06376155  0.95561022
  C -4.10445168 -0.55710621  0.21335855
  H  4.78256871 -0.70408687 -1.20226755
  H  4.85624566 -0.37895711  0.54506140
  H  4.67360644  0.96360179 -0.58829111
  H  2.48126345 -0.85353564 -0.93083360
  H  0.66007000  1.74427344  1.60074380
  H -5.01925352  0.01184915  0.37803365
  H -4.23200045 -1.57679024  0.58009364
  H -3.85185009 -0.57129280 -0.84864077
