25
opt_min/./Reactant_5844_1_opt.xyz
  C  4.36918900 -0.67940100  0.99293800
  N  3.03703856 -0.30655126  0.57152398
  C  2.72506812 -0.23452168 -0.74968990
  O  3.47906899 -0.55799064 -1.63677915
  C  1.34407662  0.24506534 -1.03622727
  O  1.12124060  0.96758342 -2.11980122
  C -0.28213653  1.22575665 -2.21560258
  O -0.72506237  1.88612708 -3.10399237
  C -0.83489757  0.55746755 -1.07462383
  C -2.24335853  0.56560135 -0.74929843
  O -3.09698580  1.05151875 -1.44501571
  O -2.53128499 -0.00747103  0.45682592
  C -3.90110031  0.00716445  0.82693324
  N  0.21155516 -0.02369052 -0.39572507
  C  0.10538862 -0.87719775  0.76145537
  H  4.79508804 -1.31910656  0.22291051
  H  5.01006205  0.19705710  1.11366106
  H  4.31406169 -1.21989311  1.93587239
  H  2.47838280  0.19040072  1.24670410
  H -4.36014470  0.95342992  0.53669555
  H -3.92754715 -0.12144793  1.90651063
  H -4.43292858 -0.80940030  0.33439928
  H  0.86123196 -1.65866579  0.71156579
  H  0.23122350 -0.30107649  1.67910933
  H -0.88761867 -1.31790227  0.78012760
