17
opt_min/./Reactant_756_1_opt.xyz
  C  2.79525400  0.45475800  0.21527100
  O  1.64910266  1.06361172 -0.35331438
  C  0.58327116  0.26407788 -0.49840251
  C  0.29419986 -1.00927052 -0.24316032
  F  1.02354845 -2.00077769  0.30469623
  C -1.17659982 -1.19064324 -0.62675475
  C -1.96497223 -0.39135433  0.41902504
  C -1.69011709  0.87529994  0.15056034
  C -0.74228406  0.82131263 -1.05318125
  O -1.24510150 -0.31144460 -1.73959946
  H  3.57069579  1.21974711  0.21856000
  H  3.12238793 -0.40207274 -0.37828149
  H  2.59523590  0.12228035  1.23735315
  H -1.50709043 -2.19508176 -0.86503484
  H -2.57405871 -0.81276252  1.19224936
  H -2.00823743  1.77273344  0.63955358
  H -0.66885764  1.69644951 -1.68864349
