10
opt_min/./Reactant_5625_1_opt.xyz
  O  2.88813888 -0.84774209  0.48997433
  C  2.68168356 -0.14623793 -0.38985991
  O  2.49208595  0.54765073 -1.27844313
  C -0.31413176 -0.29709904  0.46454181
  C -0.73309844  0.41968685 -0.39372841
  C -3.79771076  0.43157444  0.24993920
  O -3.66462289 -0.25930205  1.15125530
  O -3.94723218  1.13751485 -0.63823763
  H  0.04780528 -0.92552152  1.22419086
  H -1.09293570  1.05056354 -1.15242107
