27
opt_min/./Reactant_2492_0_opt.xyz
  C  1.21372285  1.53417707 -3.61080702
  O  0.66121357  1.22267740 -2.34241913
  C  0.68919543 -0.07714077 -1.99680351
  O  1.13346007 -0.95660011 -2.70441368
  C  0.13466722 -0.32026793 -0.66749586
  C  0.15565436 -1.72184587 -0.15825223
  O -0.21771262  0.74770895 -0.01005653
  C -0.73935457  0.93189472  1.18411571
  C -0.61160842  2.24221216  1.67306009
  N -0.46797800  3.30121299  2.09950625
  C -1.49447617 -0.00937694  2.00220332
  C -1.37131296  0.03014514  3.39529303
  C -2.12808324 -0.80953017  4.18656178
  C -3.02810042 -1.69356648  3.60889712
  C -3.18242960 -1.71613529  2.23348383
  C -2.42692488 -0.88072676  1.43060814
  H  2.29534264  1.38428003 -3.60024360
  H  0.97740891  2.57928010 -3.79468312
  H  0.77660072  0.89675867 -4.38219868
  H  1.10616991 -1.90465026  0.34994553
  H  0.10623230 -2.40098337 -1.00642050
  H -0.64388766 -1.93824691  0.54531199
  H -0.66996480  0.71812574  3.84350993
  H -2.01736238 -0.77564345  5.25976483
  H -3.61510589 -2.35166799  4.23105162
  H -3.89930516 -2.38312787  1.77807720
  H -2.60108906 -0.87055408  0.36396757
