15
opt_min/./Reactant_1074_0_opt.xyz
  C  3.18170900  0.23269600 -0.34754200
  N  1.75947037  0.17624107 -0.36944752
  O  1.25981696  0.49313404  0.78135033
  N  0.00711589  0.52906410  1.05327472
  C -0.93797913  0.01076844  0.15820651
  O -0.71145151 -0.65702669 -0.82530126
  N -2.17854837  0.34381354  0.59876569
  C -3.37474902 -0.14864058 -0.02937297
  H  3.56689656 -0.78036277 -0.48669308
  H  3.57487750  0.64147967  0.58864597
  H  3.49910044  0.83064123 -1.20043927
  H -2.24075516  0.84308539  1.47064743
  H -3.89507261 -0.86384818  0.61252202
  H -4.04927194  0.67658863 -0.26335148
  H -3.07597363 -0.64645429 -0.95052284
