11
opt_min/./Reactant_3613_1_opt.xyz
  C  3.33629978 -0.53862692  0.56466748
  N  2.25401208 -0.45055010  0.15500988
  N  1.20463543 -0.33347771 -0.45638184
  C  0.00406767  0.00707241  0.10722457
  O -0.24977323  0.01348985  1.28535916
  O -0.86047222  0.28318321 -0.87980120
  C -2.18192337  0.59053023 -0.46036986
  H  4.33703477 -0.59137562  0.85807044
  H -2.64459346 -0.27665255  0.01493853
  H -2.72260912  0.86626282 -1.36277657
  H -2.17530304  1.41869057  0.25207268
