18
opt_min/./Reactant_4029_0_opt.xyz
  C  3.92994717 -0.03372264 -0.73302320
  C  2.56128952  0.27071521 -0.41595988
  N  1.47480494  0.60318420 -0.15002797
  N  0.40668800  1.13513985  0.14344563
  C -0.78582369  0.47181016  0.24198808
  C -0.92831351 -0.90587242  0.03419243
  C -2.16768558 -1.49916929  0.15366447
  C -3.28375307 -0.74632002  0.47938560
  C -3.14772039  0.61899309  0.68509233
  C -1.91611824  1.22634086  0.56939622
  H  4.16648531 -1.05348763 -0.42240816
  H  4.11220382  0.05699001 -1.80608401
  H  4.59708633  0.65045669 -0.20254883
  H -0.05849235 -1.49753734 -0.22178420
  H -2.26457308 -2.56476146 -0.00911948
  H -4.25076894 -1.21738579  0.57201595
  H -4.01364973  1.21386793  0.93878680
  H -1.80187338  2.28815159  0.72742977
