43
opt_min/./Reactant_2971_0_opt.xyz
  C  0.28642257 -1.31949043 -3.54217480
  N  0.18781881 -0.74494633 -2.21949792
  C -0.81157764 -1.06923262 -1.38253769
  O -1.66547748 -1.88559784 -1.64235680
  C -0.81607785 -0.28425126 -0.04189134
  C -1.88102643  0.77374425 -0.25607038
  C -1.53843571  1.86713183 -1.05157978
  C -2.45128000  2.86343632 -1.33253035
  C -3.73790681  2.78564061 -0.82390224
  C -4.09029723  1.70135475 -0.04349444
  C -3.17251567  0.70187834  0.23984531
  C  0.51759374  0.29701521  0.20713772
  C  1.56144670  0.17790574  0.82399400
  C  2.56152109 -0.23377535  1.83827563
  C  3.94514532 -0.20138013  1.15964534
  F  3.95578593 -1.02952990  0.10081935
  F  4.25908567  1.00755871  0.68767751
  F  4.94475077 -0.58882454  1.95396351
  C  2.54999694  0.79782399  2.98304120
  F  1.41896431  0.72992355  3.69500126
  F  2.64092033  2.05458814  2.54266637
  F  3.55267419  0.60631459  3.84600339
  C  2.41914805 -1.70755885  2.46648677
  C  1.01157675 -2.27605332  2.86815053
  C  0.18428542 -1.61211882  1.77494219
  C -1.16777191 -1.34460391  1.13158931
  H  1.29314934 -1.17750174 -3.92432237
  H  0.05842999 -2.38407653 -3.48811249
  H -0.43114180 -0.85158483 -4.22093409
  H  0.88614791 -0.08055788 -1.92322128
  H -0.53332417  1.94452156 -1.44379210
  H -2.16226775  3.70190894 -1.94856937
  H -4.45759187  3.56096022 -1.03873764
  H -5.09134812  1.62109976  0.35358422
  H -3.50235615 -0.14332762  0.82198015
  H  2.82440602 -2.37778457  1.70570357
  H  3.09912742 -1.72483985  3.32223424
  H  0.72525037 -1.95940442  3.86971448
  H  1.05541505 -3.36353648  2.84196141
  H  0.34825030 -0.60187537  2.13067104
  H  0.77853317 -1.86836682  0.89535239
  H -1.85387260 -0.89086599  1.84250140
  H -1.64445467 -2.19243713  0.64073775
