20
opt_min/./Reactant_1671_1_opt.xyz
  F -2.52961504 -0.35994758  1.16117221
  C -1.80337999  0.62219795  0.55556219
 Br -2.96027951  2.25453832  0.59649802
  C -0.53099675  0.82854534  1.17442581
  C  0.66681116  0.80510852  1.25088061
  C  2.00986378  0.37197203  1.00169518
  C  1.81510670 -0.91823017  0.17480978
  C  0.98198380 -0.78265823 -1.11460922
  C -0.55527755 -0.96602855 -1.08402067
  C -1.49640002  0.24182343 -0.89823220
  H  2.56183671  0.16151329  1.92334162
  H  2.56268629  1.12014274  0.42925321
  H  1.36493669 -1.68668587  0.80714513
  H  2.81164747 -1.26972088 -0.10615045
  H  1.23179359  0.14678039 -1.63108817
  H  1.33510361 -1.60212103 -1.75084829
  H -0.81804397 -1.75438598 -0.37557583
  H -0.80917557 -1.34036981 -2.08116722
  H -2.45334673 -0.00629127 -1.36527615
  H -1.08838880  1.11817962 -1.40542699
