38
opt_min/./Reactant_3086_1_opt.xyz
  N -0.67074702 -2.78182791 -2.77172116
  C -0.02740164 -1.90648398 -2.38167385
  C  0.76502088 -0.83066125 -1.98706971
  O  0.32102167  0.18438687 -1.25029775
  C -0.82753848  0.33349964 -0.64163560
  C -1.06361930  1.64782877 -0.09075964
  C -2.06550415  1.85463915  0.86779014
  C -2.27816921  3.11017538  1.39711525
  C -1.49848020  4.18446790  0.99343243
  C -0.49902284  3.99161736  0.05108899
  C -0.28109891  2.74181953 -0.48822158
  C -1.81234578 -0.74005853 -0.49276371
  C -3.14088112 -0.52937700 -0.86471963
  C -4.07374914 -1.53503976 -0.70394005
  C -3.70087961 -2.75328939 -0.15990874
  C -2.38802365 -2.96592554  0.22618641
  C -1.44669473 -1.96975932  0.05697757
  C  2.14048339 -0.74239865 -2.43536507
  C  2.65851673 -1.69318600 -3.32304743
  C  3.96889259 -1.60610089 -3.74592330
  C  4.78600714 -0.57922905 -3.29852041
  C  4.28138585  0.36398816 -2.41647444
  C  2.97449355  0.28689159 -1.98211668
  H -2.66207488  1.01869987  1.20087886
  H -3.05266019  3.25337803  2.13557980
  H -1.66943761  5.16496732  1.41088158
  H  0.10857678  4.82588230 -0.26762189
  H  0.48641923  2.60269726 -1.23509356
  H -3.42546263  0.41897443 -1.29583730
  H -5.09598460 -1.36669550 -1.00770033
  H -4.43247520 -3.53783884 -0.03917011
  H -2.09316647 -3.91135147  0.65458289
  H -0.42562467 -2.13878784  0.36997237
  H  2.02046941 -2.49024159 -3.67470636
  H  4.35679809 -2.34508678 -4.43129390
  H  5.81036214 -0.51607741 -3.63213721
  H  4.91394119  1.16406298 -2.05963920
  H  2.59049546  1.01730929 -1.28528954
