24
opt_min/./Reactant_5455_1_opt.xyz
  C  4.96510800 -0.62959900 -0.90335400
  O  3.63351162 -0.26154013 -0.54842219
  C  3.47885118  0.90087739  0.10901257
  O  4.36561487  1.63929210  0.45044902
  C  2.06533886  1.09006006  0.43339781
  O  1.58922197  2.11945203  1.11583780
  C  0.19809161  1.96433161  1.23067247
  O -0.50153853  2.75340354  1.80244941
  C -0.05510474  0.72465845  0.53270029
  C -1.29507251  0.03623734  0.30796856
  C -2.48866965  0.57608782  0.80513478
  C -3.67969879 -0.08632932  0.58879981
  C -3.70561263 -1.28005175 -0.11549166
  C -2.52587937 -1.81721677 -0.60904912
  C -1.32598747 -1.16908707 -0.40245401
  O  1.11281322  0.26233459  0.08589208
  H  5.05549881 -0.59547248 -1.98972078
  H  5.13305599 -1.64479983 -0.54509727
  H  5.67214056  0.06529550 -0.44708211
  H -2.45618279  1.50395769  1.35074187
  H -4.59870235  0.33142250  0.97286251
  H -4.64142120 -1.79249971 -0.28075857
  H -2.54457915 -2.74684757 -1.15776498
  H -0.40389116 -1.58130541 -0.78373285
