23
opt_min/./Reactant_5766_1_opt.xyz
  C -1.23694899  1.62967600 -1.13741000
  N -1.06659282  1.18569249  0.22199461
  C -0.28043502  0.22286305  0.69842614
  C  0.64448131 -0.67547253  0.05067678
  C  0.99040399 -0.62600239 -1.30511913
  C  1.89082794 -1.53736018 -1.82406297
  C  2.46411614 -2.50781981 -1.02015794
  C  2.13312224 -2.56352019  0.32503119
  C  1.23693975 -1.66109175  0.85638441
  O -0.44202661  0.12663767  2.01940554
  C -1.38972041  1.08021622  2.46341759
  O -1.69416426  1.17844146  3.61954561
  C -1.77362344  1.74934696  1.26320772
  C -2.68613129  2.77950055  1.09848773
  N -3.44058398  3.63287339  0.93192573
  H -2.01857634  2.38976400 -1.14998281
  H -0.31213885  2.07270171 -1.51124336
  H -1.53346411  0.79687793 -1.77553210
  H  0.57873175  0.11664267 -1.96426526
  H  2.14762407 -1.48492440 -2.87183130
  H  3.16523158 -3.21406731 -1.43754036
  H  2.57612806 -3.31408560  0.96137428
  H  0.97728879 -1.70237327  1.90184797
