10
opt_min/./Reactant_4394_1_opt.xyz
  O  2.88813886 -0.84774212  0.48997444
  C  2.68168452 -0.14624341 -0.38986446
  O  2.49208086  0.54764862 -1.27844381
  C -0.31413681 -0.29709899  0.46454420
  C -0.73310308  0.41968949 -0.39372384
  C -3.79772158  0.43158425  0.24994271
  O -3.66462580 -0.25930730  1.15124544
  O -3.94723491  1.13751277 -0.63824456
  H  0.04780379 -0.92551744  1.22419457
  H -1.09294286  1.05056694 -1.15241433
