36
opt_min/./Reactant_2160_1_opt.xyz
  F  1.28135400  2.23474800  0.18566300
  C  0.90817817  0.94350888 -0.04723761
  C -0.39846466  0.63427356 -0.03205138
  C -0.85450021 -0.76850204 -0.10424084
  C -0.36282565 -1.72534731  0.77898560
  C -0.82448894 -3.02756147  0.72075111
  C -1.77853004 -3.38655099 -0.21698839
  C -2.27713011 -2.43783854 -1.09203023
  C -1.82425871 -1.13230447 -1.03349628
  C -1.46311231  1.63896908  0.10855596
  C -1.40475867  2.86867618 -0.54592523
  C -2.42843285  3.78510575 -0.40619867
  C -3.52458618  3.49535673  0.38900209
  C -3.59460104  2.27480412  1.04175117
  C -2.57717660  1.35226818  0.90001097
  C  2.04769981  0.05649249 -0.25942108
  C  3.23383209  0.29384732  0.43557995
  C  4.32927194 -0.52957035  0.25485617
  C  4.25988833 -1.59432932 -0.62536235
  C  3.09345967 -1.82118083 -1.33820721
  C  1.99382384 -1.00179002 -1.16483427
  H  0.37668001 -1.43705623  1.51176884
  H -0.44185821 -3.76438183  1.41209488
  H -2.13730452 -4.40488300 -0.26360572
  H -3.02415013 -2.71412905 -1.82077527
  H -2.21466933 -0.39022529 -1.71494602
  H -0.56186842  3.09859096 -1.18003660
  H -2.37165422  4.73307895 -0.92301676
  H -4.32170422  4.21353082  0.49996735
  H -4.44832777  2.04239823  1.66377174
  H -2.63346617  0.40377064  1.41533546
  H  3.28938790  1.12359108  1.12348708
  H  5.23979426 -0.33929886  0.80251212
  H  5.11602507 -2.24108478 -0.76278586
  H  3.03988978 -2.63925242 -2.04145771
  H  1.09903015 -1.16967777 -1.74190933
