20
opt_min/./Reactant_4966_0_opt.xyz
  C -0.67630700  1.51674700 -0.59377800
  C  0.74432696  1.95366570 -0.39061551
  C  1.71647405  1.09539100 -0.10842630
  N  1.48183114 -0.26242206  0.08301306
  C  2.57266233 -1.12168274  0.45521131
  C  0.18261515 -0.67080996  0.21777550
  C -0.87216749  0.11263560 -0.06241883
  C -2.27375315 -0.27396754  0.15358961
  N -2.53638416 -1.59573070  0.38619844
  O -3.18593611  0.53595364  0.14122622
  H -1.37370554  2.19125068 -0.08510204
  H -0.93703644  1.55219226 -1.66113415
  H  0.96840634  3.00286720 -0.49588104
  H  2.74429083  1.40333100  0.01601926
  H  2.87456864 -0.96876266  1.49885433
  H  3.43309882 -0.92367188 -0.18513900
  H  2.28022632 -2.16315567  0.32789185
  H  0.07001639 -1.67516527  0.60742590
  H -1.86958470 -2.32455831  0.22122833
  H -3.50869732 -1.85210106  0.43613787
