36
opt_min/./Reactant_3151_1_opt.xyz
  F -3.01350191  0.95905838  2.01099451
  C -2.70626373 -0.27779100  1.61605135
  F -3.77351360 -1.04613275  1.86786022
  F -1.72948562 -0.71333512  2.42933198
  C -2.24865833 -0.35342285  0.15237905
  C -3.31813383  0.23626324 -0.77265760
  F -3.56553316  1.52550320 -0.54888498
  F -2.93615975  0.13377654 -2.05341436
  F -4.48628511 -0.41312966 -0.67509966
  C -1.00698907  0.44446839  0.02294799
  C  0.16613711  0.27705395 -0.27754556
  C  1.47855023 -0.13581702 -0.78444025
 Cl  1.36959467  0.13524617 -2.58875966
  C  2.62318627  0.66326668 -0.21234647
  C  3.84400085  0.74245260 -0.86958914
  C  4.89137642  1.45201317 -0.31060735
  C  4.73144854  2.08291822  0.91116502
  C  3.51801992  2.00216323  1.57229842
  C  2.46665655  1.29581143  1.01553832
  C  1.80354716 -1.67739806 -0.57313847
  C  0.72182096 -2.76765702 -0.88288682
  C -0.51805318 -2.00524226 -0.42325297
  C -2.02450037 -1.92043941 -0.24026834
  H  3.97070815  0.25961179 -1.82665330
  H  5.83462242  1.51226182 -0.83254624
  H  5.54927413  2.63843533  1.34508781
  H  3.38520689  2.49303268  2.52462106
  H  1.51950570  1.23736205  1.53151963
  H  2.69833596 -1.86696950 -1.16680547
  H  2.07804055 -1.76793345  0.48111198
  H  0.69890278 -3.01425998 -1.94244505
  H  0.95834672 -3.66474731 -0.31198776
  H -0.18019886 -1.66584237  0.55846365
  H -0.44122758 -1.24455678 -1.19807236
  H -2.58615570 -2.14436122 -1.14598549
  H -2.40725172 -2.53418252  0.57474633
