28
opt_min/./Reactant_2679_1_opt.xyz
  C -0.13601400  3.18922000 -1.36895800
  C  0.77273577  2.01113284 -1.06264265
  O  1.98194223  2.09676854 -1.23521587
  C  0.14806136  0.79647800 -0.60342528
  O -1.17364641  0.83261728 -0.46462070
  C -2.06838464 -0.06857788 -0.26563170
  C -1.86165532 -1.54497619 -0.23255872
  C -3.45819809  0.46997116 -0.08733130
  C  0.99126321 -0.34644469 -0.22146826
  C  0.85012470 -0.92564955  1.04331820
  C  1.68733766 -1.94750576  1.44411510
  C  2.68671015 -2.40013371  0.59718835
  C  2.84758948 -1.81778773 -0.64866299
  C  2.00976787 -0.79678094 -1.05761970
  H -1.13926489  3.06101452 -0.97915856
  H  0.31274916  4.08640275 -0.95044843
  H -0.18231392  3.31701995 -2.44894959
  H -0.87404719 -1.82298573 -0.58623583
  H -1.99306262 -1.93716894  0.77766757
  H -2.60832560 -2.02025684 -0.86794759
  H -3.51922041  1.08906287  0.80809946
  H -3.74280863  1.09509888 -0.93351622
  H -4.16855413 -0.34430283  0.00500262
  H  0.08737628 -0.55975607  1.71640052
  H  1.56916205 -2.38281902  2.42551472
  H  3.34287066 -3.19812829  0.91276329
  H  3.63150989 -2.16144665 -1.30695938
  H  2.14207794 -0.33598660 -2.02395229
