37
opt_min/./Reactant_2953_1_opt.xyz
  C  2.35779323  3.44318064  1.91983796
  O  1.67225082  2.39271917  1.24975817
  C  2.29336983  1.87408791  0.18303437
  O  3.35056323  2.25286875 -0.22843424
  C  1.43381252  0.76611486 -0.43003126
  C  2.30334156 -0.29680369 -1.11640377
  O  3.41852014 -0.14229412 -1.51566958
  O  1.59926513 -1.42912866 -1.23604682
  C  2.22093290 -2.52509330 -1.89944741
  C  0.52174299  0.17574348  0.51754348
  C -0.48572973 -0.31798398  0.94626578
  C -1.90043105 -0.46709309  1.06557418
 Br -2.50426576 -0.83555783  2.94788950
  C -2.40378277 -1.68907243  0.28621172
  C -1.63747383 -2.95588051  0.52657715
  O -3.35908957 -1.60636018 -0.43743031
  C -2.54203332  0.84500762  0.60555408
  C -2.09113201  1.40903267 -0.75799392
  C -0.73383476  2.13441542 -0.88712468
  C  0.45993976  1.36622035 -1.49194010
  H  3.37811210  3.13793290  2.15707724
  H  1.79390637  3.64279403  2.82720279
  H  2.39467110  4.33274213  1.28784248
  H  3.17664992 -2.21194179 -2.32249518
  H  2.37872712 -3.32535695 -1.17602106
  H  1.54776758 -2.86322902 -2.68640826
  H -0.58365263 -2.75056325  0.69684825
  H -2.04586489 -3.44846881  1.40923998
  H -1.76363703 -3.62451737 -0.32132971
  H -3.61759543  0.65734430  0.53093004
  H -2.38525238  1.60951391  1.37044382
  H -2.84880207  2.17081910 -0.96399574
  H -2.18699213  0.64681999 -1.53176696
  H -0.45470519  2.56440766  0.07473841
  H -0.90836091  2.97200437 -1.57097699
  H  1.04064980  2.03703912 -2.12962286
  H  0.08610961  0.55255365 -2.11560170
