60
opt_min/./Reactant_3211_0_opt.xyz
  C -0.52032038  0.05207809  0.11104700
  C  0.65430688 -0.05973657 -0.10459123
  C  1.92973006  0.08081359 -0.77944529
  C  2.58985235 -1.28717002 -0.85999921
  C  1.98483773 -2.30777603 -1.58614290
  C  2.54199100 -3.57293513 -1.63358257
  C  3.71007622 -3.84755439 -0.94466092
  C  4.30114019 -2.84835869 -0.19177477
  C  3.74338897 -1.58291895 -0.14463555
  C  2.80848192  1.09858656 -0.07483814
  C  3.95237684  1.57327420 -0.70293670
  C  4.75813801  2.51548354 -0.09059908
  C  4.43288556  2.99889966  1.16551568
  C  3.30194697  2.52207760  1.80667320
  C  2.49749670  1.58048198  1.18975833
  C  1.48029743  0.62362426 -2.16122212
  C  0.62736531  1.90775809 -2.13046969
  C -0.91776225  1.82118915 -2.09454747
  C -1.68100213  1.86608114 -0.75726718
  C -1.88454675  0.52438235 -0.01056341
  C -2.70490873 -0.50622475 -0.76329796
  C -2.43718480 -1.85606055 -0.55421658
  C -3.18378834 -2.83496850 -1.18033864
  C -4.21657424 -2.48336844 -2.03020431
  C -4.49511853 -1.14618740 -2.24404185
  C -3.74718624 -0.16393627 -1.61487574
  C -2.56580240  0.77248927  1.32517234
  C -3.88375273  1.21449126  1.37849872
  C -4.50089474  1.44040285  2.59392437
  C -3.81434701  1.22496196  3.77722967
  C -2.50811543  0.77651518  3.73485168
  C -1.88961298  0.55055847  2.51776021
  H  1.05622404 -2.12807241 -2.10754620
  H  2.05537071 -4.34820567 -2.20868878
  H  4.15015206 -4.83423525 -0.98798655
  H  5.20226248 -3.05319346  0.36675042
  H  4.21853181 -0.82186949  0.45885613
  H  4.23436278  1.19000312 -1.67398805
  H  5.64625696  2.87045593 -0.59606955
  H  5.05802073  3.73844084  1.64143206
  H  3.04052180  2.88542252  2.79079908
  H  1.61884923  1.21014267  1.69705193
  H  0.92848657 -0.13810187 -2.71043271
  H  2.37840308  0.84614874 -2.74572219
  H  0.98331999  2.58653629 -1.35129851
  H  0.83369695  2.37665245 -3.10084015
  H -1.23244953  2.74922315 -2.58865092
  H -1.26246640  0.98201763 -2.70350162
  H -2.66172956  2.30628653 -0.95898308
  H -1.16792611  2.55853623 -0.08398264
  H -1.63002097 -2.13850278  0.10957197
  H -2.95534088 -3.87789402 -1.00394638
  H -4.80198244 -3.24732246 -2.52458428
  H -5.29940947 -0.86122213 -2.90820764
  H -3.97967224  0.86953245 -1.81812902
  H -4.43751156  1.37583905  0.46699976
  H -5.52577792  1.78396810  2.61781555
  H -4.29760723  1.40294577  4.72755221
  H -1.96547164  0.59965570  4.65438801
  H -0.87187360  0.19339440  2.48836189
