30
opt_min/./Reactant_2147_0_opt.xyz
  C  4.06623700  2.47909800  0.26787900
  O  2.77002982  1.95952216  0.05706224
  C  2.64495657  0.59957404  0.21408050
  O  3.60879044 -0.09508913  0.50602195
  C  1.29823018  0.23136792 -0.01693838
  N  0.78153344 -1.01824517  0.02410089
  C  1.70961959 -2.12449326  0.18089706
  C -0.50672787 -1.28399102 -0.10827384
  C -1.00004096 -2.69800328 -0.18299522
  C -1.52232092 -0.22933885 -0.15479037
  C -1.57613680  0.78026984  0.81023157
  C -2.58120802  1.72622208  0.78593301
  C -3.55125949  1.69199934 -0.20335821
  C -3.51539892  0.69303785 -1.16068467
  C -2.51822051 -0.26370839 -1.13341923
  H  4.07649794  3.47141405 -0.17869890
  H  4.28284453  2.54550576  1.33803213
  H  4.81592594  1.83686445 -0.20035822
  H  0.62211651  1.03267502 -0.25417728
  H  1.38996451 -2.98598201 -0.39781947
  H  1.78104175 -2.39747766  1.23521916
  H  2.70060500 -1.81370814 -0.14155556
  H -0.63540397 -3.29289120  0.65486087
  H -0.69649463 -3.19065971 -1.11039553
  H -2.08610286 -2.69832228 -0.14380997
  H -0.83657358  0.80215965  1.59693016
  H -2.61220421  2.49429622  1.54444566
  H -4.33190360  2.43763057 -0.22532042
  H -4.26787295  0.65637894 -1.93506829
  H -2.49278361 -1.03174468 -1.89243427
