29
opt_min/./Reactant_856_1_opt.xyz
  C -4.22657200 -0.04297000  2.18912700
  O -3.22000586 -0.17951621  1.20253702
  C -3.62462356 -0.07298798 -0.09276017
  O -4.78323334  0.10935179 -0.41387181
  C -2.52500420 -0.20571043 -1.02286589
  C -2.83843267 -0.11966294 -2.48620300
  O -1.35618561 -0.36834986 -0.45174264
  C -0.12684318 -0.49956759 -0.83562372
  C  0.29071732 -0.52797182 -2.27527896
  C  0.83388882 -0.59289499  0.24238730
  C  0.39196856 -0.69080531  1.57442852
  C  1.28702677 -0.77274895  2.61690210
  C  2.65456254 -0.75806230  2.37577622
  C  3.10649712 -0.65449495  1.07136431
  C  2.21544802 -0.57279938  0.01877633
  H -5.19704396 -0.32143529  1.77307086
  H -3.95866588 -0.70087114  3.01419950
  H -4.26768859  0.99281045  2.53443045
  H -3.87801591  0.19284677 -2.55984158
  H -2.74700159 -1.08451677 -2.98676970
  H -2.21417711  0.61095504 -2.99750325
  H -0.48145059 -0.97728725 -2.88991538
  H  1.19928643 -1.10946259 -2.40279940
  H  0.48458445  0.48291687 -2.64073252
  H -0.66869493 -0.70079440  1.77395828
  H  0.91993270 -0.85085837  3.62980418
  H  3.35614499 -0.82286766  3.19331604
  H  4.16783473 -0.63283339  0.86895588
  H  2.61200144 -0.47735797 -0.98011744
