37
opt_min/./Reactant_3111_0_opt.xyz
  C  2.64027400  1.14498500 -1.81015300
  O  1.70473763  0.37207082 -1.07561330
  C  2.19725630 -0.19513435  0.05254207
  O  3.35096257 -0.10144938  0.37799503
  C  1.19368846 -1.00076102  0.76251977
  C  1.75002307 -2.04799311  1.64665444
  C  1.11797239 -2.14391416  3.02154110
  O  2.68155746 -2.74529229  1.32027891
  N -0.12344430 -0.82943443  0.58731194
  C -1.00050354 -1.97457384  0.78731124
  C -0.68021770  0.34866069  0.25452109
  C -0.05284223  1.59375819  0.69610089
  C -0.64286904  2.87965237  0.16767521
  O  0.86977596  1.60570615  1.49495196
  C -1.97735967  0.37612702 -0.42918660
  C -3.09678789  0.98479960  0.13666138
  C -4.30193623  1.01390707 -0.54003141
  C -4.41467324  0.43392000 -1.79218517
  C -3.30994201 -0.17640894 -2.36590664
  C -2.10502211 -0.20785121 -1.69251698
  H  3.45049311  0.51681761 -2.18467617
  H  3.06582277  1.92160580 -1.17123542
  H  2.08294752  1.58453689 -2.63443629
  H  0.50113986 -1.28190803  3.25234931
  H  1.92805630 -2.20416014  3.74582196
  H  0.53952287 -3.06192905  3.10935426
  H -1.45401616 -1.93074640  1.77844653
  H -0.43031527 -2.89521743  0.68294273
  H -1.79907602 -1.96285401  0.04957950
  H -1.34056987  3.29508638  0.89236671
  H -1.15332172  2.72885836 -0.77821858
  H  0.16435733  3.59900726  0.04818855
  H -3.01978160  1.42489275  1.11985165
  H -5.15910475  1.48825793 -0.08600435
  H -5.35655988  0.45591714 -2.31828064
  H -3.38816424 -0.62598422 -3.34452526
  H -1.24016759 -0.66881474 -2.14907525
