13
opt_min/./Reactant_2166_1_opt.xyz
  C  2.94429475  0.21918827  0.97014628
  C  7.26358661  6.40928196  6.44881501
  N  5.29838489  12.32798723 -16.04628397
  N -3.94015510 -14.34041252 -30.55636035
  C -27.82961826 -0.75397281 -14.64160261
  C -7.61217407  4.08152777 -1.08414224
  O  23.36924003  1.83423239 -15.98357613
  H -9.88214382  13.63538311 -7.28736730
  H  2.15695056 -22.54109962 -11.03311623
  H  8.39422432 -2.03529811 -3.94940948
  H -2.33483556 -0.65939556 -4.40398321
  H  0.78721922  1.60886340 -10.99522086
  H  0.36217587 -3.88163814 -10.23777488
