19
opt_min/./Reactant_820_0_opt.xyz
  C  4.11546100 -0.06909900 -0.41521600
  N  2.98462936 -0.19927166  0.47020551
  C  1.71627412  0.02454165  0.06623807
  O  1.40459900  0.34798642 -1.07391218
  C  0.68373633 -0.15106393  1.08969730
  N -0.53755108  0.07526895  0.68578540
  N -1.60876027 -0.00079251  1.38255172
  C -2.82786552  0.25252738  0.78769803
  C -2.87740803  0.42817455 -0.72333011
  O -3.82408520  0.30946106  1.47049535
  H  4.65129289 -1.01517210 -0.50149089
  H  4.80072781  0.69859137 -0.05435285
  H  3.73120589  0.21895687 -1.39148728
  H  3.16019008 -0.45948391  1.42665390
  H  0.87865182 -0.44673162  2.10457443
  H -0.55170649  0.35218792 -0.32122676
  H -2.53068168 -0.47389660 -1.22619430
  H -2.27346829  1.27311609 -1.05129543
  H -3.91070754  0.61249861 -0.99803439
