12
opt_min/./Reactant_3873_0_opt.xyz
  C -0.55075100 -1.30729300  0.02016800
  O -1.02179079 -2.42634680  0.03743069
  C -1.39839997 -0.10017913 -0.01223898
  C -0.88219528  1.13261080 -0.03128987
  C  0.57583194  1.37226030 -0.02119390
  O  1.04679826  2.49132342 -0.03846152
  C  1.42299721  0.16516626  0.01120605
  C  0.90749870 -1.06783958  0.03026819
  H -2.46684142 -0.26853361 -0.01978088
  H -1.50919876  2.01086506 -0.05497186
  H  2.49133561  0.33067487  0.01880230
  H  1.53338482 -1.94663737  0.05394937
