15
opt_min/./Reactant_1137_0_opt.xyz
  C  1.44612815 -0.37221379 -1.65619092
  C  1.27039184  0.30271186 -0.34392390
  N  0.11667050  0.39411773  0.28128772
  C -1.05233696 -0.19001118 -0.35172412
  C -0.05741334  1.00162912  1.46840063
  C -1.26750630  1.07157670  2.11758200
  N -2.26908138  1.13878541  2.69345080
  H  0.92363510  0.14980816 -2.46337517
  H  2.50277757 -0.39440828 -1.90538567
  H  1.07225361 -1.39774626 -1.64282573
  H  2.12706141  0.74862623  0.13339941
  H -1.93571286  0.01114686  0.24995720
  H -1.18011283  0.23137307 -1.34919800
  H -0.93651207 -1.27082263 -0.44716686
  H  0.80723091  1.44249540  1.93972030
