29
opt_min/./Reactant_657_1_opt.xyz
  C  1.66237975  1.88194999 -1.99609058
  C  1.37020311  0.79768334 -0.99917246
  N  0.14102839  0.43019241 -0.85887277
  C -0.99237240  0.13790366 -0.69228692
  C -2.30801539 -0.17795262 -0.46849542
  C -2.65436163 -1.23256584  0.40244980
  C -3.97711910 -1.54354424  0.61765686
  C -4.98791977 -0.83230407 -0.01526831
  C -4.65456991  0.20602607 -0.87248019
  C -3.34110693  0.54092389 -1.10722757
  C  2.39159746  0.20014642 -0.17833589
  C  2.10349233 -0.92544854  0.61135935
  C  3.06804977 -1.49024020  1.41728411
  C  4.34707005 -0.95699484  1.46480656
  C  4.64582737  0.15219369  0.69119147
  C  3.68882977  0.72662281 -0.11970169
  H  1.76738789  2.85337576 -1.50598370
  H  2.59775812  1.66832933 -2.51137194
  H  0.86135296  1.95316721 -2.72745981
  H -1.86903377 -1.78452510  0.89668209
  H -4.22693605 -2.35518226  1.28574642
  H -6.02172067 -1.08583540  0.15941939
  H -5.43693340  0.76676554 -1.36448410
  H -3.08301945  1.34985683 -1.77324764
  H  1.11314394 -1.35657919  0.57951570
  H  2.82482744 -2.35769687  2.01462297
  H  5.10012744 -1.40081844  2.09814507
  H  5.63804919  0.57991555  0.72429073
  H  3.93883124  1.59893895 -0.70287447
