29
opt_min/./Reactant_1780_1_opt.xyz
  C -3.83581209 -0.76308951  1.02190656
  O -2.45902687 -0.61015789  0.70606842
  C -2.08070719 -0.93313678 -0.52966888
  O -2.82543608 -1.33972860 -1.38116511
  C -0.58204646 -0.70015372 -0.72727839
  C -0.05383462 -1.57276433 -1.87348927
  C  0.17185905 -0.92141203  0.47688200
  C  0.95470358 -0.73266497  1.36536051
  C  2.07201319 -0.13932821  2.01968320
 Cl  3.19984812 -1.34257874  2.73779970
 Cl  1.50677223  0.94188848  3.33797853
  C  2.79617929  0.66717142  0.93741428
  C  1.96330018  1.69414181  0.14191126
  C  1.08325399  1.33186460 -1.08101795
  C -0.36701121  0.81716824 -0.96610858
  H -4.24176777 -1.64591042  0.52383210
  H -3.89567010 -0.86701416  2.10274805
  H -4.39150089  0.11879438  0.69542723
  H  0.95278347 -1.92108910 -1.65645152
  H -0.70142981 -2.43463972 -2.01457905
  H -0.03896291 -1.00690508 -2.80236262
  H  3.26811120 -0.03320853  0.24521380
  H  3.59476370  1.22884176  1.43301060
  H  1.38679720  2.31069826  0.83343804
  H  2.73570117  2.33315984 -0.30015868
  H  1.65369369  0.70185930 -1.76543617
  H  0.95424879  2.30393507 -1.57062336
  H -0.85949629  1.06019907 -1.91429312
  H -0.87466827  1.37923499 -0.17956789
