30
opt_min/./Reactant_3143_1_opt.xyz
  F  0.37418314 -1.99515134  0.66443435
  C  0.35566786 -0.72140447  0.09421957
  C  1.76377903 -0.28689545 -0.22025424
  C  2.74039975 -1.22968983 -0.50976596
  C  4.02501024 -0.81908446 -0.81720358
  C  4.33892699  0.52923734 -0.84298266
  C  3.36367707  1.47075559 -0.55870080
  C  2.07884870  1.06572741 -0.24660303
  C -0.40636999  0.14806020  0.96347798
  C -1.36171766  0.72909617  1.40240474
  C -2.73382600  1.09067224  1.51683436
 Br -3.01183451  2.90367249  0.74179531
 Br -3.37907583  1.14534072  3.39270816
  C -3.53242313  0.05636118  0.72407748
  C -3.06908253 -0.17676497 -0.72722762
  C -1.97442772 -1.23233950 -1.02757454
  C -0.50334511 -0.80253818 -1.19402306
  H  2.49658108 -2.28097700 -0.48276231
  H  4.78305979 -1.55564188 -1.03701997
  H  5.34269816  0.84666539 -1.08083390
  H  3.60432699  2.52309017 -0.57556230
  H  1.31659708  1.79759449 -0.01862362
  H -3.50212779 -0.88939708  1.27306076
  H -4.57369056  0.39326999  0.70644993
  H -3.96407600 -0.54888982 -1.23080658
  H -2.81290249  0.77006665 -1.20311233
  H -2.24029297 -1.63128066 -2.00914108
  H -2.04263035 -2.05796070 -0.31988935
  H -0.44984179  0.16076143 -1.70485869
  H -0.00619564 -1.54316711 -1.82618671
