27
opt_min/./Reactant_2050_0_opt.xyz
  C  0.48163404  3.95713903  0.41117960
  O  0.53573895  2.54182173  0.29959138
  C -0.66221513  1.91436842  0.20980216
  O -1.72127965  2.49122546  0.22905982
  C -0.46890300  0.46232900  0.10628317
  N  0.73917819  0.02421362  0.12862519
  C  1.86182927 -0.33963542  0.15335131
  C  3.19544430 -0.74202471  0.19860057
  C  4.12845133  0.42812577  0.45044132
  O  3.55892686 -1.89624912  0.04958339
  C -1.57953351 -0.48733047 -0.00154254
  C -1.41514015 -1.79729076  0.45245542
  C -2.45214696 -2.70485379  0.35194180
  C -3.66354304 -2.32131894 -0.20059931
  C -3.83068323 -1.02328889 -0.65416463
  C -2.79887852 -0.10853434 -0.56307108
  H  1.45670952  4.27378985  0.77286349
  H -0.30372049  4.25363343  1.10775056
  H  0.27605049  4.40423174 -0.56313090
  H  4.49581902  0.36583806  1.47297484
  H  4.98071486  0.34410076 -0.21918231
  H  3.62900442  1.38162761  0.30649890
  H -0.47506198 -2.09955343  0.88908405
  H -2.31332589 -3.71367937  0.70995363
  H -4.47191369 -3.03257796 -0.27647362
  H -4.77224020 -0.72397244 -1.08855716
  H -2.93494002  0.90125124 -0.91480817
