10
opt_min/./Reactant_5709_1_opt.xyz
  O  2.88813886 -0.84774212  0.48997444
  C  2.68168453 -0.14624343 -0.38986448
  O  2.49208088  0.54764861 -1.27844382
  C -0.31413684 -0.29709899  0.46454418
  C -0.73310310  0.41968950 -0.39372385
  C -3.79772162  0.43158427  0.24994271
  O -3.66462585 -0.25930731  1.15124543
  O -3.94723496  1.13751279 -0.63824455
  H  0.04780376 -0.92551743  1.22419456
  H -1.09294288  1.05056694 -1.15241433
