16
opt_min/./Reactant_642_1_opt.xyz
  N  3.80395263 -0.75509661  4.19731595
  C  3.12602730 -0.73397876  3.25995833
  C  2.33735257 -0.70339881  2.18292756
  N  1.64965720 -0.66284523  1.22550088
  N  1.18944885 -0.75340084  0.11295372
  C  0.09135565 -0.12530991 -0.41189322
  C -0.93347824  0.39883280  0.38338207
  C -2.02512117  0.99868898 -0.20984414
  C -2.11156137  1.08005009 -1.59106432
  C -1.10013058  0.56032896 -2.38288535
  C -0.00264944 -0.04303785 -1.80175701
  H -0.85741642  0.33103046  1.46065660
  H -2.81372483  1.40220142  0.40725431
  H -2.96929412  1.54871816 -2.05022764
  H -1.16660092  0.62618033 -3.45834726
  H  0.79269315 -0.45266781 -2.40531153
