25
opt_min/./Reactant_2316_1_opt.xyz
  N -2.85558056  0.50371860 -2.69178992
  C -2.35170871  0.38898597 -1.67493950
  C -1.67337067  0.23415240 -0.39978468
  C -2.62242390  0.49236510  0.67244252
  N -3.35809343  0.68222674  1.52303050
  C -0.50894949  1.10225315 -0.27226685
  C  0.64855296  1.25430898  0.01034917
  C  2.01989827  0.95148219  0.30825667
 Br  2.40403388  1.18950755  2.23500770
  C  3.01114747  1.83587653 -0.44558605
  F  2.89742631  3.12526551 -0.12491119
  F  4.27935779  1.47670636 -0.22116307
  F  2.81724882  1.74588723 -1.77304529
  C  2.17109092 -0.52475775 -0.11349466
  C  1.36034361 -1.56552827  0.67319037
  C -0.14204605 -1.36048337  0.95035129
  C -1.07226704 -1.20746568 -0.27115484
  H  3.22619556 -0.80449040 -0.03032011
  H  1.91224076 -0.56183310 -1.17709452
  H  1.48220844 -2.50734445  0.13298104
  H  1.83289747 -1.69264903  1.64975378
  H -0.27074809 -0.51842145  1.63104710
  H -0.45913293 -2.24862995  1.50100205
  H -1.90500032 -1.90787456 -0.20117696
  H -0.51920564 -1.41580384 -1.18870562
