23
opt_min/./Reactant_695_1_opt.xyz
  C -4.80750700 -0.43536900  0.08120500
  N -3.51934849  0.20515544  0.06568534
  C -2.36809075 -0.47307476 -0.06858440
  O -2.26677630 -1.68875348 -0.16561212
  C -1.16046236  0.35715810 -0.07725267
  N  0.05601437 -0.15575880 -0.19875256
  C  0.99172056  0.83884040 -0.19050644
  C  2.44358958  0.68054508 -0.32077358
  O  3.19090969  1.62133314 -0.47966715
  N  2.89190973 -0.60912733 -0.29026571
  C  4.30060069 -0.91312796 -0.36262527
  C  0.29446283  2.07582799 -0.05000870
  O  0.57974723  3.22832070  0.02456990
  O -1.11231652  1.67118954  0.02311389
  H -5.40134801 -0.14677486 -0.78730172
  H -4.64153500 -1.51058885  0.06067946
  H -5.34976831 -0.16753533  0.98864580
  H -3.47706460  1.21114345  0.12223290
  H  0.19426689 -1.14969429 -0.31149321
  H  2.29109497 -1.36196000 -0.00143626
  H  4.47154613 -1.68771494 -1.11132117
  H  4.68834857 -1.24500687  0.60262423
  H  4.81539731 -0.00128079 -0.65734995
