16
opt_min/./Reactant_4097_0_opt.xyz
  C  3.84730085  0.71317179 -0.10715282
  O  2.45951550  0.77996570  0.18164692
  C  1.71465772 -0.26160912 -0.24767680
  O  2.13967619 -1.22953559 -0.84053298
  C  0.36400515 -0.12093351  0.09206058
  N -0.80345324 -0.09811151  0.27503585
  C -2.07027031 -0.10990419  0.45152924
  C -2.89893253 -1.27527932 -0.00851983
  C -2.68365771  0.96184226  1.10830933
  N -3.22696594  1.82504411  1.63710053
  H  4.05812727  1.26277855 -1.02727316
  H  4.36518302  1.17247615  0.73251869
  H  4.15645668 -0.32694444 -0.23151500
  H -2.91825953 -2.05865717  0.75179769
  H -2.48192282 -1.69079984 -0.92374428
  H -3.92038369 -0.94571621 -0.18539949
