15
opt_min/./Reactant_3581_1_opt.xyz
  C  3.14542900  0.22983200 -0.38249500
  O  1.82319566  0.71587957 -0.21155497
  C  0.87575203 -0.17935447  0.08168302
  O  1.06832220 -1.37232262  0.20598331
  N -0.31407195  0.48535394  0.22633696
  N -1.40230757 -0.16821319  0.44833565
  C -2.56131966  0.70080522  0.59675359
  N -1.63977800 -1.38899434  0.52674928
  H  3.47554623  0.48057828 -1.39062817
  H  3.17153335 -0.85181364 -0.23788387
  H  3.78686473  0.72108241  0.34862152
  H -2.21478682  1.72556881  0.69090173
  H -3.19703144  0.59919521 -0.28119183
  H -3.12592697  0.39028986  1.47194829
  H -0.79141429 -1.95465473  0.43002713
