30
opt_min/./Reactant_3143_0_opt.xyz
  C -3.06048700 -2.16589800  0.79706300
  O -2.40991591 -0.93532556  0.53240423
  C -1.06524038 -0.99046400  0.47183951
  O -0.44686136 -2.02806150  0.64425883
  C -0.45006778  0.29078540  0.21576827
  N  0.90271407  0.43043815  0.16574366
  C  1.87910399 -0.42690221  0.25869188
  C  3.26592973 -0.06621550  0.14182476
  C  4.23033876 -1.07062203  0.30584205
  C  5.57564885 -0.78248968  0.20749474
  C  5.99311894  0.51219379 -0.06008827
  C  5.05229931  1.51590438 -0.23057984
  C  3.70442998  1.23659704 -0.13342130
  C -1.10389011  1.57101235  0.02233089
  O -0.43934839  2.58905725 -0.14205288
  O -2.43824389  1.55368650  0.04830021
  C -3.09869884  2.79647844 -0.13404093
  H -4.12350285 -1.97979696  0.66526240
  H -2.85504156 -2.49418587  1.81937717
  H -2.71378006 -2.93856712  0.10669270
  H  1.12905267  1.42636633  0.01281142
  H  1.61897671 -1.46091662  0.43375299
  H  3.90338974 -2.07793062  0.51539076
  H  6.30569526 -1.56751561  0.33831310
  H  7.04556637  0.73906740 -0.13718097
  H  5.37370041  2.52507877 -0.44215096
  H  2.99157232  2.03668401 -0.27641678
  H -4.02658401  2.74695238  0.43255464
  H -2.47024034  3.61548604  0.22184088
  H -3.31684826  2.94586380 -1.19422614
