28
opt_min/./Reactant_1751_1_opt.xyz
  N -0.81239099  3.18622400  1.52645299
  C -0.89002560  2.23230585  0.88738012
  C -1.02100841  1.08122848  0.11306088
  C -0.10063973  0.11790562 -0.15057085
  C  1.29212824  0.04896128  0.23637917
  C  1.94155205 -1.18626724  0.31420906
  C  3.26988561 -1.25762476  0.68662460
  C  3.97539454 -0.10114757  0.97533326
  C  3.34417612  1.13002911  0.89510842
  C  2.01437657  1.20995777  0.53147277
  C -0.83811268 -0.97139330 -0.89631343
  C -1.75447197 -1.65068277  0.15103806
  C -2.77927611 -0.54792495  0.48031932
  C -2.34655932  0.60745540 -0.44805687
  C -1.85994386 -0.14983132 -1.68319240
  H  1.39566223 -2.09356262  0.10548105
  H  3.76057426 -2.21709032  0.75350214
  H  5.01495416 -0.15741766  1.26207464
  H  3.89062810  2.03374148  1.11640083
  H  1.52811300  2.16925982  0.46115661
  H -0.20744264 -1.65522028 -1.45944818
  H -1.20217908 -1.97966253  1.02971712
  H -2.23661440 -2.51989959 -0.29363658
  H -3.79608361 -0.86604198  0.25255467
  H -2.74562126 -0.24305859  1.52453515
  H -3.09805951  1.38247057 -0.59540974
  H -2.63540667 -0.75505106 -2.14929976
  H -1.40365734  0.50131841 -2.42689808
