35
opt_min/./Reactant_4880_1_opt.xyz
  C -2.30745200  4.34860100 -0.96067800
  N -1.59484982  3.13246152 -0.65866794
  C -2.25217042  2.03681870 -0.14676507
  O -3.45024384  2.09907916  0.09895900
  C -1.48379803  0.82230524  0.06979915
  N -0.16273419  0.74663201 -0.13440699
  C  0.68102137 -0.25418020  0.08768664
  C  2.08177959 -0.18458075 -0.16283280
  C  2.87292032 -1.31027248  0.12490796
  C  4.23342334 -1.30039592 -0.08805227
  C  4.85605942 -0.16854474 -0.59368510
  C  4.09587502  0.95224532 -0.88723681
  C  2.73283593  0.95056521 -0.67934405
  C -2.22373388 -0.36932480  0.52994807
  C -2.15918062 -1.56457479 -0.18531683
  C -2.87689188 -2.66914325  0.23290979
  C -3.67219181 -2.59439410  1.36370421
  C -3.75399609 -1.40648475  2.07041034
  C -3.03733263 -0.29881101  1.65733036
  H -3.26769690  4.29695887 -0.44976031
  H -1.74563420  5.21356886 -0.60573120
  H -2.48760785  4.45104470 -2.03518357
  H -0.63975066  3.09093523 -0.96988548
  H  0.28591940  1.59358512 -0.47382060
  H  0.26607722 -1.16171738  0.49396573
  H  2.39295738 -2.19271270  0.52211812
  H  4.81772191 -2.18020553  0.13810794
  H  5.92325022 -0.15920677 -0.75604918
  H  4.57460481  1.83905336 -1.27759099
  H  2.17545666  1.84665592 -0.92119669
  H -1.56235431 -1.61708983 -1.08515792
  H -2.82396117 -3.58878351 -0.33253932
  H -4.23439020 -3.45847683  1.68726652
  H -4.37989811 -1.34308549  2.94845801
  H -3.10711900  0.62940749  2.20178912
