13
opt_min/./Reactant_2056_0_opt.xyz
  C -0.51856100  1.51270300 -0.20279100
  N -0.55016744  0.21056269 -0.06642419
  C -1.84443481 -0.41244159  0.17178104
  N  0.40244362 -0.65038882 -0.12812522
  C  1.71276806 -0.13800850 -0.40074017
  H  0.39824899  2.03372468 -0.38247453
  H -1.43473674  2.06553505 -0.13328399
  H -2.43800295 -0.40051772 -0.74244120
  H -2.38455844  0.11355943  0.95719373
  H -1.66164037 -1.44296472  0.46854655
  H  1.76455358  0.34369938 -1.38922622
  H  2.39452363 -0.98704789 -0.37930595
  H  2.04506123  0.60239028  0.34047397
