44
opt_min/./Reactant_5959_1_opt.xyz
  C -0.58494800 -1.67832400  2.88844100
  O -0.42824359 -0.82243115  1.77473448
  C -1.54678703 -0.60183635  1.02383702
  O -2.61389337 -1.11561367  1.30140728
  C -1.33102785  0.36202167 -0.02514940
  N -0.13392512  0.93123173 -0.31341295
  C  1.14468146  0.67178387 -0.03615904
  C  2.03989859  1.83410549 -0.15882102
  C  3.19960747  1.79192351 -0.93183664
  C  4.01415278  2.90407003 -1.02507180
  C  3.68404508  4.07055845 -0.35336814
  C  2.53075985  4.12425017  0.41248267
  C  1.71058314  3.01592903  0.50676711
  C  1.71034195 -0.62649967  0.23180292
  C  1.07816260 -1.80352770 -0.19352694
  C  1.66981605 -3.03295844  0.00969680
  C  2.89570375 -3.12663418  0.64859579
  C  3.53816548 -1.97080888  1.06595356
  C  2.95855867 -0.73612883  0.85899980
  C -2.49089116  0.88799858 -0.74906867
  C -3.52180564  0.03518833 -1.14834404
  C -4.62026719  0.52399622 -1.82883054
  C -4.71755567  1.87190636 -2.13039879
  C -3.70410237  2.73106355 -1.73695598
  C -2.60490340  2.24840995 -1.05572425
  H  0.40187114 -2.08298719  3.10641133
  H -0.95780617 -1.11601873  3.74838818
  H -1.29043642 -2.47734090  2.65322027
  H -0.26336815  1.79504089 -0.83985999
  H  3.45071744  0.87997538 -1.45305575
  H  4.90906189  2.86409966 -1.62853172
  H  4.32566801  4.93569477 -0.42783907
  H  2.27641528  5.03252319  0.93860159
  H  0.81339959  3.04881993  1.10902458
  H  0.13505035 -1.74525027 -0.71542217
  H  1.16555692 -3.92589126 -0.33074744
  H  3.35060434 -4.09073767  0.82063312
  H  4.49542551 -2.03254639  1.56303558
  H  3.45987536  0.15643557  1.20273688
  H -3.45569475 -1.01417739 -0.91378625
  H -5.40569554 -0.15329108 -2.13028900
  H -5.57577443  2.25520898 -2.66141105
  H -3.77632728  3.78728706 -1.95437106
  H -1.84545535  2.95065207 -0.73269663
