42
opt_min/./Reactant_5930_0_opt.xyz
  C -3.61331800 -3.16924100  0.04163600
  O -3.30510915 -1.78316111  0.00457204
  C -2.02047505 -1.44101405 -0.20972152
  O -1.13888982 -2.27801308 -0.30867437
  C -1.76531977 -0.00103369 -0.09267404
  C -2.75119092  1.05151528 -0.16240856
  C -2.43029265  2.39571742  0.08555350
  C -3.36987190  3.39977760 -0.04308669
  C -4.66443791  3.11523837 -0.43861114
  C -4.98912949  1.80328191 -0.74720699
  C -4.05650698  0.79702963 -0.62347638
  N -0.46217812  0.24534829  0.24516228
  C -0.11892022  0.96770153  1.45741087
  C  0.51395634 -0.37498193 -0.43487045
  C  0.36622302 -0.56577061 -1.87329367
  C  1.60177488 -1.04808651 -2.60088115
  O -0.64337077 -0.26291561 -2.48696447
  C  1.81267243 -0.61928818  0.22244160
  C  1.95939862 -1.74057651  1.03542946
  C  3.16652670 -1.99282353  1.66178938
  C  4.23620853 -1.13096413  1.48376907
  C  4.09650329 -0.01475272  0.67624936
  C  2.89129034  0.24407107  0.04938609
  H -2.69876369 -3.75531892  0.14388976
  H -4.27117646 -3.33277216  0.89413384
  H -4.12423177 -3.44437872 -0.88259451
  H -1.43010486  2.69368812  0.35231935
  H -3.07674099  4.41960807  0.16366082
  H -5.39775232  3.90203822 -0.52857494
  H -5.98105803  1.56160747 -1.10094327
  H -4.33052958 -0.20189078 -0.90739697
  H  0.54392627  0.34607890  2.06138884
  H  0.40613701  1.89509580  1.22699517
  H -1.02149825  1.17348014  2.02606700
  H  2.21637169 -0.19120574 -2.87186086
  H  2.18974223 -1.72469582 -1.99063963
  H  1.29147596 -1.54003617 -3.51779280
  H  1.11976122 -2.40936977  1.15215557
  H  3.27164130 -2.86788088  2.28581449
  H  5.17756824 -1.33200787  1.97296915
  H  4.92823986  0.65953082  0.53434794
  H  2.77978742  1.11518238 -0.57996682
