29
opt_min/./Reactant_843_1_opt.xyz
  C  3.41990400  1.32974100  0.22087500
  N  2.07229897  0.81806655  0.20401181
  C  1.77270491 -0.40052490 -0.31377131
  O  2.62642033 -1.14880444 -0.75183075
  C  0.33366898 -0.75429524 -0.24285850
  O -0.46911067  0.27133177  0.03478937
  C -1.73500489  0.30118650  0.30229411
  C -2.61536904 -0.86199286  0.70100363
  C -2.07206875 -1.59322628  1.91343474
  O -3.73033261 -0.99435696  0.27903436
  C -2.35380666  1.65090166  0.37921942
  C -1.73593287  2.69957095 -0.51066493
  O -3.32308068  1.85650097  1.06963630
  C -0.22976842 -2.01298513 -0.69155109
  C  0.68759689 -3.04864740 -1.26261495
  O -1.44283758 -2.18772155 -0.64923032
  H  3.71458875  1.59373283  1.23738510
  H  3.51022665  2.20979858 -0.41929755
  H  4.07156824  0.54325320 -0.15582516
  H  1.34325762  1.40919535  0.56860483
  H -2.59305059 -1.20025176  2.78584744
  H -1.00063592 -1.46721157  2.04429166
  H -2.31016034 -2.64990449  1.81700751
  H -0.66282033  2.56811007 -0.61355261
  H -1.96966308  3.68832258 -0.12568963
  H -2.18829332  2.60467224 -1.49797283
  H  0.09264189 -3.88358146 -1.62300572
  H  1.28754720 -2.63134001 -2.06672299
  H  1.37981941 -3.38195747 -0.49278315
