34
opt_min/./Reactant_2302_0_opt.xyz
  C -0.32175300 -3.39549000  1.93678000
  N -0.10761645 -2.36286251  0.95535123
  C -0.79635966 -1.19412125  0.99427296
  O -1.66607001 -1.00620935  1.82772221
  C -0.54182376 -0.26841574 -0.13424292
  N  0.46239302 -0.40586090 -1.00358386
  C  1.73088681 -0.85066836 -0.93631161
  C  2.46008000 -1.03055903 -2.23446704
  C  2.50871693 -0.98116589  0.26773663
  O  3.66763853 -1.35177210  0.28540322
  O  1.84741609 -0.58270248  1.38763127
  C  2.60110180 -0.56678290  2.58430963
  C -1.57029812  0.71762031 -0.47319872
  C -1.88476337  1.05231647 -1.79605067
  C -2.82792963  2.01735837 -2.08606408
  C -3.48314040  2.68752114 -1.06583229
  C -3.18570251  2.36791884  0.24815965
  C -2.24869757  1.39796643  0.54489553
  H -0.33149812 -4.37278409  1.45585665
  H  0.46307021 -3.38269041  2.69889755
  H -1.27848143 -3.20657007  2.42097325
  H  0.58133427 -2.54188527  0.24502820
  H  0.26128704  0.00749289 -1.91619004
  H  3.21423436 -1.80380323 -2.11004302
  H  1.78258095 -1.31495708 -3.03607160
  H  2.98586872 -0.11971286 -2.52754218
  H  2.10414124  0.13048129  3.25412847
  H  2.61816072 -1.56407327  3.03191173
  H  3.62820198 -0.25572929  2.38371917
  H -1.43040360  0.53460817 -2.63399848
  H -3.06003937  2.24766729 -3.11598841
  H -4.21828918  3.44428929 -1.29273168
  H -3.68511688  2.87833043  1.05851723
  H -2.02615134  1.15589826  1.56921420
