16
opt_min/./Reactant_1086_0_opt.xyz
  C -3.18116103  0.14301506  0.09563181
  N -2.21069468  1.16662795 -0.08826896
  O -0.99006800  0.83427373 -0.23219642
  C -0.40307391 -0.33778043 -0.23599258
  C -0.96995970 -1.61217267 -0.06740339
  N -1.36630536 -2.68253556  0.07134716
  C  1.06854415 -0.29415817 -0.44672378
  O  1.77595775 -1.26696347 -0.47330996
  O  1.49468085  0.96412783 -0.59806755
  C  2.89292873  1.11661076 -0.80293370
  H -2.99881030 -0.41070271  1.02567864
  H -3.17618116 -0.57791852 -0.72646262
  H -4.14833531  0.63256626  0.15412483
  H  3.05854729  2.17959225 -0.95051135
  H  3.44527714  0.75620707  0.06678800
  H  3.21291271  0.54845079 -1.67835655
