26
opt_min/./Reactant_1721_1_opt.xyz
  F  0.23922400  2.64263000 -0.01048700
  C -1.03492259  2.24365540  0.10443010
  F -1.74471642  2.99563482 -0.75015001
  F -1.43133094  2.62412347  1.34002607
  C -1.23668770  0.79680552 -0.12952407
  C -0.38245336 -0.21597611 -0.32018385
  C  1.05860237 -0.33180729 -0.21578035
  C  1.73988164  0.23967209  0.85895215
  C  3.11198549  0.10646977  0.96684980
  C  3.82038358 -0.59277531  0.00345439
  C  3.15031897 -1.16490726 -1.06614906
  C  1.77839189 -1.04501333 -1.17375539
  C -1.32095482 -1.41735083 -0.58691952
  C -1.97917295 -1.69577913  0.76911057
  C -2.81277012 -0.68384749  0.95246955
  C -2.64233435  0.18646521 -0.29925616
  O -2.38459460 -0.79302252 -1.28292834
  H  1.19283538  0.77731517  1.61740027
  H  3.62596426  0.55245552  1.80316875
  H  4.89257854 -0.69351333  0.07987612
  H  3.70111075 -1.70930255 -1.81827177
  H  1.26447228 -1.47677233 -2.01870117
  H -0.89865961 -2.25426989 -1.13493572
  H -1.75109550 -2.53087351  1.39754199
  H -3.45290123 -0.46214701  1.77998633
  H -3.45137805  0.85654625 -0.57598964
