19
opt_min/./Reactant_4509_0_opt.xyz
  C -1.19832400  2.04782300 -2.89979300
  O -0.58457304  1.77333367 -1.64562548
  C -0.57173340  0.51107645 -1.23135195
  O -1.04312755 -0.43776229 -1.81928015
  C  0.09151945  0.38958337  0.06692054
  O  0.61418342  1.42353250  0.72502183
  C  1.17246094  0.96428429  1.93098820
  O  1.70980672  1.69125513  2.71418696
  C  0.91838783 -0.45878080  1.90867987
  C  1.25902806 -1.40508562  2.86782265
  N  1.53030952 -2.19797214  3.65445837
  N  0.26176229 -0.73772468  0.75338797
  C -0.16980109 -2.05010640  0.35261448
  H -1.72170503  1.16329200 -3.26554266
  H -1.89333694  2.87345896 -2.75178853
  H -0.42209970  2.34172206 -3.60784609
  H  0.08429778 -2.75964567  1.13842449
  H  0.32026968 -2.33323500 -0.57973531
  H -1.24498129 -2.05118230  0.17344053
