17
opt_min/./Reactant_4451_0_opt.xyz
  C  3.93896168  0.13719405  0.39770757
  O  2.52476918  0.02454185  0.29478925
  C  1.99395979 -1.17917651  0.52875783
  O  2.59632266 -2.18008491  0.81824379
  C  0.57027510 -1.13569455  0.38992143
  N -0.58987087 -1.22304900  0.28405019
  N -1.76862117 -1.47943259  0.13093231
  C -2.75705576 -0.54257434 -0.07576472
  O -3.85885419 -0.82993898 -0.44161728
  O -2.31756994  0.70208616  0.20752446
  C -3.24540369  1.76785481  0.06107714
  H  4.39449478 -0.85379151  0.43758921
  H  4.18305348  0.69287657  1.30410299
  H  4.28817543  0.68235214 -0.47772570
  H -4.22980437  1.37288406 -0.19502695
  H -2.89080184  2.43014628 -0.72935439
  H -3.28916856  2.30719635  1.00690265
