17
opt_min/./Reactant_210_1_opt.xyz
  N  5.23972187  2.16980125  2.14067163
  C  4.26482001  1.54457661  2.06714472
  C  3.15792104  0.81398176  1.96874155
  N  2.14265427  0.19926852  1.95604374
  C  1.03100609 -0.41494168  1.88206401
  C  0.05884179 -0.20431453  0.83993753
  C  0.26781192  0.71348043 -0.19525947
  C -0.68711070  0.88033564 -1.17731329
  C -1.86149838  0.14463480 -1.15006462
  C -2.07887420 -0.76625499 -0.12739309
  C -1.12912314 -0.94142503  0.85820416
  H  0.82958048 -1.14730025  2.64944120
  H  1.17951632  1.29303038 -0.22478499
  H -0.51393561  1.59146734 -1.97194636
  H -2.60355402  0.28042438 -1.92203739
  H -2.99158746 -1.34232283 -0.10039721
  H -1.30016856 -1.65273796  1.65445671
