32
opt_min/./Reactant_3014_1_opt.xyz
  C -2.96115047  1.13100384 -1.62741272
  O -1.62244050  1.36519562 -1.24427438
  C -1.13649306  0.54874893 -0.20489474
  O -1.87841048  0.71460459  0.98228022
  C -1.78754301  2.00568847  1.54726973
  C  0.28375693  0.82784875 -0.02096616
  C  1.46131484  0.64170181  0.12066438
  C  2.72849710 -0.03830577  0.33134882
  C  3.60524467  0.60817961  1.40772813
  C  3.43765577 -0.05783464 -0.93479674
  N  3.99358094 -0.05676233 -1.93306959
  C  2.31185516 -1.48805242  0.71561739
  C  1.18260293 -2.07072986 -0.15505099
  C -0.26113844 -1.83094697  0.34948807
  C -1.16846714 -0.96812544 -0.54556161
  H -3.27830133  2.02102229 -2.16827586
  H -3.03929430  0.26001792 -2.28640806
  H -3.60237558  0.98322288 -0.75406135
  H -2.09476393  2.77462138  0.83220131
  H -0.76323077  2.21549721  1.87499801
  H -2.45884858  2.00730310  2.40373288
  H  4.41782946 -0.06256697  1.68100983
  H  3.00752940  0.81821027  2.29235736
  H  4.03211509  1.54103072  1.04405876
  H  3.19695344 -2.12487716  0.63729726
  H  1.99824996 -1.47561799  1.76169309
  H  1.28704498 -1.68438924 -1.17101371
  H  1.34375646 -3.14883651 -0.21075011
  H -0.24082663 -1.38161315  1.34363520
  H -0.74570284 -2.80298099  0.45365727
  H -0.88167713 -1.07065281 -1.59324072
  H -2.20214274 -1.29641874 -0.42756907
