29
opt_min/./Reactant_5557_0_opt.xyz
  C -2.69226000 -3.35046800 -1.20731700
  N -2.01266376 -2.11713866 -0.88564807
  C -2.67144942 -0.93727742 -0.97925419
  O -3.82711372 -0.84832914 -1.33794561
  C -1.84970741  0.24927106 -0.60721101
  O -0.61410367  0.25116633 -0.20155898
  N  0.13199879 -0.83542688 -0.05884485
  C  1.39538719 -0.60025238  0.41599534
  C  2.21473699 -1.73069191  0.54573725
  C  3.49942079 -1.60023227  1.02694077
  C  3.98984458 -0.35193749  1.38014631
  C  3.18570326  0.77190979  1.25077749
  C  1.89819893  0.65897139  0.77382198
  C -2.42583710  1.61439537 -0.67371582
  O -3.52330592  1.90292754 -1.06203540
  O -1.50796793  2.52231017 -0.26702568
  C -1.90437721  3.88680868 -0.29724277
  H -1.95825584 -4.12188297 -1.42742311
  H -3.33546546 -3.18930225 -2.07331762
  H -3.32615162 -3.67607104 -0.37730161
  H -1.05071800 -2.15537098 -0.56330279
  H  1.81989883 -2.69437224  0.26529232
  H  4.12528893 -2.47383905  1.12892287
  H  4.99837383 -0.25409047  1.75530455
  H  3.56992413  1.74333569  1.52619270
  H  1.26937986  1.53092183  0.67310832
  H -2.73254925  4.01926442 -0.99590221
  H -2.21805882  4.19536309  0.70204553
  H -1.03716318  4.46617765 -0.61165002
