32
opt_min/./Reactant_2984_0_opt.xyz
  C  2.74196250 -1.41370708 -0.09461088
  C  1.75479863 -0.29662541 -0.45671388
  C  2.24415887  0.47194864 -1.69520093
  F  1.31065197  1.28273266 -2.21098217
  F  3.30314910  1.24773408 -1.41136644
  F  2.62608778 -0.33849723 -2.68850856
  C  0.41631815 -0.76400860 -0.69164348
  C -0.77459082 -0.81708868 -0.59282033
  C -2.14013017 -0.51371850 -0.25480585
  C -2.56661668 -1.42013859  0.91308032
  F -3.85625252 -1.27952184  1.23752546
  F -1.86757753 -1.13993676  2.02265060
  F -2.36333227 -2.71505107  0.65779927
  C -3.05296513 -0.77030088 -1.46874148
  F -4.35016133 -0.59686763 -1.19346676
  F -2.76437580  0.06309474 -2.47441844
  F -2.91477623 -2.00958510 -1.94582249
  C -2.13422316  0.98421363  0.12616822
  C -1.03901266  1.56622458  1.04794845
  C  0.46531358  1.75841208  0.71941016
  C  1.55820402  0.66706948  0.74622350
  H  3.49359681 -1.04101084  0.59842574
  H  2.20714573 -2.23794100  0.37166834
  H  3.24611464 -1.79406653 -0.98062792
  H -2.11844898  1.55252293 -0.80790512
  H -3.08659380  1.18970103  0.62615264
  H -1.37946465  2.60464739  1.13570441
  H -1.12027641  1.12518579  2.04430061
  H  0.55723040  2.35983065 -0.18772743
  H  0.77894742  2.39939952  1.55254676
  H  1.41165818  0.04650955  1.63235607
  H  2.50427027  1.20335138  0.87059467
