39
opt_min/./Reactant_3108_1_opt.xyz
  F  3.05563298  1.49634025 -1.48232324
  C  2.49193510  0.28751869 -1.60307770
  F  3.49385920 -0.60811445 -1.60873105
  F  1.96538374  0.23591748 -2.83745735
  C  1.43415476  0.01737023 -0.52155366
  C  1.92777158  0.39541147  0.86376665
  C  1.01752711  0.83404320  1.81971664
  C  1.43385157  1.13928226  3.10276556
  C  2.76763459  1.01630644  3.44905058
  C  3.68076125  0.59619046  2.50090145
  C  3.26850452  0.28592918  1.21590367
  C  0.21136132  0.68909630 -0.91276104
  C -0.92063079  0.88563432 -1.25911058
  C -2.29166302  0.47528753 -1.50581406
  C -3.25581908  1.42393687 -0.77333859
  F -3.08597935  2.69984053 -1.11407870
  F -3.07643574  1.35538661  0.55461949
  F -4.54204073  1.12333234 -0.98839882
  C -2.54690476  0.52461550 -3.02294148
  F -1.66867823 -0.24870936 -3.67099208
  F -3.76155490  0.06248383 -3.34805284
  F -2.44035634  1.75099309 -3.52756639
  C -2.40098809 -0.98561006 -0.98128349
  C -1.56097368 -1.28091939  0.28318352
  C -0.18702290 -1.97799738  0.18429926
  C  1.01114182 -1.47289909 -0.64501026
  H -0.01654678  0.97168280  1.55052822
  H  0.71152396  1.47973762  3.82950104
  H  3.09331809  1.25364473  4.45014221
  H  4.72693935  0.50788475  2.75613221
  H  4.00790565 -0.04651338  0.50654229
  H -2.12205981 -1.67048602 -1.78309252
  H -3.44938408 -1.17695035 -0.74433582
  H -1.48089731 -0.37906751  0.88310566
  H -2.15992033 -1.97511262  0.88092475
  H  0.15213674 -2.05467899  1.22224119
  H -0.36122033 -2.99258648 -0.18571281
  H  1.86359757 -2.08745173 -0.33319640
  H  0.82403186 -1.66833047 -1.70357492
