16
opt_min/./Reactant_1983_1_opt.xyz
  C -2.18480000  0.21459700  0.34917200
  C -0.73891901  0.18805433  0.03714575
  C  0.13951551  1.15636692 -0.20923446
 Cl -0.05273703  2.84005698 -0.20343490
  C  1.49249686  0.45890754 -0.43186508
  C  1.87875962 -0.07365644  0.95473655
  C  1.01783097 -1.05003338  1.18928542
  C  0.12216949 -1.09030565 -0.05454186
  O  1.05169529 -0.72798262 -1.06446444
  H -2.42581769 -0.52525675  1.10901648
  H -2.76823968 -0.01962225 -0.54150723
  H -2.47452403  1.20431644  0.69357053
  H  2.24253079  0.98644760 -1.01120565
  H  2.66650551  0.31411203  1.56575295
  H  0.90031934 -1.68556556  2.04165511
  H -0.38824052 -2.01978074 -0.28789728
