36
opt_min/./Reactant_2520_0_opt.xyz
  C  3.62956100 -2.58671000 -0.06949800
  N  2.43881455 -1.82973918 -0.37707761
  C  2.37022395 -0.49622677 -0.08703693
  O  3.35670458  0.11085936  0.33265913
  C  1.06738229  0.10827661 -0.28859136
  C  0.67263067  1.38018208  0.35937791
  O -0.46773172  1.82454326  0.23080512
  N  1.66023026  2.02067397  0.99465569
  C  1.48735465  3.33132756  1.56431896
  N  0.17877452 -0.33304636 -1.21367106
  C  0.64605539 -0.86434718 -2.48265587
  C -1.13096771 -0.19053412 -1.01945295
  C -2.10281567  0.03811097 -2.12158552
  C -1.82298874  1.26724843 -2.96199428
  O -3.07557336 -0.65653528 -2.28126548
  C -1.74072378 -0.28334718  0.33103021
  O -2.86665646  0.03437926  0.59479942
  O -0.91765349 -0.89417011  1.21365125
  C -1.44417903 -1.01380028  2.52784344
  H  3.67562137 -3.46196307 -0.71456364
  H  3.65232684 -2.90547935  0.97661821
  H  4.49118963 -1.94683278 -0.25121696
  H  1.57899336 -2.35257456 -0.42050604
  H  2.58103582  1.58335565  0.97130122
  H  2.08856786  4.06897945  1.02816938
  H  1.78732597  3.32720467  2.61348693
  H  0.43418812  3.59821884  1.48694152
  H  1.62739047 -0.45258762 -2.71750372
  H  0.71786218 -1.95157268 -2.44388622
  H -0.06352273 -0.60697201 -3.26624796
  H -2.76863413  1.78329776 -3.11326672
  H -1.44294877  0.99073083 -3.94394674
  H -1.12192787  1.92880177 -2.46335064
  H -1.68164770 -0.02663442  2.92728048
  H -0.66903429 -1.49264530  3.12135804
  H -2.35413303 -1.61698659  2.51931037
