34
opt_min/./Reactant_5692_0_opt.xyz
  C -1.79351800 -3.92882400  1.17209000
  N -1.07326690 -2.80606478  0.63058421
  C -1.70714281 -1.68653599  0.18816217
  O -2.91920041 -1.56468042  0.22022599
  C -0.80807095 -0.63134964 -0.31429215
  O  0.47380008 -0.81483427 -0.06252805
  C  1.53241335 -0.20082066 -0.52492509
  C  1.53888047  0.76831740 -1.65402037
  C  2.81710428 -0.58645150  0.06723745
  O  3.88217125 -0.23982598 -0.41734475
  N  2.73708225 -1.36647076  1.18204911
  C  3.91346975 -1.76360215  1.91295195
  C -1.40824275  0.55473779 -0.91921707
  C -1.03992283  1.83541656 -0.49802399
  C -1.66432335  2.94894051 -1.02527681
  C -2.66485970  2.80441771 -1.97189845
  C -3.04976515  1.53749016 -2.38154198
  C -2.43241415  0.41863834 -1.85944101
  H -1.54880171 -4.84345248  0.63068862
  H -2.85451315 -3.71301140  1.06237143
  H -1.56433316 -4.06768456  2.23142829
  H -0.07652799 -2.88973903  0.52286200
  H  0.70299508  0.59504172 -2.32812771
  H  1.49971957  1.80393709 -1.31013637
  H  2.48048757  0.63876174 -2.18319852
  H  1.84258714 -1.51610453  1.61733783
  H  4.76204761 -1.67541997  1.23720763
  H  4.08672743 -1.11930621  2.77876674
  H  3.81437382 -2.79485001  2.24912627
  H -0.28782085  1.95304877  0.26757608
  H -1.37830488  3.93344153 -0.68591448
  H -3.15052887  3.67760817 -2.38234987
  H -3.83570502  1.42356458 -3.11327663
  H -2.73321937 -0.56806591 -2.17344806
