36
opt_min/./Reactant_2791_0_opt.xyz
  C  1.76194200  1.63173300 -3.43963100
  N  1.64696092  0.99899926 -2.14720975
  C  0.42731091  0.68479647 -1.63844454
  O -0.59880709  0.83106793 -2.29034073
  C  0.39510034  0.26512510 -0.22970309
  O -0.73446192  0.16409505  0.41971950
  C -1.96640683  0.05572863  0.00697888
  C -2.40944174 -0.34882667 -1.36668728
  O -3.33236687  0.11906184 -1.96552137
  O -1.73965258 -1.46709555 -1.71883079
  C -2.07388317 -2.01114223 -2.98716940
  C -2.98357067  0.18208624  1.05575408
  O -4.14767066 -0.10886911  0.94212126
  O -2.44173135  0.66476414  2.19797604
  C -3.34182299  0.80720574  3.28603094
  C  1.57223612  0.21603240  0.64443767
  C  2.76207702 -0.39582338  0.24025851
  C  3.84419002 -0.45401656  1.09944759
  C  3.75824377  0.08521911  2.37240203
  C  2.57223622  0.66680168  2.79336546
  C  1.48640052  0.72836986  1.94296648
  H  1.75968881  2.72211409 -3.35801000
  H  0.90441186  1.33022216 -4.03855040
  H  2.68372892  1.30740250 -3.91930160
  H  2.43461520  1.07402594 -1.52328743
  H -3.14177575 -1.88620042 -3.17410671
  H -1.80621199 -3.06507798 -2.95463288
  H -1.50980339 -1.49587535 -3.76684542
  H -3.98934509  1.67235814  3.12765775
  H -3.96514509 -0.08355720  3.38263845
  H -2.73000347  0.94915207  4.17359839
  H  2.82178239 -0.86815513 -0.72913655
  H  4.75631559 -0.93340589  0.77654762
  H  4.60714845  0.04116955  3.03752816
  H  2.49571694  1.07518330  3.78990003
  H  0.56157405  1.18057979  2.26732748
