13
opt_min/./Reactant_4957_1_opt.xyz
  C -2.68170993  0.01047986 -0.87745263
  N -1.40017503  0.44489417 -0.38013878
  C -0.38319715 -0.42014893 -0.17785420
  O -0.41621877 -1.61318791 -0.39073511
  C  0.81423005  0.19876415  0.33683481
  N  1.89339238  0.21413623  0.79990100
  N  2.91193734  0.62234210  1.32835835
  C  4.03620716  0.03086586  1.58154687
  N  5.07589419 -0.36301796  1.87660334
  H -3.47596884  0.28417669 -0.18159764
  H -2.89033332  0.45666721 -1.85191711
  H -2.64507901 -1.07330589 -0.98270985
  H -1.27675705  1.42273493 -0.16826476
