21
opt_min/./Reactant_3274_1_opt.xyz
  C -2.58815100 -0.46492300 -0.82977500
  N -1.45588239  0.18160081 -0.65263899
  C -1.43453532  1.53706153 -1.18456570
  C -0.36710891 -0.29914055 -0.02172341
  C -0.51137869 -1.53852960  0.82059772
  C  0.94574185  0.26942311 -0.24292169
  O  1.19162801  1.21348423 -0.99723675
  N  1.97944064 -0.33516496  0.42484888
  C  3.32801118  0.15271321  0.30750165
  H -2.70120657 -1.49739779 -0.57164045
  H -3.42513743  0.05181642 -1.25413639
  H -0.71728889  2.15026120 -0.64924715
  H -2.43005230  1.97016926 -1.10337984
  H -1.13447582  1.51568824 -2.23208794
  H -0.02199795 -1.40175077  1.78656251
  H -0.08736459 -2.42219211  0.33904641
  H -1.55754439 -1.73956686  1.03430356
  H  1.81257226 -1.08589981  1.06575601
  H  4.02750579 -0.68246147  0.27230609
  H  3.59508749  0.80882037  1.14391901
  H  3.39136149  0.72854541 -0.61501242
