32
opt_min/./Reactant_5308_0_opt.xyz
  C -2.76110000  2.68462300  1.47020900
  N -1.98638656  1.52031256  1.11701092
  C -0.83382271  1.62993914  0.40190948
  O -0.38261990  2.70101462  0.05825957
  C -0.21233934  0.31231809  0.08373164
  C -1.09961074 -0.84938550 -0.06969983
  C -0.90160520 -2.00802937  0.68393809
  C -1.77331485 -3.07474329  0.56926872
  C -2.85218514 -3.00348498 -0.29718334
  C -3.06246792 -1.85524922 -1.04369787
  C -2.19850385 -0.78250145 -0.92798934
  N  1.09108652  0.22360958 -0.10215611
  C  1.67149770 -1.01438725 -0.61758672
  N  1.85857449  1.25817698  0.06630857
  C  3.15661439  1.15591780  0.42762288
  C  3.86536585  2.48421824  0.31995345
  O  3.67440418  0.14258058  0.87768846
  H -3.21308733  2.54490409  2.44997579
  H -2.09197832  3.54381460  1.48942229
  H -3.54680376  2.87517723  0.73344001
  H -2.32999116  0.61369815  1.38873026
  H -0.07107993 -2.06066436  1.37182141
  H -1.61123222 -3.96383400  1.15951099
  H -3.52866986 -3.83942561 -0.38776811
  H -3.90226531 -1.79581065 -1.71943034
  H -2.35810449  0.11276424 -1.50983013
  H  2.16473512 -1.55095201  0.19335530
  H  2.43921877 -0.75215908 -1.34561143
  H  0.90926821 -1.63204838 -1.08375189
  H  3.14105190  3.28846240  0.38860170
  H  4.62110231  2.56987297  1.09489645
  H  4.35816297  2.53527788 -0.64990072
