24
opt_min/./Reactant_5700_1_opt.xyz
  C  3.16023905 -2.42279006  0.22608109
  N  2.07812957 -1.47443809  0.11110844
  C  1.01740506 -1.71286626 -0.71603187
  O  0.96040867 -2.68855595 -1.44051842
  C -0.08645459 -0.74644102 -0.67840475
  N -0.01698420  0.56804364 -0.56229474
  C  1.26622309  1.24453661 -0.68389495
  C -1.10403913  1.35973427 -0.40969927
  C -0.98505405  2.73115790 -0.66729106
  N -0.88980404  3.86021346 -0.86588810
  C -2.41641757  0.92883723  0.07704487
  C -2.47534335 -0.26560274  1.01063421
  O -3.41871644  1.56986041 -0.16733264
  H  3.13231372 -2.95002788  1.18180837
  H  4.11851658 -1.90990023  0.13159640
  H  3.04899981 -3.14418983 -0.58063965
  H  1.99438065 -0.79470556  0.84931131
  H -1.04983159 -1.18222279 -0.88612051
  H  1.62570478  1.56487844  0.29520556
  H  1.14220704  2.13720532 -1.29667221
  H  1.99310831  0.58665386 -1.15245494
  H -2.95683687 -1.10370510  0.51071813
  H -1.50430232 -0.57718453  1.38468042
  H -3.11630507  0.01672577  1.84439935
