44
opt_min/./Reactant_3200_1_opt.xyz
  C -0.41588200 -1.56178200  3.86213100
  N -0.46374339 -0.76791871  2.66150850
  C -1.59603174 -0.69777631  1.90074716
  O -2.60931103 -1.29097079  2.23903016
  C -1.52438081  0.20550415  0.74596274
  O -0.40657347  0.72872850  0.25042963
  C  0.82336398  0.26784261  0.13872791
  C  1.76151135  1.23516990 -0.39814259
  C  2.90460022  0.83162970 -1.10149788
  C  3.77574867  1.76793671 -1.61741928
  C  3.53231369  3.12360784 -1.45508233
  C  2.39717056  3.53664575 -0.77509970
  C  1.52228245  2.60784608 -0.25191267
  C  1.25177251 -1.08253955  0.48660719
  C  2.51732424 -1.30751596  1.04010039
  C  2.93778109 -2.59109897  1.32899504
  C  2.11213019 -3.67201136  1.06549966
  C  0.86057613 -3.46272249  0.50723200
  C  0.42708179 -2.18363460  0.22716950
  C -2.73048033  0.80626841  0.18443728
  C -3.96209259  0.14303433  0.21008823
  C -5.07651690  0.71701510 -0.36898740
  C -4.99767241  1.95492952 -0.98525727
  C -3.78158790  2.61968166 -1.02202650
  C -2.66234408  2.05527531 -0.44843021
  H  0.55550277 -2.05061991  3.93831797
  H -0.58779668 -0.95176463  4.75343625
  H -1.20469140 -2.30898280  3.79386027
  H  0.33930340 -0.19609529  2.46174505
  H  3.08479956 -0.22124786 -1.25788863
  H  4.65068485  1.43896081 -2.15923876
  H  4.21982057  3.85096581 -1.85925557
  H  2.19933693  4.59091170 -0.64668158
  H  0.64720573  2.93584375  0.28984006
  H  3.15521284 -0.46421904  1.26241920
  H  3.91316606 -2.74668069  1.76619465
  H  2.44252758 -4.67349743  1.29673538
  H  0.21509579 -4.30154900  0.29416841
  H -0.54576369 -2.03208582 -0.21665422
  H -4.03419127 -0.81610518  0.69314843
  H -6.01981370  0.19081649 -0.34182446
  H -5.87291672  2.40076414 -1.43394983
  H -3.70743841  3.58683770 -1.49864631
  H -1.72041206  2.58169674 -0.48287079
