43
opt_min/./Reactant_2277_0_opt.xyz
  C -2.44199672  2.05788345 -3.56811250
  N -1.95893765  1.43116940 -2.36025727
  C -2.81020089  0.90052800 -1.45012629
  O -4.00485200  0.90313491 -1.58704423
  C -2.04867801  0.25468378 -0.26278736
  C -2.94283846  0.14797895  0.99833569
  O -4.14593813  0.16304618  0.97564986
  N -2.22210637 -0.03441133  2.12663182
  C -2.83956649 -0.18890229  3.42041191
  C -0.80484355  0.91617085  0.00538488
  C  0.36806325  1.09602224  0.18341840
  C  1.68775291  0.74618693  0.65727134
  C  2.65453824  0.44630852 -0.49803454
  O  3.82305858  0.22687703 -0.35527174
  O  2.00653302  0.41786126 -1.65777692
  C  2.77585987  0.10529877 -2.81417019
  C  2.26638267  1.84819242  1.55200499
  F  3.54842073  1.67525176  1.87096715
  F  1.59697137  1.93256369  2.71564289
  F  2.16683716  3.05153138  0.96978942
  C  1.41508588 -0.54480437  1.47192748
  C  0.89268023 -1.76378449  0.68452336
  C -0.41358129 -2.01276270 -0.18086988
  C -1.63410139 -1.17478422 -0.72228048
  H -2.50348466  1.33590238 -4.38719112
  H -3.44167732  2.44715948 -3.37808146
  H -1.77810639  2.87081251 -3.85417857
  H -0.96835488  1.44100964 -2.17308733
  H -1.21724955 -0.01753141  2.07795493
  H -3.91291409 -0.28112415  3.26433962
  H -2.64297061  0.68048258  4.05177701
  H -2.46374677 -1.08479559  3.91647945
  H  2.08320999 -0.30512739 -3.54490694
  H  3.55367252 -0.61854071 -2.56515151
  H  3.24279367  1.01088986 -3.20448623
  H  0.74110270 -0.29253010  2.29342551
  H  2.35924661 -0.86929449  1.92239162
  H  0.84325434 -2.52872123  1.46303037
  H  1.71671397 -2.05969630  0.03284379
  H  0.00330015 -2.41202385 -1.10566263
  H -0.88096530 -2.85864097  0.32323256
  H -2.51747738 -1.79929940 -0.57397795
  H -1.49123941 -1.10430121 -1.80331575
