28
opt_min/./Reactant_1261_1_opt.xyz
  C  3.59831600 -0.14755000  1.87139600
  N  2.30665174  0.04750155  1.26080150
  C  2.03610149 -0.45015834  0.04686214
  O  2.81048937 -1.15097834 -0.58255765
  C  0.65338505 -0.19148232 -0.50556504
  C  0.44647120 -0.98908944 -1.78505731
  C  1.15101539 -0.37966130 -2.95771322
  O -0.23184008 -1.97937980 -1.81765721
  C -0.40405508  0.53295960 -0.08268594
  C -0.54542440  1.47856399  1.05110095
  C -1.94654005  1.93682540  1.33151224
  O  0.38927916  1.89069589  1.71016770
  C -1.62729927  0.41487823 -0.97720045
  C -2.58927522 -0.67456507 -0.58425429
  O -1.78038863  1.12665943 -1.93553271
  H  3.98287545 -1.12285541  1.57472220
  H  4.30872013  0.61680603  1.54548348
  H  3.48957008 -0.10184481  2.95240687
  H  1.69137580  0.76718643  1.63119146
  H  2.22151836 -0.44391311 -2.76916607
  H  0.90690588 -0.92840504 -3.86426641
  H  0.86478442  0.66370474 -3.06386796
  H -2.53506028  1.10077495  1.70392502
  H -1.91994192  2.71475835  2.09193543
  H -2.41756770  2.32093537  0.42967977
  H -2.85120998 -1.23972597 -1.47670697
  H -2.16157007 -1.34556584  0.15362209
  H -3.50773172 -0.23667755 -0.19751124
