33
opt_min/./Reactant_1669_0_opt.xyz
  C  5.79017552 -0.24123190 -0.35673814
  N  4.36226515 -0.44818729 -0.29628858
  C  3.53262217  0.57263730  0.06818922
  O  3.91787350  1.69778983  0.35879408
  C  2.16705220  0.25795894  0.11836106
  N  0.98447242  0.19358866  0.12485806
  C -0.29709577  0.09316720  0.16361311
  C -1.08496836  1.24009913  0.58166369
  C -2.44531471  1.32707257  0.27399075
  C -3.18267701  2.42587444  0.66741052
  C -2.58556040  3.46428867  1.36311524
  C -1.23116027  3.39913608  1.65421604
  C -0.48683652  2.30319393  1.26825927
  C -0.86640288 -1.20067258 -0.21699870
  C -1.96504614 -1.73325768  0.45976184
  C -2.48042567 -2.96289142  0.10085575
  C -1.90766383 -3.69100830 -0.92997803
  C -0.80583280 -3.18107701 -1.59754856
  C -0.28936639 -1.94998862 -1.24428909
  H  6.19162076 -0.04864247  0.64173905
  H  6.26721440 -1.12289868 -0.77350784
  H  6.01041183  0.62790466 -0.97880495
  H  3.98379939 -1.35332230 -0.51486917
  H -2.91797805  0.53971199 -0.29427271
  H -4.23404795  2.47682631  0.42270484
  H -3.16645424  4.32096126  1.66969818
  H -0.75280003  4.20772255  2.18600630
  H  0.56691987  2.26338175  1.50418643
  H -2.40064453 -1.18329288  1.28153781
  H -3.33087447 -3.36348498  0.63267913
  H -2.31325483 -4.65178807 -1.21028067
  H -0.35153911 -3.74363495 -2.39983640
  H  0.56303338 -1.54897475 -1.77631560
