17
opt_min/./Reactant_3967_1_opt.xyz
  C -1.03346323 -0.23977770  1.13517431
  C -0.84262679  0.57726874 -0.10455447
  C -2.05908659  0.99112505 -0.88228219
  O  0.26911191  0.93679984 -0.63699470
  C  1.55035673  0.76735506 -0.37420378
  C  2.14607481 -0.01738662  0.76212535
  C  2.42134604  1.40909307 -1.24787565
  N  3.17627950  1.93679058 -1.94369063
  H -1.25114659 -1.28022411  0.87883070
  H -1.88481211  0.14103998  1.69636907
  H -0.16263428 -0.22326715  1.78087175
  H -2.91156308  1.11569397 -0.22135538
  H -1.86909145  1.92559696 -1.40524301
  H -2.31642355  0.23802483 -1.63009286
  H  3.21594944 -0.11070924  0.59335408
  H  1.72100774 -1.02015352  0.82552855
  H  2.00303049  0.49581648  1.71687046
