43
opt_min/./Reactant_2944_0_opt.xyz
  C  3.69305726 -1.76454565  1.57620389
  C  3.06206205 -0.36926991  1.63573559
  C  1.59359252 -0.41421244  1.74897527
  C  0.49838709 -0.08376520  1.33767807
  C -0.52223814  0.55762882  0.46560431
  C -1.77471792  0.81750039  1.29901481
  C -1.63949000  1.53497962  2.48402568
  C -2.73228007  1.79276042  3.28915381
  C -3.98498361  1.32608165  2.93115515
  C -4.12778799  0.58766861  1.77087740
  C -3.03229839  0.33143597  0.96287317
  C -0.79720640 -0.35238817 -0.72767056
  C -1.56093426  0.10384450 -1.80096497
  C -1.80699950 -0.70317624 -2.89683599
  C -1.29510889 -1.98744516 -2.94719057
  C -0.54471586 -2.45723064 -1.88468612
  C -0.30063609 -1.64862445 -0.78923120
  C -0.04442018  1.98525790 -0.09361987
  C  1.30933348  2.11247984 -0.87955061
  C  2.16668307  1.21109147 -0.00082978
  C  3.48119237  0.52982754  0.34468200
  H  2.98956963 -2.48471439  1.16311487
  H  4.58010501 -1.75974275  0.94752481
  H  3.98363077 -2.10525145  2.56763132
  H  3.43998927  0.16546785  2.51556047
  H -0.66284220  1.88495030  2.78774635
  H -2.60590709  2.35587064  4.20296955
  H -4.84191586  1.52688090  3.55784127
  H -5.09706839  0.20201893  1.48983408
  H -3.16568202 -0.26156603  0.07137449
  H -1.98232097  1.09784744 -1.78366791
  H -2.40488442 -0.32419808 -3.71354865
  H -1.48236894 -2.61567843 -3.80588530
  H -0.14458169 -3.46067626 -1.90691905
  H  0.27823184 -2.03576144  0.03582892
  H  0.03387123  2.64873395  0.76881006
  H -0.86368486  2.36325830 -0.70363909
  H  1.22167457  1.73459665 -1.89913918
  H  1.59195924  3.16635676 -0.91046846
  H  1.61367775  0.30551984 -0.23378315
  H  1.90307933  1.61555287  0.97959405
  H  3.81459802 -0.12600074 -0.46073692
  H  4.30276543  1.17898045  0.63719118
