38
opt_min/./Reactant_2448_0_opt.xyz
  C -1.39805300  3.11469400 -1.67218900
  N -0.88096911  1.86103165 -1.18613257
  C -1.63821482  1.03558258 -0.39601328
  O -2.74192100  1.37552022 -0.00736550
  C -1.00751931 -0.26247541 -0.10223264
  N  0.33804471 -0.37581532  0.00239498
  C  1.27735157  0.47991811  0.41315675
  C  0.87499774  1.74405255  1.10299783
  C  2.65913779  0.14174968  0.21793799
  C  3.69050564  0.88481578  0.82212184
  C  5.01521191  0.54674792  0.64974673
  C  5.37041312 -0.54057967 -0.13382026
  C  4.37660242 -1.27329650 -0.76295068
  C  3.04877828 -0.93839421 -0.60031795
  C -1.78748196 -1.47620785 -0.09199688
  C -1.25979446 -2.67049352  0.42960268
  C -1.98862913 -3.84270801  0.39385452
  C -3.26638513 -3.85980785 -0.13931820
  C -3.81468179 -2.68444538 -0.62861812
  C -3.08997648 -1.51131142 -0.61137333
  H -0.63156828  3.88645222 -1.60095157
  H -2.24471043  3.38004019 -1.04179905
  H -1.74304156  3.03723745 -2.70687182
  H -0.06717564  1.49262368 -1.64794936
  H  0.68809556 -1.31619202 -0.16601379
  H -0.17261446  1.70364097  1.38875341
  H  1.46131757  1.87059629  2.01194760
  H  1.03201828  2.61961717  0.47352586
  H  3.45091861  1.73756091  1.43533406
  H  5.78146383  1.13519132  1.13178237
  H  6.40752742 -0.80752852 -0.26372662
  H  4.63824042 -2.10752804 -1.39641264
  H  2.31532471 -1.51501359 -1.14919032
  H -0.28839259 -2.68969322  0.90560340
  H -1.55903002 -4.74740981  0.79965227
  H -3.83526921 -4.77769534 -0.16171007
  H -4.81623668 -2.68363704 -1.03202907
  H -3.53234696 -0.60775059 -0.99567555
