12
opt_min/./Reactant_369_0_opt.xyz
  C -1.65588600  0.94700400  0.31067700
  O -0.39952315  0.28864432  0.41665687
  C  0.06678419 -0.34918392 -0.68241930
  O -0.52081630 -0.39102063 -1.73696459
  C  1.36090735 -0.98828510 -0.47444746
  O  2.10211453 -1.02870300  0.58157834
  N  1.92720732 -0.53145619  1.74116805
  H -2.28748532  0.59440925  1.12515833
  H -1.49374490  2.02153543  0.40071576
  H -2.11102054  0.71653212 -0.65346496
  H  1.78108888 -1.51181086 -1.31994365
  H  1.04544508 -0.01590512  1.83528294
