20
opt_min/./Reactant_907_1_opt.xyz
  C  2.72124000  1.39098900  1.33193600
  N  2.00110324  0.14845464  1.19214382
  C  2.21425476 -0.70525936  0.16849430
  O  3.02386719 -0.50867284 -0.71650201
  C  1.33786585 -1.91603171  0.21038945
  C  0.01434708 -1.85740372  0.16052672
  C -0.74858633 -0.57161101  0.12760654
  O -1.57219058 -0.27263298  0.96853983
  N -0.40129645  0.24012363 -0.89500990
  C -1.03657950  1.51941586 -1.10675246
  H  3.26526098  1.41894400  2.27758847
  H  2.03642512  2.24011814  1.28836915
  H  3.42689609  1.45221622  0.50429107
  H  1.30077494 -0.07187503  1.88160165
  H  1.85967534 -2.86548733  0.23687912
  H -0.59099516 -2.75466056  0.18456050
  H  0.27467241 -0.07370134 -1.57180171
  H -0.31221641  2.22603391 -1.50649451
  H -1.88021615  1.43336061 -1.79693379
  H -1.41272975  1.87902072 -0.14911805
