20
opt_min/./Reactant_2938_1_opt.xyz
  F -2.59576910 -1.31322716  1.09064853
  C -1.93948606 -1.48884002 -0.08849784
  F -2.69832339 -2.36360993 -0.79900958
  C -0.57210626 -1.92637581  0.11874164
  C  0.62504539 -1.80781845  0.13620088
  C  1.84453073 -1.05658097  0.14611190
 Cl  2.62712616 -1.10550146  1.75832567
 Br  3.12169476 -1.72141448 -1.21004069
  C  1.40906663  0.37822783 -0.21398411
  C  0.20838263  0.85691574  0.62640873
  C -1.14741224  1.00772996 -0.09228956
  C -1.80893132 -0.15833855 -0.85408820
  H  2.26635112  1.04038679 -0.07260338
  H  1.15486244  0.39116566 -1.27643382
  H  0.43925009  1.85172060  1.01348511
  H  0.08983395  0.20628078  1.49267062
  H -1.04968715  1.81602641 -0.82057128
  H -1.85161027  1.34449467  0.67151439
  H -1.26364625 -0.37696238 -1.77370789
  H -2.81933228  0.15609724 -1.12464911
