10
opt_min/./Reactant_31_0_opt.xyz
  C -2.08199300  0.25327401 -0.40057696
  C -0.66063025  0.08683903 -0.29727180
  C  0.52918470 -0.04112575 -0.20914469
  C  1.96607696 -0.20733277 -0.09533612
  F  2.41500806 -1.28344255 -0.76486541
  F  2.35819882 -0.35836110  1.18205746
  F  2.64366099  0.84872286 -0.58136919
  H -2.38056948  0.16801868 -1.44397178
  H -2.58502983 -0.52496741  0.17086229
  H -2.37391867  1.22173556 -0.00482844
