13
opt_min/./Reactant_1264_0_opt.xyz
  C -2.68170993  0.01047986 -0.87745263
  N -1.40017549  0.44489450 -0.38013787
  C -0.38319647 -0.42014781 -0.17785564
  O -0.41621646 -1.61318630 -0.39073946
  C  0.81423012  0.19876557  0.33683451
  N  1.89339207  0.21413612  0.79990160
  N  2.91193651  0.62234129  1.32836047
  C  4.03620695  0.03086512  1.58154656
  N  5.07589457 -0.36301846  1.87660132
  H -3.47596913  0.28417461 -0.18159717
  H -2.89033374  0.45666881 -1.85191628
  H -2.64507786 -1.07330566 -0.98271181
  H -1.27675868  1.42273488 -0.16826139
