45
opt_min/./Reactant_2843_0_opt.xyz
  C  2.60251784 -0.42378963  2.04766652
  O  2.59441477  0.73209087  1.24570383
  C  2.11096592  0.52343841 -0.06818989
  C  3.01983226 -0.30977833 -0.85006117
  N  3.72227039 -0.98788315 -1.44409613
  C  0.76940007 -0.05029007 -0.14094533
  C -0.41134892 -0.01470078 -0.36614700
  C -1.68479232  0.45986309 -0.87642189
  C -2.47630630 -0.61385906 -1.60497691
  C -3.67033222 -0.30202482 -2.24474903
  C -4.38884245 -1.28252076 -2.90273813
  C -3.93703635 -2.59139473 -2.91512630
  C -2.75354419 -2.91069478 -2.27389813
  C -2.02762085 -1.92735099 -1.62423064
  C -2.54079560  0.97752394  0.26557307
  C -3.41320012  2.04741530  0.12245774
  C -4.20831515  2.45044855  1.18149913
  C -4.14856689  1.78806761  2.39412122
  C -3.28690835  0.71488073  2.54378643
  C -2.49255220  0.31356287  1.48640392
  C -1.19512648  1.54962361 -1.87261957
  C -0.48646908  2.78463383 -1.28301144
  C  0.68942156  2.67162376 -0.29331087
  C  1.95085538  1.91605555 -0.75214976
  H  2.94902760 -0.10608502  3.02887364
  H  1.59567779 -0.85101266  2.13336764
  H  3.28122773 -1.18726761  1.64910824
  H -4.04741752  0.70916189 -2.22407518
  H -5.31274473 -1.02595036 -3.40052637
  H -4.50341959 -3.35718192 -3.42406488
  H -2.39103663 -3.92813012 -2.27769576
  H -1.10039867 -2.18044452 -1.12938289
  H -3.47972500  2.58260562 -0.81270156
  H -4.87903346  3.28826388  1.05605533
  H -4.77078788  2.10517177  3.21785259
  H -3.23416501  0.18844810  3.48530316
  H -1.82189204 -0.52612635  1.60432468
  H -0.53667913  1.05425723 -2.58931403
  H -2.05238102  1.92364454 -2.43770245
  H -1.23889788  3.39052936 -0.77183628
  H -0.13800414  3.36472637 -2.14293952
  H  0.33997822  2.25263045  0.65004794
  H  0.98308171  3.70425458 -0.08660780
  H  1.93510791  1.77092013 -1.83386541
  H  2.84156084  2.49040556 -0.49246811
