27
opt_min/./Reactant_5403_1_opt.xyz
  C  4.60654373 -1.20087615  1.34172041
  N  3.23657615 -1.43002317  0.95487008
  C  2.36403187 -0.41357827  0.78923886
  O  2.62679951  0.77927165  0.90831421
  C  1.02721376 -0.70915252  0.45352760
  N -0.09397628 -0.47110007  0.13761408
  C -1.27651241 -0.07911940 -0.14662187
  C -2.33662279 -1.04410464 -0.53082258
  O -3.48533621 -0.74674874 -0.75341235
  N -1.89911109 -2.33896723 -0.57767658
  C -2.76850081 -3.41575810 -0.98381086
  C -1.58405837  1.38763531 -0.09752236
  O -2.68059007  1.82685869 -0.35081049
  N -0.53725930  2.16585208  0.27546393
  C -0.65768398  3.60182479  0.33683899
  H  5.28853205 -1.67080387  0.63167941
  H  4.77719715 -0.12516985  1.33973320
  H  4.79881112 -1.59098647  2.34326653
  H  2.92819267 -2.38488838  0.87110212
  H -0.92238124 -2.55788299 -0.47279819
  H -3.78860845 -3.03681774 -0.95557385
  H -2.54338983 -3.75122317 -2.00006843
  H -2.66923590 -4.25719902 -0.29721860
  H  0.37992687  1.78098687  0.44297764
  H -1.71734654  3.84911089  0.30618790
  H -0.21527325  3.97261294  1.26111607
  H -0.15617047  4.07710478 -0.51076780
