26
opt_min/./Reactant_4939_0_opt.xyz
  C -3.76343775  2.81455349  0.50220658
  N -3.33619344  1.44048173  0.45334129
  C -2.01260426  1.10972081  0.56984180
  O -1.18124058  1.92156788  0.96142638
  C -1.64901392 -0.23531690  0.16206134
  C -2.56109718 -1.34942143 -0.27207573
  N -0.38391718 -0.50907836  0.21171802
  C  0.78733438 -0.61427968  0.22765069
  C  2.16954376 -0.73142044  0.16372634
  C  2.79293374 -1.06466366 -1.05156370
  C  4.16700710 -1.15370423 -1.11747861
  C  4.93796899 -0.91992856  0.01259213
  C  4.32976367 -0.59469444  1.21789669
  C  2.95662293 -0.49950573  1.30289766
  H -4.15623572  3.14602745 -0.46234854
  H -2.89048433  3.41123034  0.76059184
  H -4.53203581  2.95574439  1.26580454
  H -3.98939898  0.77014852  0.08826150
  H -2.77882678 -2.02560732  0.55775043
  H -3.50476124 -0.96909683 -0.65280545
  H -2.09255709 -1.93260586 -1.06388434
  H  2.18655088 -1.23362559 -1.92907971
  H  4.64284912 -1.38657401 -2.05793100
  H  6.01377049 -0.98867411 -0.04828697
  H  4.93317800 -0.42833787  2.09729160
  H  2.47517175 -0.24306762  2.23535310
