18
opt_min/./Reactant_1306_0_opt.xyz
  C  2.98609100 -1.04719700 -0.71365800
  O  1.60337045 -0.90502715 -0.42939479
  C  1.14312950  0.33764432 -0.25019975
  O  1.82486404  1.32964767 -0.33420687
  C -0.31230792  0.35410308  0.03232375
  N -0.92051249  1.53476192  0.15266706
  N -0.40050065  2.67843050  0.02757978
  C -1.10242302 -0.86628140  0.20704722
  C -2.61603264 -0.69356279  0.30707169
  O -0.61342248 -1.96932695  0.30930769
  H  3.39134516 -0.10663225 -1.09364899
  H  3.51413086 -1.33161600  0.19922032
  H  3.08088523 -1.83800793 -1.45729231
  H -1.92488901  1.44183272  0.38000641
  H -1.06847141  3.43279361  0.18320790
  H -3.05894187 -1.68715723  0.29854135
  H -2.88608791 -0.21756287  1.25078596
  H -3.02600344 -0.12571552 -0.52684836
