23
opt_min/./Reactant_1450_0_opt.xyz
  C -3.00651391 -0.25399257  0.99895864
  N -1.60722229 -0.09679034  0.68279730
  C -1.20378529  0.47020364 -0.47720125
  O -1.97235846  1.02644846 -1.23895702
  C  0.27229241  0.54400083 -0.69937839
  C  0.70806814  1.77442302 -1.42276609
  N  1.14224843 -0.34424091 -0.25219784
  C  2.54358854  0.02625894 -0.13235806
  C  0.81952648 -1.62121109  0.11601721
  C -0.33050011 -2.25943815 -0.35684547
  N -1.22307697 -2.86803377 -0.75357265
  C  1.66120229 -2.38786734  0.91691145
  N  2.32272190 -3.02601462  1.61059700
  H -3.56633062  0.46362373  0.40242398
  H -3.34589937 -1.26271971  0.75099226
  H -3.16672847 -0.06822949  2.05970892
  H -0.94589209 -0.54410169  1.29805865
  H -0.17874272  2.20662487 -1.88318352
  H  1.43570781  1.55659244 -2.20383165
  H  1.13550269  2.51550387 -0.74406207
  H  2.71265259  0.53840915  0.81685243
  H  3.18486338 -0.85333487 -0.17632382
  H  2.83491357  0.69923163 -0.93653824
