38
opt_min/./Reactant_2987_0_opt.xyz
  C  5.07029400 -1.00024500  1.54812800
  N  3.74192869 -0.51932014  1.24337483
  C  3.56889247  0.60093489  0.46538183
  O  4.53848150  1.25853460  0.10604556
  C  2.20722660  0.96952859  0.12179502
  C  1.99294760  2.31332792 -0.48769707
  N  1.23438038  0.04969756  0.19918841
  C -0.09555848  0.08896908  0.00464899
  C -0.77705752 -1.17729497 -0.16612368
  C -0.12079942 -2.29976840 -0.69385938
  C -0.76944601 -3.51372972 -0.80567406
  C -2.09055152 -3.64278230 -0.41076882
  C -2.76093527 -2.53790198  0.09349003
  C -2.11736040 -1.32512316  0.21709394
  C -0.86522935  1.32112842  0.07081143
  C -0.64872177  2.25662540  1.08803222
  C -1.41054911  3.40923825  1.15894355
  C -2.39652957  3.65326768  0.21934553
  C -2.63217799  2.72516001 -0.78471782
  C -1.88117816  1.57067425 -0.85727491
  H  5.44795048 -1.64887989  0.75189693
  H  5.73986640 -0.14392186  1.63124912
  H  5.05477162 -1.55079129  2.48633135
  H  2.97277158 -1.01387590  1.66148374
  H  1.64370710  2.20967427 -1.51756965
  H  2.94756063  2.83266051 -0.49444565
  H  1.25540105  2.91087377  0.04733671
  H  1.57417535 -0.90451127  0.31738132
  H  0.89295664 -2.21772243 -1.06551448
  H -0.24298151 -4.36315565 -1.21653375
  H -2.59582201 -4.59212570 -0.50384580
  H -3.79288668 -2.62727925  0.39993231
  H -2.64302145 -0.47643517  0.62902731
  H  0.08429947  2.04831295  1.85480757
  H -1.23096102  4.11852718  1.95390935
  H -2.98512733  4.55676449  0.27344470
  H -3.40611887  2.90843948 -1.51593644
  H -2.06540560  0.85174977 -1.64249900
