24
opt_min/./Reactant_2810_1_opt.xyz
  N  3.05203833 -0.80539394  1.63778983
  C  2.32982563 -0.89859482  0.76002064
  C  1.36317697 -0.96880200 -0.32620288
  C  2.09954987 -1.31897153 -1.63261564
  F  3.05766658 -0.43632375 -1.92133829
  F  1.25492719 -1.33753208 -2.67182566
  F  2.67679664 -2.52615218 -1.58372539
  C  0.77918553  0.39107151 -0.43405088
  C  0.11464322  1.38983780 -0.22532455
  C -1.12643074  1.86363618  0.37568660
 Br -0.83550052  3.48273019  1.44628151
 Br -2.35126417  2.33687626 -1.12667134
  C -1.84266126  0.72635585  1.28000196
  C -1.04706909 -0.51509785  0.91299959
  C -0.75987614 -2.00319057  1.07256670
  C  0.34270564 -2.16909763 -0.02938889
  H -2.89481042  0.69164260  1.00557467
  H -1.74842017  1.00372413  2.32919961
  H -0.07430133 -0.17165326  1.26407938
  H -1.15543154 -0.47981506 -0.17545718
  H -0.37782650 -2.25707515  2.06001418
  H -1.59172284 -2.66444089  0.83216578
  H -0.15938882 -2.36707180 -0.97863488
  H  0.97181676 -3.02955838  0.20869521
