10
opt_min/./Reactant_5685_1_opt.xyz
  O  2.88813886 -0.84774212  0.48997444
  C  2.68168452 -0.14624343 -0.38986447
  O  2.49208087  0.54764861 -1.27844381
  C -0.31413682 -0.29709899  0.46454419
  C -0.73310309  0.41968950 -0.39372385
  C -3.79772159  0.43158426  0.24994271
  O -3.66462582 -0.25930731  1.15124544
  O -3.94723493  1.13751278 -0.63824455
  H  0.04780377 -0.92551744  1.22419457
  H -1.09294287  1.05056695 -1.15241432
