26
opt_min/./Reactant_2352_1_opt.xyz
  C  0.83544800  1.85654300  1.35791100
  C  1.13786626  0.54888457  0.73239001
  C  0.36661820 -0.38232259  0.16205244
  C -1.05890591 -0.42192068 -0.10866419
  C -1.78190850 -1.60112504  0.07385087
  C -3.14095804 -1.63377500 -0.17266900
  C -3.79865943 -0.49590025 -0.61214092
  C -3.08674242  0.67555790 -0.80660769
  C -1.72735478  0.71674561 -0.55829301
  C  1.35689231 -1.50018206 -0.23537501
  C  2.15451859 -0.90084077 -1.39570143
  C  2.91654393  0.02498464 -0.83459277
  C  2.56411229 -0.03363296  0.65357646
  O  2.30228167 -1.41709658  0.81796134
  H  1.23989134  2.66738122  0.74960747
  H  1.29979808  1.91858239  2.34086604
  H -0.23801799  1.99244500  1.45654808
  H -1.27459488 -2.48454535  0.43165714
  H -3.69187629 -2.54987729 -0.02121611
  H -4.86059561 -0.52546062 -0.80421875
  H -3.59425197  1.56264145 -1.15765635
  H -1.17306566  1.62620545 -0.73637529
  H  0.96511802 -2.50435930 -0.35857880
  H  2.05015044 -1.18384953 -2.42257510
  H  3.60996264  0.70785977 -1.28030292
  H  3.29812910  0.33187763  1.36502203
