32
opt_min/./Reactant_3141_0_opt.xyz
  C -3.37815903 -3.49039900  0.28158296
  O -2.93377357 -2.14976619  0.17752713
  C -1.59976356 -1.97063104 -0.01004455
  O -0.81988412 -2.89896661 -0.12027063
  C -1.20443586 -0.58023499 -0.01715274
  N  0.08919811 -0.39770710 -0.04849165
  C  1.25289944 -0.28286157 -0.09178892
  C  2.64518143 -0.12867844 -0.16966408
  C  3.28506284 -0.14960076 -1.41499730
  C  4.65631223 -0.00250514 -1.48224680
  C  5.40076533  0.16548648 -0.32502279
  C  4.77178248  0.18605284  0.91109444
  C  3.40160545  0.04063224  0.99533643
  C -2.05434798  0.60317506  0.06439971
  C -1.53138457  1.79857247  0.56780514
  C -2.30429575  2.94162687  0.62072404
  C -3.61399650  2.92077119  0.17436431
  C -4.14122316  1.74418980 -0.33185292
  C -3.37193134  0.59836388 -0.39363507
  H -2.67322839 -4.15809513 -0.21858723
  H -3.45353894 -3.77176476  1.33600254
  H -4.35992088 -3.54255144 -0.18657360
  H  2.69743896 -0.28253817 -2.30961197
  H  5.15016274 -0.01625467 -2.44309780
  H  6.47284544  0.27932416 -0.38417822
  H  5.35463564  0.31148980  1.81109155
  H  2.90371987  0.05108071  1.95362308
  H -0.51107759  1.82709659  0.92674530
  H -1.88235930  3.85519224  1.01529309
  H -4.21903973  3.81534917  0.21801356
  H -5.16006261  1.72151611 -0.69091246
  H -3.79161887 -0.30516437 -0.80307840
