28
opt_min/./Reactant_3850_1_opt.xyz
  C -3.08371066  1.62973025  1.95322982
  N -20.98587307  2.31706560 -26.61390702
  C -6.80857932 -8.62729904  11.52215088
  O -17.12218219  12.79804699 -9.76307328
  C -8.85188966 -24.42647243  6.88876958
  N  3.38470104  16.61175321  10.87049120
  C  2.80588615 -0.10560883 -9.43921608
  C -19.40573938  5.34929936 -0.42851081
  C  1.65971333 -20.50048731 -23.44641296
  C -25.76935320 -4.12523654 -9.43207290
  C -1.58755416 -20.91553539  12.78008784
  C  10.57723838 -13.14374262  8.51853149
  C -12.42549008  12.10517529 -29.01588953
  C -9.76306320 -37.82671906  43.07522240
  C  37.17112310 -10.77081715  9.70602375
  O  56.25797253  50.57473645 -29.65567356
  H  16.87677768  25.52567598  3.47059643
  H -4.40863071  7.93838240 -1.43673307
  H  15.91894829 -1.32195452 -10.10783804
  H  5.41023293 -8.81560696 -28.65413795
  H -20.34109615  12.12563183 -23.48116360
  H  4.31577027  14.35380081  32.17071401
  H  21.18410739  20.65879292 -5.25304692
  H  5.69097668  3.46879499  5.73032618
  H -8.91303377  1.73280283 -15.63207749
  H  6.81511838 -13.16716629  7.47389454
  H -15.34462954 -14.41519696 -3.55878097
  H  5.21443311 -2.18406279 -2.04497084
