18
opt_min/./Reactant_189_1_opt.xyz
  C  2.65314800 -0.45818600  0.01722396
  O  1.75700911  0.62979897  0.13398419
  C  0.45550636  0.40147248 -0.00513001
  C -0.55829650  1.29379393  0.04671463
  C -0.54019634  2.66930858  0.23406039
  N -0.54142891  3.80805442  0.39321954
  C -1.82385620  0.42531570 -0.10672594
  C -1.91967193 -0.36083056  1.20134229
  C -0.92381193 -1.23162550  1.14692073
  C -0.24506891 -0.96118609 -0.19925153
  O -1.34734589 -0.57234819 -0.99387610
  H  3.63712522 -0.04629430  0.23546668
  H  2.64941952 -0.86692350 -0.99677753
  H  2.42135301 -1.24986092  0.73397926
  H -2.71730562  0.91692129 -0.47591444
  H -2.63916796 -0.17865097  1.97215000
  H -0.60691724 -1.96026930  1.86424251
  H  0.32015931 -1.76744332 -0.65609778
