37
opt_min/./Reactant_2771_0_opt.xyz
  C  3.43560000 -0.98635700 -2.29309100
  O  2.41335550 -1.17462280 -1.33041124
  C  2.79856061 -1.59640412 -0.08970177
  O  3.93944351 -1.90505848  0.14820501
  C  1.63691728 -1.77748875  0.77942071
  C  1.71438648 -2.52063528  2.02710482
  C  3.07854286 -2.96803092  2.47211654
  O  0.73755270 -2.74121293  2.73628295
  N  0.46360270 -1.17723726  0.40395844
  C -0.75517923 -1.94620582  0.55116432
  C  0.39993024  0.05173144 -0.09045500
  C  1.47448703  1.02680167  0.13372125
  C  1.20530938  2.41239659 -0.40283444
  O  2.48852821  0.77066150  0.75543994
  C -0.83373077  0.49812515 -0.77268324
  C -1.77268127  1.30469113 -0.13445014
  C -2.90507318  1.72044659 -0.81101607
  C -3.11020205  1.33677817 -2.12616911
  C -2.18262622  0.53019101 -2.76314211
  C -1.04874332  0.10928220 -2.09109442
  H  3.22741917 -1.62910586 -3.15013050
  H  4.40328613 -1.24546780 -1.85925189
  H  3.43074359  0.06026734 -2.60167331
  H  2.98511506 -3.44544702  3.44436388
  H  3.75495558 -2.11977633  2.52922566
  H  3.49598492 -3.66703509  1.75146202
  H -0.73318210 -2.41996070  1.53607645
  H -0.78550985 -2.72149589 -0.21501244
  H -1.63141153 -1.30932028  0.46338294
  H  0.37532660  2.87626521  0.12513450
  H  0.94743570  2.36156822 -1.45859921
  H  2.09589314  3.02085914 -0.26603549
  H -1.61781915  1.59172446  0.89588047
  H -3.63032458  2.34367214 -0.30914714
  H -3.99383495  1.66483485 -2.65286849
  H -2.34151268  0.22745241 -3.78741678
  H -0.31852176 -0.51694757 -2.58218095
