20
opt_min/./Reactant_3357_1_opt.xyz
  C  3.58151131  2.65302264  0.65658645
  C  3.35961526  1.20485479  0.26750181
  O  4.25576200  0.41215603  0.06306332
  C  1.99406916  0.87798507  0.15756076
  N  0.83583810  0.67733734  0.12100306
  N -0.37276767  0.64192985  0.15180044
  C -1.17038488 -0.45880479 -0.15060239
  C -1.99329273 -0.99196867  0.83510070
  C -2.85226088 -2.02865689  0.52152129
  C -2.90205009 -2.52913428 -0.76922243
  C -2.08720012 -1.99051682 -1.75169990
  C -1.22087759 -0.95666713 -1.45170562
  H  4.58181185  2.75900004  1.06894000
  H  2.83805083  2.98912857  1.37430132
  H  3.50420820  3.27125734 -0.23697249
  H -1.94869267 -0.59346939  1.83769455
  H -3.48500193 -2.44847805  1.28917662
  H -3.57543879 -3.33749412 -1.01064096
  H -2.12953763 -2.38129866 -2.75768353
  H -0.58306101 -0.53080477 -2.21207555
