26
opt_min/./Reactant_5197_0_opt.xyz
  C -1.04005224  2.94968092 -0.40933196
  O -0.65949711  1.68949374  0.12825842
  C  0.14547717  0.90703068 -0.62233000
  O  0.51579586  1.19530492 -1.73128000
  C  0.58590452 -0.27063823  0.12966179
  N  0.15012403 -0.61483333  1.34881443
  C -0.95962744 -0.33333535  2.02429736
  C -0.87618882 -0.40346282  3.42822248
  N -0.77757013 -0.32693564  4.56962041
  C -2.31382980 -0.11110594  1.46919979
  C -2.54441440 -0.58262786  0.05409819
  O -3.21672649  0.27712540  2.17359195
  C  1.77601579 -1.04938829 -0.25419006
  O  2.17208215 -1.93497688  0.48677009
  O  2.33546807 -0.69668987 -1.39298381
  C  3.48741499 -1.41684035 -1.81506464
  H -0.48178350  3.14915306 -1.32492309
  H -2.10975388  2.93538113 -0.62023533
  H -0.82618436  3.70631480  0.34317281
  H  0.83665635 -1.24816759  1.79506873
  H -1.86044787 -1.37661630 -0.23513371
  H -3.57180071 -0.93327936 -0.01642738
  H -2.43146940  0.24509836 -0.63952207
  H  4.17312441 -0.69217797 -2.24728828
  H  3.94629705 -1.92933773 -0.96860274
  H  3.19435265 -2.14554926 -2.57157652
