19
opt_min/./Reactant_4318_1_opt.xyz
  C  0.99910306 -1.08582224 -3.06870823
  N  0.46579320 -0.38208218 -1.92987468
  C  0.47490441 -0.91399024 -0.68725381
  O  0.92086569 -2.03993881 -0.45055590
  C -0.06716291 -0.12246392  0.41245881
  C -0.69452716  1.22699822  0.34383751
  N  0.06009438 -0.75991267  1.56909633
  C -0.26542900 -0.45194367  2.81903377
  C -0.84299153  0.73184574  3.24890961
  N -1.29414524  1.69020426  3.70719167
  H  1.24527647 -2.09419973 -2.74009990
  H  1.90364534 -0.60122193 -3.44263190
  H  0.25893445 -1.12961788 -3.86873918
  H  0.14306845  0.55974155 -2.07198539
  H -1.65344862  1.21479047  0.86285036
  H -0.07100580  1.97329898  0.83949470
  H -0.86639693  1.54906504 -0.67861420
  H  0.49873836 -1.68026667  1.39781777
  H -0.05036235 -1.18912655  3.57605203
