20
opt_min/./Reactant_363_1_opt.xyz
  C  1.14370954  0.07339450  2.73080102
  N  0.56235951  0.46528817  1.46920593
  C -0.62022140 -0.02385862  1.04166315
  O -1.38245767 -0.66401825  1.74013529
  C -1.02370390  0.35428993 -0.34523241
  C -2.46612702  0.67664100 -0.56052602
  N -0.25046862  0.30231376 -1.40845410
  C  1.02366668 -0.11872824 -1.63130156
  C  1.51579429 -0.01147700 -2.93748375
  N  1.88210121  0.08916743 -4.02344049
  C  1.87604311 -0.69699093 -0.69012947
  N  2.63234946 -1.17207296  0.03747050
  H  0.40108856 -0.51234105  3.26942230
  H  1.40791893  0.95819267  3.31114692
  H  2.03599747 -0.53231455  2.56098347
  H  1.15737921  0.98599975  0.84509783
  H -3.01226838 -0.21496521 -0.87696456
  H -2.59373191  1.44647339 -1.32152729
  H -2.90911287  1.01061971  0.37378649
  H -0.71297019  0.57162786 -2.27944171
