19
opt_min/./Reactant_1817_1_opt.xyz
  C  2.38267600 -0.62247500 -0.01286900
  O  1.01274065 -0.81395684  0.31819228
  C  0.02653965  0.00541060  0.01988644
  C -1.24180539 -0.36897187  0.31735758
  C -1.51694604 -1.76714736  0.83702413
  F -1.48178604 -1.82432649  2.17474293
  F -0.63749040 -2.66839470  0.39218826
  F -2.71679266 -2.20437736  0.45369396
  C -2.47146842  0.50327295  0.24516793
  F -2.22173608  1.78620034  0.51676494
  F -3.38278923  0.11421173  1.13971597
  F -3.06308560  0.46152168 -0.95481517
  C  0.28137434  1.38488894 -0.60738974
  F  0.37203509  2.32985889  0.33296335
  F  1.42113860  1.44219129 -1.30765397
  F -0.67617897  1.72595565 -1.46322142
  H  2.88054660 -1.48273927  0.43079669
  H  2.54267487 -0.62772964 -1.09189444
  H  2.78227650  0.29693276  0.41965197
