19
opt_min/./Reactant_182_1_opt.xyz
  C -2.63205600 -1.62600500 -0.02444800
  N -1.42753647 -0.82821656 -0.01136437
  C -1.46303422  0.49905761 -0.16738435
  O -2.49735796  1.13806487 -0.31143308
  C -0.17000877  1.25432096 -0.15329199
  N -0.37695052  2.54283090 -0.30869399
  O  0.40027535  3.48711529 -0.35420211
  C  1.21192827  0.75980081  0.00246818
  O  2.18529364  1.46091186  0.00371536
  O  1.26568875 -0.58857593  0.13958043
  C  2.55742468 -1.17185135  0.29606836
  H -2.60783564 -2.34862943  0.78940603
  H -2.73403113 -2.15659244 -0.97416342
  H -3.48452453 -0.95918556  0.09762487
  H -0.54607011 -1.30675505  0.09461396
  H -1.40535996  2.75342685 -0.40669644
  H  3.32632360 -0.40779999  0.17647722
  H  2.62115224 -1.61196735  1.29180121
  H  2.67027393 -1.94523223 -0.46342045
