18
opt_min/./Reactant_2688_1_opt.xyz
  N  2.82482503 -0.83057931  0.24300288
  C  2.47048945 -0.29926455 -0.71329724
  C  2.11915928  0.32888376 -1.91836807
  C  3.18349193  0.87850025 -2.66092754
  N  4.06612594  1.32409425 -3.24204059
  O  0.92865370  0.39586248 -2.48507463
  N -0.20447704 -0.01951877 -2.06015104
  C -0.39713832 -0.48317029 -0.77623830
  C -1.11034225 -1.66980482 -0.60298363
  C -1.40693543 -2.11198418  0.66892543
  C -1.03604580 -1.36462337  1.77534083
  C -0.37177093 -0.16324802  1.60674017
  C -0.03997425  0.27806697  0.34207417
  H -1.38982337 -2.24047707 -1.47370115
  H -1.93474053 -3.04362030  0.79805061
  H -1.27383718 -1.71374117  2.76822911
  H -0.10197588  0.43490954  2.46284396
  H  0.44240356  1.23596896  0.21148932
