41
opt_min/./Reactant_2388_0_opt.xyz
  C  3.04009100 -0.79830000 -2.50745000
  N  2.27383569 -0.93308238 -1.29313198
  C  2.58097255 -0.20641694 -0.17914941
  O  3.55210331  0.52365905 -0.14461018
  C  1.68315911 -0.42733753  0.96133176
  N  0.40061312 -0.86461213  0.92387785
  C -0.59142051 -0.85477429  0.04807185
  C -0.49521012 -0.22314609 -1.26719641
  C -1.06747264 -0.84115409 -2.38220522
  C -0.99578598 -0.24774130 -3.62775072
  C -0.36662483  0.97728207 -3.77974387
  C  0.18364044  1.61014956 -2.67520630
  C  0.12548611  1.01743344 -1.43011471
  C -1.83660055 -1.49490218  0.44676565
  C -3.06500937 -1.00721893 -0.01147009
  C -4.24745111 -1.59789146  0.38406334
  C -4.23390933 -2.68901705  1.23917993
  C -3.02462010 -3.18564322  1.69769023
  C -1.83671039 -2.59817666  1.30867704
  C  2.13682703 -0.32736027  2.33759764
  O  1.37760023 -0.60150604  3.26298507
  O  3.40914077  0.02908412  2.49064900
  C  3.89366415  0.17542921  3.81521039
  H  4.06597447 -0.54570996 -2.24172237
  H  2.63588253  0.00395550 -3.13220571
  H  3.02048685 -1.73221782 -3.06388171
  H  1.52948361 -1.60718943 -1.28129369
  H  0.13580754 -1.14676935  1.88149489
  H -1.55861969 -1.79681162 -2.26613649
  H -1.42940470 -0.74283208 -4.48358471
  H -0.30648532  1.43950728 -4.75365295
  H  0.66370064  2.57017930 -2.78762556
  H  0.55508407  1.51861400 -0.57643230
  H -3.07555284 -0.15023527 -0.66885934
  H -5.18625011 -1.20065998  0.02734357
  H -5.15970979 -3.15136337  1.54548755
  H -3.00491461 -4.04033885  2.35726120
  H -0.90112476 -3.01171523  1.65858807
  H  4.73279556 -0.50725937  3.94978355
  H  4.23154450  1.20398763  3.94273673
  H  3.10210533 -0.05656600  4.53105694
