26
opt_min/./Reactant_3682_1_opt.xyz
  C  3.95451600 -1.49249900 -0.38296600
  O  2.57293950 -1.15151555 -0.39030650
  C  2.23515965  0.04250097  0.13349749
  O  3.03054013  0.80119956  0.63012171
  C  0.80358537  0.36531990  0.04679674
  C  0.51882976  1.85156036  0.12364949
  C -0.36523100  2.26971363  1.26654147
  O  1.00518949  2.61688937 -0.66095644
  N -0.20546463 -0.47173679 -0.10084363
  C  0.01003003 -1.91363112 -0.10790238
  N -1.37981877  0.02046467 -0.33913036
  C -2.56584684 -0.59785560 -0.08705838
  C -3.69843843  0.12364687 -0.77183467
  O -2.72575317 -1.52067936  0.69170794
  H  4.02937341 -2.53798503 -0.08795879
  H  4.49259770 -0.85338503  0.31860679
  H  4.35909575 -1.35762650 -1.38690422
  H -0.26307488  1.60058856  2.11567113
  H -0.11794220  3.28861740  1.55211181
  H -1.39791533  2.24607906  0.92520415
  H -0.94877929 -2.41179643  0.01913853
  H  0.46953798 -2.21290660 -1.04816987
  H  0.66857938 -2.19247347  0.71128761
  H -3.37847677  0.49270763 -1.74125354
  H -3.99171466  0.97440678 -0.15910196
  H -4.55040370 -0.54255166 -0.86998250
