20
opt_min/./Reactant_1891_1_opt.xyz
  N  3.93622686 -2.88692614  1.14654612
  C  3.04180429 -2.23635763  0.83776191
  C  1.93810832 -1.45714326  0.44769320
  C  1.06560473 -2.02647237 -0.48780784
  N  0.39493174 -2.51108286 -1.28757671
  O  1.87186476 -0.23438586  0.94647796
  C  0.96503360  0.68211864  0.76805206
  C  1.32406936  1.96291438  1.23505436
  N  1.61356011  3.02806518  1.55291459
  C -0.35338876  0.52347917  0.16805073
  C -1.15487529 -0.58020782  0.47814032
  C -2.41665760 -0.69121694 -0.07060678
  C -2.89462254  0.28675778 -0.92770815
  C -2.11558333  1.39703309 -1.21882000
  C -0.85715737  1.52506558 -0.66765749
  H -0.81135909 -1.33029119  1.17603871
  H -3.02795042 -1.54560375  0.17455918
  H -3.87782874  0.18841737 -1.36135114
  H -2.49323330  2.16396641 -1.87736260
  H -0.24301969  2.38393396 -0.89560891
