27
opt_min/./Reactant_1804_1_opt.xyz
  C  1.36879732  1.43029424  0.77442057
  O  0.61399383  0.25162008  0.92939662
  C  0.80799030 -0.73618295 -0.06807002
  C  2.25320048 -1.26766068 -0.07314423
  C  0.43745460 -0.16094523 -1.39848025
  C -0.50593861 -0.00234466 -2.15187761
  C -1.71582432 -0.31593352 -2.94794417
  F -1.37023299 -1.22298735 -3.92011635
  F -2.17191490  0.76956181 -3.63982282
  C -2.97385492 -0.88423858 -2.16775118
  C -2.80390477 -2.01200420 -1.08845455
  C -1.40909295 -1.65499216 -0.59499838
  C -0.24611371 -1.88955336  0.35307075
  H  1.19466827  1.87738490 -0.21124878
  H  1.02533914  2.10977831  1.55176112
  H  2.44132537  1.24880173  0.89838032
  H  2.86743105 -0.71980410 -0.78321653
  H  2.27323989 -2.31814436 -0.34781918
  H  2.67552611 -1.16171760  0.92337657
  H -3.41582980 -0.01070484 -1.68382360
  H -3.65162419 -1.20863051 -2.96044767
  H -3.60181657 -1.91642272 -0.35254896
  H -2.85120267 -3.00163823 -1.54040426
  H -1.55200296 -0.58649376 -0.42265607
  H -0.88997519 -1.86841040 -1.52862625
  H  0.21021320 -2.87072451  0.24519459
  H -0.47250360 -1.69344527  1.39914953
