12
opt_min/./Reactant_383_0_opt.xyz
  C -2.26886400  0.15421900  0.04610200
  O -0.87354979 -0.03101376  0.21002699
  C -0.07064670  0.79754142 -0.51988799
  O -0.48710005  1.64802767 -1.25407268
  N  1.26239698  0.56624911 -0.30020479
  N  1.61318721 -0.48587741  0.33026673
  N  2.76731730 -0.81847431  0.65549240
  H -2.74245617 -0.30104832  0.91293126
  H -2.60766988 -0.33313454 -0.87018411
  H -2.50459037  1.21818746 -0.00919036
  H  0.88756413 -1.17416738  0.61251488
  H  3.45564240 -0.11598597  0.37696262
