25
opt_min/./Reactant_2856_0_opt.xyz
  C -3.65556900  1.78286600  0.68848900
  N -2.88016142  0.66566299  0.22027629
  C -1.52419895  0.60156836  0.38991297
  O -0.91524482  1.51724638  0.93722236
  C -0.94185660 -0.60891056 -0.13512687
  N  0.35810560 -0.91492150 -0.13016364
  C  0.73661212 -2.18076953 -0.73198366
  C  1.29777586 -0.17559188  0.43623526
  C  2.72734704 -0.39433204  0.35318012
  O  3.30057633 -1.29099144 -0.25936777
  N  3.43065397  0.54400120  1.04858180
  C  4.86819470  0.53856287  1.10297130
  H -4.29330765  2.17068603 -0.10701923
  H -2.95161137  2.55247208  1.00179682
  H -4.27888815  1.50272933  1.54274531
  H -3.36649388 -0.09003774 -0.22914777
  H -1.60329632 -1.33401342 -0.57927780
  H  1.03447240 -2.87996283  0.04896618
  H  1.59881187 -2.03128991 -1.37970847
  H -0.09245874 -2.59742741 -1.29850618
  H  0.95035451  0.73088494  0.90702460
  H  2.93625410  1.27759938  1.52494873
  H  5.22717480  0.15914073  2.06458082
  H  5.25951753  1.54391755  0.94802364
  H  5.22536904 -0.12163319  0.31335409
