12
opt_min/./Reactant_4407_1_opt.xyz
  C  2.14790800 -0.13541400  0.09252600
  N  1.28492796  0.50887614 -0.62670712
  N -0.01970933  0.45294168 -0.70644363
  C -0.73928095 -0.31347238  0.16712044
  C -2.21664394 -0.23122233 -0.13919356
  O -0.29341685 -0.95475958  1.10503945
  H  1.81575832 -0.85824220  0.81495613
  H  3.19458553  0.07385051 -0.03972873
  H  1.64762457  1.19259641 -1.29616379
  H -2.75488031 -0.98603410  0.42459527
  H -2.58006969  0.75526352  0.13953032
  H -2.37602498 -0.36362579 -1.20513468
