33
opt_min/./Reactant_5201_0_opt.xyz
  C  4.85954468  1.50113697  0.73078668
  O  4.07189686  0.99375124 -0.33356843
  C  3.15278637  0.06973392  0.00473203
  O  2.96449940 -0.30583302  1.14271895
  C  2.49910780 -0.48318722 -1.17215389
  C  3.09973233 -0.24146051 -2.40974667
  N  3.56450498 -0.00576012 -3.43605423
  N  1.45496403 -1.35209356 -1.10822747
  C  1.36743958 -2.29457467 -2.21359863
  C  0.52089732 -1.28102047 -0.15652048
  C -0.43787388 -2.35793912  0.11495737
  C -1.59292674 -2.01656841  1.02417210
  O -0.36174711 -3.47413080 -0.37629746
  C  0.37361231  0.00562474  0.55588433
  C  0.48520127  0.13782903  1.93671946
  C  0.31316051  1.37394475  2.53441983
  C  0.02578598  2.48821881  1.76450195
  C -0.08458621  2.36594357  0.38883072
  C  0.09704767  1.13590481 -0.21424488
  H  5.35092250  2.39194214  0.34679232
  H  5.60355335  0.76129014  1.03663844
  H  4.22842181  1.74494725  1.58884548
  H  0.91709594 -1.79725144 -3.07564657
  H  2.36589156 -2.62900376 -2.49129123
  H  0.76205598 -3.14952201 -1.92474019
  H -1.28564176 -1.48683516  1.91769465
  H -2.10447610 -2.93812965  1.29159856
  H -2.28570338 -1.37784993  0.47541138
  H  0.75746099 -0.71690886  2.53636135
  H  0.41223876  1.46660051  3.60564196
  H -0.10465286  3.45216503  2.23419215
  H -0.31066834  3.23034422 -0.21822521
  H  0.01037761  1.04880983 -1.28891203
