20
opt_min/./Reactant_2480_1_opt.xyz
  C  3.45976500 -0.86386100 -0.47574100
  N  2.11997071 -0.70532078  0.03748696
  C  1.24533994  0.17738446 -0.50632334
  O  1.50530881  0.85548329 -1.48120042
  C -0.05989490  0.24330325  0.17795416
  C -0.69314433 -0.52790163  1.05759562
  C -2.06283422  0.13346257  1.24440502
  C -2.79876316 -0.11133878 -0.07972925
  C -2.17188851  0.65427378 -0.95689254
  C -1.07583088  1.35471936 -0.14895064
  O -1.71588351  1.50111060  1.10809549
  H  3.72952803 -1.91928235 -0.49927492
  H  4.18507633 -0.31737064  0.13353673
  H  3.47215561 -0.45476867 -1.48557624
  H  1.87636704 -1.19424952  0.88317051
  H -0.41088778 -1.44469159  1.53685385
  H -2.59700515 -0.06742824  2.16565501
  H -3.61423933 -0.79627138 -0.19513899
  H -2.32083112  0.79156480 -2.00779470
  H -0.67143390  2.28239546 -0.53236829
