33
opt_min/./Reactant_5202_0_opt.xyz
  C  4.85954468  1.50113697  0.73078668
  O  4.07189687  0.99375126 -0.33356844
  C  3.15278636  0.06973396  0.00473199
  O  2.96449937 -0.30583298  1.14271891
  C  2.49910779 -0.48318717 -1.17215392
  C  3.09973233 -0.24146047 -2.40974671
  N  3.56450496 -0.00576008 -3.43605427
  N  1.45496403 -1.35209354 -1.10822750
  C  1.36743960 -2.29457467 -2.21359865
  C  0.52089733 -1.28102044 -0.15652050
  C -0.43787387 -2.35793909  0.11495736
  C -1.59292671 -2.01656839  1.02417212
  O -0.36174711 -3.47413076 -0.37629750
  C  0.37361231  0.00562479  0.55588426
  C  0.48520131  0.13782911  1.93671939
  C  0.31316056  1.37394485  2.53441972
  C  0.02578598  2.48821889  1.76450182
  C -0.08458623  2.36594360  0.38883059
  C  0.09704765  1.13590483 -0.21424498
  H  5.35092252  2.39194214  0.34679233
  H  5.60355334  0.76129013  1.03663845
  H  4.22842179  1.74494726  1.58884547
  H  0.91709595 -1.79725146 -3.07564659
  H  2.36589158 -2.62900376 -2.49129124
  H  0.76205601 -3.14952201 -1.92474017
  H -1.28564170 -1.48683516  1.91769468
  H -2.10447606 -2.93812963  1.29159858
  H -2.28570335 -1.37784989  0.47541143
  H  0.75746106 -0.71690875  2.53636129
  H  0.41223884  1.46660064  3.60564184
  H -0.10465284  3.45216511  2.23419200
  H -0.31066838  3.23034424 -0.21822535
  H  0.01037756  1.04880982 -1.28891213
