29
opt_min/./Reactant_1703_0_opt.xyz
  C -3.09189700 -3.13730100 -0.91901900
  N -2.08937596 -2.19772875 -0.48271627
  C -2.41668315 -1.04406925  0.13854893
  O -3.54631245 -0.71710264  0.43351246
  C -1.23360009 -0.16974992  0.43634993
  O -0.10733152 -0.56174746 -0.05265827
  C  1.10361359 -0.03797861  0.02121992
  C  1.55109413  0.90220708  1.05270858
  C  1.03055405  0.62851936  2.44756306
  O  2.37908226  1.76475096  0.84148594
  C  2.00948161 -0.67764265 -0.95821741
  C  3.41430498 -0.16356805 -1.02352653
  O  1.58440014 -1.57154218 -1.66456695
  C -1.50583817  1.17290275  1.04649854
  C -1.05295813  2.32192461  0.17226067
  O -2.09384347  1.31776087  2.08356132
  H -3.14489021 -3.16970807 -2.00908391
  H -2.85912809 -4.13371882 -0.54280092
  H -4.04934318 -2.80708122 -0.51971236
  H -1.13620239 -2.35974885 -0.77360470
  H  0.40448024 -0.25672197  2.51401045
  H  0.47905106  1.48539804  2.83166130
  H  1.90142499  0.50302269  3.09078562
  H  3.41147735  0.90861367 -1.20521317
  H  3.94958119 -0.67731211 -1.81690307
  H  3.91572196 -0.32860246 -0.07217748
  H -0.14858212  2.77471551  0.57698106
  H -0.86087909  2.00522212 -0.85003949
  H -1.83175458  3.08096372  0.18341905
