35
opt_min/./Reactant_3045_1_opt.xyz
  C  3.82303168  0.54086619 -2.37070925
  N  2.90073268 -0.00805673 -1.40753547
  C  2.71369304  0.53936581 -0.19349408
  O  3.29054815  1.52175345  0.21118947
  C  1.69357079 -0.22764338  0.65992653
 Br  2.64188681 -1.90208633  1.20768003
  C  0.48978466 -0.56207228 -0.04860773
  C -0.70154742 -0.46112769 -0.19467539
  C -2.12791533 -0.29021835  0.05213866
  O -2.63802903  0.86332624 -0.54898920
  C -2.80822555  0.77946605 -1.94864338
  O -2.93838378 -1.39507183 -0.29500124
  C -2.29928398 -2.64290817 -0.38719949
  C -2.14584474 -0.06896473  1.58697490
  C -1.32182054  1.09775990  2.17047660
  C  0.08110132  1.51733731  1.68958661
  C  1.26622988  0.55559129  1.91569071
  H  3.29730746  1.13887917 -3.11912727
  H  4.36582480 -0.26252891 -2.86646876
  H  4.52354996  1.18131290 -1.83674312
  H  2.37677966 -0.82998887 -1.66815051
  H -1.85418346  0.57036316 -2.44919046
  H -3.53026647  0.00373538 -2.21497953
  H -3.17820696  1.75272501 -2.26290641
  H -1.84784124 -2.94492446  0.56436000
  H -1.52064051 -2.64367839 -1.15891545
  H -3.07809856 -3.35362690 -0.65720111
  H -3.18635279  0.12193863  1.85338848
  H -1.84265000 -1.01323269  2.04542952
  H -1.93175898  1.99563359  2.06077813
  H -1.24185315  0.89245579  3.24118727
  H  0.30563428  2.41300278  2.27465947
  H  0.04418108  1.83322381  0.64687365
  H  2.14003367  1.14476817  2.20973159
  H  1.02992074 -0.13468112  2.72608431
