37
opt_min/./Reactant_1845_0_opt.xyz
  C  2.29489351 -1.41146461  3.41156074
  N  1.98253511 -0.59817538  2.25892257
  C  2.30680008 -0.98199536  1.01274339
  O  2.85747159 -2.02205322  0.73520738
  C  1.92931765  0.07681132 -0.04931451
  F  2.93354021  1.04949351  0.00552949
  C  0.62463535  0.66125037  0.13991353
  C -0.54177834  0.90743208 -0.02893659
  C -1.72946931  0.94259979 -0.86037007
  C -2.12924241  2.41662241 -1.09045414
  C -2.00208536  2.94511055 -2.48921943
  O -2.48770599  3.09832183 -0.16745475
  C -2.97666003  0.31534875 -0.21895766
  C -3.08601261  0.45900299  1.26969679
  O -3.81075641 -0.21608374 -0.90280397
  C -1.24620477  0.13422983 -2.09068631
  C -0.70850284 -1.25583262 -1.65418969
  C  0.80725049 -1.55408613 -1.75566960
  C  1.88089908 -0.49126414 -1.48110463
  H  1.52686743 -2.17391325  3.56573200
  H  3.24685146 -1.91456026  3.23978235
  H  2.36428416 -0.78306370  4.29589544
  H  1.54448481  0.29867715  2.40084932
  H -2.26360286  2.20474806 -3.23780307
  H -2.62970930  3.82700866 -2.59525617
  H -0.96469262  3.24674798 -2.63974766
  H -4.05657245  0.88929768  1.51094146
  H -3.04594501 -0.53329240  1.71720971
  H -2.29648090  1.08140181  1.67936544
  H -2.07317512 -0.01602477 -2.78496609
  H -0.45022073  0.68491508 -2.58832847
  H -1.19763569 -1.97945908 -2.30909357
  H -1.05079130 -1.46470498 -0.64202667
  H  1.00865962 -2.39206583 -1.08482070
  H  1.00659636 -1.91400753 -2.76821102
  H  1.79145173  0.35507011 -2.16557411
  H  2.84852840 -0.96738977 -1.66303124
