22
opt_min/./Reactant_4067_1_opt.xyz
  C  3.43672004 -1.32365799 -1.60282492
  N  2.43538056 -0.32902956 -1.30415559
  C  1.29815461 -0.63889843 -0.62806264
  O  1.08813024 -1.75244987 -0.19312934
  C  0.34417331  0.48858217 -0.46424307
  N  0.61860228  1.60007739 -1.00787427
  N  0.90607573  2.58696235 -1.48565717
  C -0.92925722  0.35418073  0.25923476
  C -1.11087589 -0.62578308  1.23200474
  C -2.31823353 -0.72223419  1.89898061
  C -3.35083562  0.15682200  1.62158072
  C -3.17291678  1.14018793  0.66276109
  C -1.97435644  1.24072177 -0.01574237
  H  4.42133273 -0.97125517 -1.29206324
  H  3.18314034 -2.22785420 -1.05280781
  H  3.45593460 -1.54875486 -2.67238833
  H  2.57201109  0.58484716 -1.70464068
  H -0.31503745 -1.31567642  1.45575658
  H -2.45176832 -1.48895483  2.64828783
  H -4.29102827  0.07812053  2.14744950
  H -3.97070622  1.83321568  0.43767488
  H -1.84920219  2.00456518 -0.77090406
