47
opt_min/./Reactant_3154_0_opt.xyz
  C  5.51420267 -0.29774894 -0.53859758
  O  4.29005390  0.34160057 -0.19747610
  C  3.40760856 -0.40288516  0.46836591
  O  3.57260412 -1.55054523  0.76964440
  C  2.15817639  0.41849495  0.82066216
  C  2.41010991  0.98549399  2.12918439
  N  2.59809704  1.38581173  3.18297922
  C  0.94500335 -0.38285704  0.85141811
  C -0.14525614 -0.69120586  0.45358550
  C -1.42637163 -0.54633409 -0.22057805
  C -2.47741206  0.02139493  0.71027451
  C -2.31033091 -0.03155957  2.08738625
  C -3.26930162  0.49479425  2.93553024
  C -4.41126730  1.07972256  2.41820881
  C -4.59078064  1.12916173  1.04607910
  C -3.63292404  0.60359244  0.19829217
  C -1.84634017 -1.85547056 -0.87225521
  C -0.90791716 -2.56146497 -1.61801794
  C -1.24477852 -3.75081273 -2.23658428
  C -2.52651929 -4.25932922 -2.11381277
  C -3.45978960 -3.57508574 -1.35644059
  C -3.12247724 -2.38357628 -0.73649447
  C -1.04560060  0.48735681 -1.33372425
  C -0.71405275  1.92022770 -0.87873386
  C  0.46043918  2.20622405  0.07892646
  C  1.81609548  1.51946919 -0.22274813
  H  5.31958798 -1.20495062 -1.11382840
  H  6.07564751  0.42077059 -1.12977052
  H  6.06448967 -0.56473288  0.36546317
  H -1.42263505 -0.48961070  2.49854400
  H -3.12096351  0.44665193  4.00419591
  H -5.15928305  1.49236240  3.07870217
  H -5.48229995  1.57844503  0.63263061
  H -3.79283465  0.64281863 -0.86940920
  H  0.10310174 -2.18851984 -1.70105447
  H -0.50202581 -4.28379694 -2.81197149
  H -2.79277268 -5.18756522 -2.59721223
  H -4.45855191 -3.97025691 -1.24103030
  H -3.86253885 -1.87121077 -0.14044492
  H -1.88183410  0.56141418 -2.03258844
  H -0.19914839  0.07872192 -1.88748246
  H -0.53987818  2.48459771 -1.79965588
  H -1.60450562  2.34030314 -0.40462410
  H  0.65831855  3.28002612  0.04519979
  H  0.15703587  1.97108052  1.09939005
  H  1.78631594  1.05156271 -1.20756225
  H  2.61974265  2.25781038 -0.23661020
