15
opt_min/./Reactant_3930_0_opt.xyz
  C  2.19382342  0.68209346 -0.88943887
  C  0.99167592  0.66866455  0.00602740
  O  0.68320571  1.56111140  0.76744002
  N  0.34632874 -0.54541487 -0.04610193
  N -0.82203761 -0.74547494  0.40854188
  C -1.76872743  0.34366040  0.65364149
  N -1.17908841 -1.94944784  0.58805331
  C -2.35266436 -2.34295638  0.97011028
  N -3.35637920 -2.82711261  1.26647031
  H  2.98326778  0.10219646 -0.41436210
  H  1.95676164  0.21346460 -1.84070968
  H  2.53889398  1.70213875 -1.03232684
  H -1.58409206  0.74857973  1.65075660
  H -1.61316952  1.14282539 -0.06895629
  H -2.78601822 -0.04334664  0.59341983
