8
opt_min/./Reactant_1371_0_opt.xyz
  C -1.29453704 -0.48904095 -0.08739980
  O  0.01378589 -0.97099247  0.20495834
  C  0.97103597 -0.10122054  0.18275715
  C  1.87435617  0.69132049  0.17698574
 Br  3.23789009  1.87470595  0.17917706
  H -1.52885274 -0.67901409 -1.13583256
  H -1.99127633 -1.03853322  0.54212284
  H -1.38870352  0.57656226  0.11997854
