17
opt_min/./Reactant_3376_0_opt.xyz
  C  1.70326847 -1.98285406  0.41064562
  C  1.13012097 -0.59178719  0.32506001
  C  1.83075580  0.44499739  0.91643110
  N  2.50501215  1.24860537  1.40419038
  O  0.00013889 -0.50460865 -0.35588702
  C -0.78140610  0.50168568 -0.56505061
  C -0.50354216  1.86688102 -0.04053426
  C -1.95694807  0.22085202 -1.44689847
  H  2.73653172 -2.00319996  0.06564691
  H  1.68172669 -2.35929949  1.43413332
  H  1.10841246 -2.64292560 -0.21735563
  H -0.28200716  1.82373339  1.02774410
  H  0.37256912  2.30639796 -0.52540174
  H -1.35450505  2.51903099 -0.20834381
  H -2.30399355 -0.80045495 -1.30110491
  H -1.68610896  0.33377896 -2.50002454
  H -2.76877189  0.90819630 -1.23166688
