21
opt_min/./Reactant_1763_0_opt.xyz
  C  4.00892408  0.17193311  1.57554973
  N  2.93389868  0.71688951  0.78233456
  C  1.72350567  0.10869114  0.72509310
  O  1.45774809 -0.92155211  1.32182381
  C  0.70998356  0.84280117 -0.03663918
  O -0.49944780  0.43382154 -0.23858690
  C -0.99579365 -0.77920042 -0.25431247
  C -0.28253926 -1.98820501 -0.17534597
  N  0.25419202 -3.00278214 -0.23238589
  C -2.45742884 -0.86236511 -0.45943392
  O -3.07224574 -1.88859790 -0.59769421
  O -3.00265515  0.36737861 -0.46094581
  C -4.40853501  0.44637685 -0.65184229
  H  4.08007614  0.67545875  2.54290342
  H  4.95359443  0.27744699  1.04500489
  H  3.79300395 -0.88226211  1.74414931
  H  3.09592382  1.57267842  0.27941853
  H  0.83411032  1.89548285 -0.25735166
  H -4.78947296  1.19277888  0.04299928
  H -4.86518209 -0.52652217 -0.46147292
  H -4.61527017  0.75380223 -1.67838006
