31
opt_min/./Reactant_3061_1_opt.xyz
  N -2.07115251 -2.86657367 -1.90234058
  C -1.45554797 -2.07067569 -1.36171676
  C -0.68080455 -1.02272899 -0.72714620
  C -1.23082291  0.31677310 -1.18971933
  C -0.41276554  1.26930677 -1.78046427
  C -0.93625761  2.49036131 -2.16808405
  C -2.27941718  2.76479672 -1.97637245
  C -3.10126985  1.81057294 -1.40102079
  C -2.58043924  0.59067059 -1.00974081
  C  0.73725383 -1.17906484 -0.97024920
  C  1.91823350 -1.31514177 -0.79135629
  C  3.15716867 -1.18529003 -0.09457280
 Br  4.55890729 -0.25140072 -1.14959164
 Br  3.88482880 -2.97199883  0.37217976
  C  2.83997837 -0.38622651  1.17527707
  C  1.60414281 -0.90704152  1.93651535
  C  0.25313690 -0.25065092  1.56266257
  C -0.74942886 -1.16218075  0.82919783
  H  0.63500803  1.05713135 -1.93987056
  H -0.29272224  3.22764013 -2.62384731
  H -2.68550588  3.71761610 -2.28058853
  H -4.15204557  2.01297565 -1.25833603
  H -3.23102795 -0.15576699 -0.57548236
  H  2.67534250  0.65279413  0.87649355
  H  3.71576593 -0.40480662  1.82954934
  H  1.79427963 -0.71634438  2.99410402
  H  1.52846911 -1.98972720  1.82377831
  H  0.43219197  0.64945337  0.97143524
  H -0.23176378  0.07189783  2.48526549
  H -1.76715959 -0.92962641  1.14765573
  H -0.55119021 -2.20587556  1.08439012
