34
opt_min/./Reactant_3166_1_opt.xyz
  C -4.16075300 -2.32683000 -1.33755400
  N -3.45783621 -1.32498720 -0.57943896
  C -2.11912342 -1.19203156 -0.65024843
  O -1.39478179 -1.91236005 -1.33603134
  C -1.57218554 -0.06657150  0.11083229
  O -0.23394698  0.15701513  0.05096700
  C  0.65515279 -0.80081840  0.05968383
  C  0.36147661 -2.13475410  0.64096454
  C  1.97292520 -0.42537616 -0.39265996
  C  3.04298348 -1.33272168 -0.38558077
  C  4.28882408 -0.95154577 -0.83899289
  C  4.50642841  0.33520411 -1.30947419
  C  3.45607757  1.23976358 -1.33606273
  C  2.20512166  0.86628739 -0.89260714
  C -2.37201243  1.01767713  0.64365396
  O -3.60265598  0.99288792  0.70881367
  N -1.66488586  2.07222038  1.13279935
  C -2.31135257  3.20563570  1.74513007
  H -4.96118664 -2.75203496 -0.73380722
  H -3.44787728 -3.10043989 -1.62163466
  H -4.59365826 -1.90746396 -2.25212539
  H -3.98458944 -0.59454133 -0.10675882
  H  1.20904424 -2.47859130  1.23017152
  H  0.12194494 -2.87588145 -0.12307566
  H -0.52227262 -2.04594330  1.27757153
  H  2.90082183 -2.34300985 -0.03866969
  H  5.10415746 -1.65976021 -0.83140345
  H  5.48409502  0.62640805 -1.66243855
  H  3.60889835  2.24048115 -1.71254305
  H  1.38873247  1.57097358 -0.93729191
  H -0.66226218  2.07789048  1.05561577
  H -2.32026114  3.11195592  2.83489926
  H -1.79658671  4.12297925  1.46466979
  H -3.34111319  3.23577013  1.39079482
