21
opt_min/./Reactant_4120_0_opt.xyz
  C -1.87597180 -2.18804164 -2.52411664
  C -1.42312570 -1.22523292 -1.49476369
  N -2.12402029 -0.63161342 -0.60419094
  C -1.25047658  0.15275398  0.12135202
  C -1.52324876  0.95959110  1.27524078
  C -2.94601708  0.98204689  1.75333606
  O -0.61605132  1.58358973  1.82137733
  C  0.02058326 -0.03332783 -0.42666420
  O -0.07805210 -0.89920661 -1.45044296
  N  1.16461576  0.53390514 -0.04641404
  C  2.44800296  0.30238920 -0.65124094
  H -2.78509355 -1.82295648 -2.99628183
  H -1.09560070 -2.31244483 -3.26946985
  H -2.09425967 -3.15276503 -2.06867371
  H -3.58817937  1.33422363  0.95098712
  H -3.25742786 -0.02935202  2.00407699
  H -3.03925176  1.62931050  2.62169143
  H  1.06295939  1.14369381  0.76158854
  H  2.31932480 -0.32048103 -1.53431262
  H  2.90261842  1.25015522 -0.94710920
  H  3.11874869 -0.20569025  0.04542822
