15
opt_min/./Reactant_3465_1_opt.xyz
  N  3.55057916  0.53716981  1.54426572
  N  2.78554553  0.82794191  0.76293707
  C  1.89031011  1.16374575 -0.06042616
  C  0.54734066  0.62193247 -0.03953923
  C  0.21795133 -0.49977850  0.72802172
  C -1.07414022 -0.98551710  0.72698836
  C -2.05543218 -0.37380172 -0.03514141
  C -1.73641202  0.73569024 -0.80301904
  C -0.44804145  1.23078379 -0.80642657
  H  2.15585322  1.89820178 -0.80439632
  H  0.97976679 -0.98330373  1.32175991
  H -1.31661575 -1.85259090  1.32375649
  H -3.06395087 -0.75824789 -0.03427370
  H -2.49819178  1.21563325 -1.39914462
  H -0.20016239  2.09599925 -1.40470514
