31
opt_min/./Reactant_3082_0_opt.xyz
  C  2.70907030 -2.37678462 -0.55035174
  C  2.60510430 -0.90409749 -0.77867320
  O  3.18150458 -0.29566313 -1.63613946
  C  1.70406494 -0.17532723  0.25566165
  F  2.32050626 -0.35435843  1.49229744
  C  0.36180778 -0.71807073  0.27359651
  C -0.83135094 -0.59453782  0.21842917
  C -2.16795819 -0.07302995 -0.00468856
  C -2.88674447  0.06998768  1.34784538
  F -4.15468888  0.47314251  1.22235537
  F -2.29226298  0.96736134  2.14094723
  F -2.90247236 -1.08120328  2.02415279
  C -2.96234933 -1.05405205 -0.89015512
  F -2.57061695 -0.99223689 -2.16993791
  F -4.27992901 -0.84169496 -0.89337639
  F -2.77627255 -2.32091674 -0.50069968
  C -1.89665373  1.25769390 -0.73589760
  C -0.98402450  2.31176272 -0.05814676
  C  0.31552307  1.97860038  0.70580847
  C  1.51587340  1.32963134 -0.02075969
  H  3.48399914 -2.54303615  0.20097580
  H  1.77573086 -2.78952100 -0.17404900
  H  3.01293971 -2.87866997 -1.46642520
  H -1.45572815  0.99038972 -1.69944205
  H -2.84992215  1.76281966 -0.93248337
  H -1.59660198  2.84426361  0.67487569
  H -0.74074401  3.01209799 -0.86132686
  H  0.66168203  2.95713582  1.05009963
  H  0.08601973  1.41534968  1.60895328
  H  1.45488774  1.48320973 -1.09775455
  H  2.42684074  1.82642610  0.31497372
