27
opt_min/./Reactant_2979_1_opt.xyz
  C  1.84658367  3.02027311  1.98039236
  N  1.45070951  2.10919866  0.93375745
  C  1.55761291  0.77137979  1.05771916
  O  1.98263449  0.21450691  2.04385441
  C  1.09676809  0.00657368 -0.19178999
  C -0.11279974  0.53636955 -0.76917904
  C -1.24095176  0.45673601 -1.18185158
  C -2.51126067 -0.13736308 -1.41613884
 Br -4.02928672  1.10234255 -1.02431393
 Br -2.70430448 -0.70612604 -3.31207694
  C -2.57818554 -1.34267737 -0.47821380
  C -1.55460118 -2.46842092 -0.73843621
  C -0.05166654 -2.19090714 -0.94760616
  C  0.70610032 -1.45219426  0.17113154
  H  1.04868336  3.73476458  2.18156793
  H  2.04308108  2.43060996  2.87396179
  H  2.75394558  3.56268471  1.70480742
  H  1.06548284  2.50120487  0.08830263
  H  1.92101920  0.01432223 -0.91222589
  H -3.57413870 -1.78843673 -0.54413422
  H -2.44880412 -0.96009418  0.53834164
  H -1.64982193 -3.14730723  0.11262554
  H -1.88294066 -3.01918549 -1.62390623
  H  0.09186787 -1.66997442 -1.89498230
  H  0.39826826 -3.17915716 -1.06687310
  H  1.62404072 -1.98784684  0.41557149
  H  0.10424739 -1.41380270  1.08006612
