21
opt_min/./Reactant_1664_0_opt.xyz
  C  3.18927418  0.72719187 -1.11698759
  N  2.02125578  0.22565834 -0.43820242
  C  0.84989980  0.88329130 -0.46067718
  O  0.72191848  1.99408199 -0.96693077
  C -0.29046561  0.18340586  0.19130625
  N -1.46844071  0.82852646  0.31628092
  C -1.82451934  2.05409040 -0.00815911
  C -3.11199993  2.50015012  0.26827664
  N -4.17909336  2.86749380  0.49840684
  C -0.23368967 -1.19005142  0.64264860
  C -1.50457629 -1.81000915  1.20340660
  O  0.78246448 -1.87561927  0.58826162
  H  3.46478682  0.07498449 -1.94811679
  H  4.02659459  0.78761942 -0.42020191
  H  2.96177172  1.72142045 -1.49903640
  H  2.02587401 -0.73346648 -0.10190376
  H -2.20411341  0.27125722  0.75250040
  H -1.11523228  2.70281890 -0.50269422
  H -1.85963760 -1.28428809  2.08884486
  H -1.26932191 -2.83222976  1.48960450
  H -2.29063761 -1.84079723  0.44943747
