32
opt_min/./Reactant_4325_1_opt.xyz
  C  5.68673393 -1.64852216  0.37453869
  O  4.42526559 -1.01020691  0.28763959
  C  3.35917453 -1.85616487  0.33516196
  O  3.44558042 -3.06315455  0.45505286
  C  2.15020760 -1.17566256  0.24793696
  N  1.07728427 -0.69214194  0.10043376
  C -0.09403177 -0.19919342 -0.07417545
  C -1.23168925 -1.12021377 -0.04946447
  C -1.18035389 -2.27491653  0.73477086
  C -2.24176271 -3.15934700  0.74821844
  C -3.36556607 -2.91264518 -0.02309977
  C -3.41657586 -1.78024226 -0.82007161
  C -2.36007382 -0.89119817 -0.83989521
  C -0.22499679  1.24150404 -0.26896647
  C  0.85316524  1.98506763 -0.76127173
  C  0.74263691  3.34976375 -0.93483422
  C -0.43771369  4.00219828 -0.61622781
  C -1.50488119  3.27817625 -0.10910192
  C -1.40290336  1.91247753  0.06851590
  H  5.72163621 -2.30910356  1.24313745
  H  6.42115185 -0.85312924  0.46948338
  H  5.87935883 -2.23824818 -0.52469735
  H -0.30635751 -2.46966216  1.33952544
  H -2.19198176 -4.04413737  1.36524459
  H -4.19407284 -3.60476592 -0.00947944
  H -4.28228114 -1.59269171 -1.43821294
  H -2.39068752 -0.02540146 -1.48477260
  H  1.77361903  1.47995280 -1.01689577
  H  1.58059913  3.90915688 -1.32371947
  H -0.52215373  5.06946631 -0.75502002
  H -2.42156385  3.78336155  0.15791390
  H -2.22827411  1.36107727  0.49340895
