32
opt_min/./Reactant_5752_1_opt.xyz
  C  5.68673393 -1.64852216  0.37453869
  O  4.42526560 -1.01020689  0.28763960
  C  3.35917453 -1.85616484  0.33516197
  O  3.44558041 -3.06315451  0.45505289
  C  2.15020760 -1.17566251  0.24793697
  N  1.07728427 -0.69214190  0.10043377
  C -0.09403177 -0.19919340 -0.07417544
  C -1.23168925 -1.12021376 -0.04946447
  C -1.18035389 -2.27491652  0.73477087
  C -2.24176271 -3.15934700  0.74821843
  C -3.36556605 -2.91264518 -0.02309979
  C -3.41657583 -1.78024227 -0.82007164
  C -2.36007380 -0.89119817 -0.83989523
  C -0.22499680  1.24150407 -0.26896645
  C  0.85316521  1.98506767 -0.76127174
  C  0.74263684  3.34976377 -0.93483425
  C -0.43771375  4.00219830 -0.61622780
  C -1.50488122  3.27817626 -0.10910189
  C -1.40290338  1.91247755  0.06851593
  H  5.72163620 -2.30910355  1.24313745
  H  6.42115186 -0.85312926  0.46948338
  H  5.87935881 -2.23824818 -0.52469734
  H -0.30635753 -2.46966213  1.33952547
  H -2.19198178 -4.04413735  1.36524459
  H -4.19407284 -3.60476593 -0.00947946
  H -4.28228112 -1.59269172 -1.43821299
  H -2.39068750 -0.02540145 -1.48477261
  H  1.77361898  1.47995284 -1.01689581
  H  1.58059903  3.90915690 -1.32371954
  H -0.52215380  5.06946632 -0.75502003
  H -2.42156389  3.78336154  0.15791394
  H -2.22827412  1.36107727  0.49340900
