32
opt_min/./Reactant_5522_0_opt.xyz
  C  4.04105221  2.67409779  1.20824780
  N  3.01963212  1.88638999  0.57024956
  C  2.49997242  0.76987576  1.15424849
  O  2.88690975  0.39984695  2.25793003
  C  1.47715743  0.10762432  0.34122039
  C  1.12746759  0.72335555 -0.85629902
  N  0.90436796  1.28014672 -1.84402091
  N  0.84335438 -1.06174936  0.69387594
  C  1.44968344 -1.83021400  1.76391402
  C -0.26812800 -1.46876914  0.09313207
  C -0.59531437 -2.92547158 -0.05543932
  C -1.21190294 -0.53637522 -0.50496162
  C -1.98912331 -0.88833669 -1.61308687
  C -2.96077374 -0.03694802 -2.09998527
  C -3.20335023  1.18027732 -1.48749406
  C -2.45723240  1.53555831 -0.37355416
  C -1.47474294  0.69710092  0.10377378
  H  4.86074478  2.86958759  0.51573411
  H  3.64019861  3.62562409  1.56954958
  H  4.40862648  2.10640475  2.06388313
  H  2.68283933  2.18576931 -0.33105622
  H  2.43846552 -2.18782368  1.47588927
  H  0.81502392 -2.65859670  2.05925994
  H  1.59347109 -1.16793572  2.61964977
  H -0.36854557 -3.21934534 -1.08508360
  H -0.01654387 -3.57724753  0.59024731
  H -1.65502363 -3.10593416  0.11436333
  H -1.80697673 -1.82158073 -2.12357679
  H -3.53378220 -0.32706547 -2.96915023
  H -3.96130506  1.84528450 -1.87247126
  H -2.64093155  2.47738435  0.12251778
  H -0.91737622  0.98804986  0.98486517
