18
opt_min/./Reactant_252_1_opt.xyz
  C  4.23073210  0.42998859 -1.05320374
  N  2.78900283  0.34699026 -0.99975974
  C  2.14742917  0.16042837  0.17603791
  O  2.69586574  0.05047467  1.25133136
  C  0.70402661  0.11590836  0.01931510
  C -0.49841801  0.10281298 -0.05362264
  C -1.94768647  0.13712630 -0.16345824
  O -2.52370230  0.70535798 -1.06610998
  N -2.54859025 -0.51961081  0.85437862
  C -3.98349683 -0.61986188  0.96304127
  H  4.68017957 -0.54992218 -0.87569157
  H  4.58320368  1.10736386 -0.27394270
  H  4.53966180  0.79901288 -2.02694685
  H  2.25375831  0.45238161 -1.84589394
  H -1.98525688 -0.95247577  1.56927760
  H -4.31872743 -1.64327741  0.77904377
  H -4.31518590 -0.30719378  1.95298764
  H -4.41666058  0.03500898  0.20841106
