12
opt_min/./Reactant_3449_1_opt.xyz
  C -2.00589400 -0.02285400  0.57072700
  N -0.87417109 -0.12826421 -0.31610132
  C  0.32891041  0.39301960  0.00456203
  O  0.61357679  0.92850545  1.04877578
  N  1.19586946  0.30502130 -1.11180451
  O  2.45836991  0.33202801 -0.96788218
  N  3.06800083  0.17771588  0.16045497
  H -1.63239157  0.00508340  1.59388199
  H -2.57243546  0.89413771  0.38605578
  H -2.65912907 -0.88270085  0.43864979
  H -1.00827370 -0.47608469 -1.25142619
  H  4.06990438  0.24525978 -0.04189035
