25
opt_min/./Reactant_5642_1_opt.xyz
  C -2.26113487  0.96402414 -0.43372759
  C -1.19942058  1.09547223  0.59700721
  C -1.47665528  1.88337021  1.83346449
  N -0.01611507  0.54189658  0.45615022
  C  0.50027827 -0.28914300 -0.48957321
  C -0.33410741 -0.97628145 -1.37037789
  N -1.01090554 -1.60055178 -2.06783562
  C  1.92451217 -0.55042694 -0.51163905
  C  2.41878986 -1.59544904 -1.30384421
  C  3.76589273 -1.88446814 -1.33914090
  C  4.66411571 -1.14450711 -0.58646080
  C  4.19503516 -0.09694547  0.18759679
  C  2.84771832  0.20552010  0.22137997
  H -2.99321849  1.75882080 -0.31243401
  H -1.82423388  1.01866481 -1.43222209
  H -2.78267384  0.00563897 -0.37047783
  H -1.79759174  2.89665397  1.58287307
  H -2.28601974  1.41995002  2.40245072
  H -0.60007543  1.94553037  2.47786005
  H  0.67006801  0.79109677  1.16832476
  H  1.72241786 -2.18026363 -1.88708668
  H  4.12246423 -2.69631483 -1.95746739
  H  5.71885953 -1.37480457 -0.60882092
  H  4.88751684  0.49855749  0.76671585
  H  2.53192652  1.06001254  0.80764242
