14
opt_min/./Reactant_3950_0_opt.xyz
  C -0.02364096 -2.69753401 -0.04469971
  O  0.06293349 -1.27907706 -0.02343278
  C -1.09090088 -0.63067585  0.21385710
  O -2.15080478 -1.15990116  0.40819559
  C -0.87256982  0.82854450  0.21530118
  C -1.95474899  1.69522595  0.44139799
  N -2.83988182  2.40275057  0.61343799
  N  0.30103934  1.30797639  0.00185410
  C  1.39511272  1.70389939 -0.17607446
  C  2.64029861  2.14663887 -0.38216297
  N  3.71841183  2.52500256 -0.56096273
  H -0.61896507 -3.02615060 -0.89891451
  H -0.48804311 -3.06327455  0.87291379
  H  0.99717699 -3.06046915 -0.13006005
