25
opt_min/./Reactant_3056_1_opt.xyz
  N -2.85558056  0.50371860 -2.69178992
  C -2.35170874  0.38898604 -1.67493951
  C -1.67337074  0.23415258 -0.39978467
  C -2.62242397  0.49236541  0.67244249
  N -3.35809354  0.68222716  1.52303045
  C -0.50894954  1.10225331 -0.27226692
  C  0.64855291  1.25430896  0.01034909
  C  2.01989824  0.95148219  0.30825656
 Br  2.40403395  1.18950786  2.23500757
  C  3.01114743  1.83587638 -0.44558634
  F  2.89742623  3.12526541 -0.12491180
  F  4.27935773  1.47670631 -0.22116327
  F  2.81724880  1.74588678 -1.77304552
  C  2.17109083 -0.52475781 -0.11349452
  C  1.36034341 -1.56552815  0.67319065
  C -0.14204624 -1.36048312  0.95035149
  C -1.07226718 -1.20746549 -0.27115467
  H  3.22619545 -0.80449050 -0.03031984
  H  1.91224072 -0.56183333 -1.17709438
  H  1.48220820 -2.50734442  0.13298150
  H  1.83289724 -1.69264877  1.64975413
  H -0.27074823 -0.51842111  1.63104721
  H -0.45913319 -2.24862962  1.50100231
  H -1.90500050 -1.90787432 -0.20117675
  H -0.51920579 -1.41580376 -1.18870543
