33
opt_min/./Reactant_4896_1_opt.xyz
  C  0.58645200  0.74765600  1.35862400
  C  1.13640635 -0.38766314  0.56077411
  O  0.46302392 -1.51224899  0.38472290
  C -0.78454016 -1.81260981  0.69160674
  C -1.02533139 -3.29588352  0.68724778
  C -1.87843658 -0.87600882  0.72156259
  C -3.02204373 -1.09200599  1.50540130
  C -4.08962914 -0.22162223  1.45502631
  C -4.06337320  0.88111532  0.61478813
  C -2.95391259  1.09662246 -0.18799644
  C -1.87731595  0.23910693 -0.13761076
  C  2.44435273 -0.35637239 -0.02671362
  C  3.27917358  0.76961209  0.07621857
  C  4.53341092  0.77603801 -0.49682439
  C  5.00344269 -0.32775507 -1.19057305
  C  4.19109108 -1.44612183 -1.31175945
  C  2.93537456 -1.46219372 -0.74857473
  H  0.13977783  1.53115361  0.74286126
  H -0.17567612  0.37948593  2.04525127
  H  1.38893379  1.19125153  1.94624433
  H -0.19950191 -3.81428008  1.17274339
  H -1.10766548 -3.68191554 -0.33199310
  H -1.94905216 -3.53358425  1.20537195
  H -3.05463519 -1.93300356  2.18260920
  H -4.95286626 -0.39892867  2.08097113
  H -4.90224557  1.56008383  0.57932729
  H -2.93540388  1.93796089 -0.86595716
  H -1.04002375  0.38771498 -0.80508388
  H  2.93911558  1.64848762  0.60106276
  H  5.15702426  1.65418714 -0.40474443
  H  5.98666999 -0.31525623 -1.63660236
  H  4.54522514 -2.30965907 -1.85667991
  H  2.30763925 -2.33359636 -0.85470631
