29
opt_min/./Reactant_3126_1_opt.xyz
  C -4.11432800  1.18769100 -0.25989400
  C -2.59671185  1.11513455 -0.15429363
  O -1.93893457  2.12039974 -0.44583439
  C -2.04979611 -0.14515946  0.22702870
  C -2.96534416 -1.28024615  0.58382043
  N -0.70694612 -0.40391715  0.16797687
  C -0.30444794 -1.80051323  0.11036668
  C  0.21689206  0.53464728  0.06934973
  C  1.64622604  0.38753800 -0.04015539
  C  2.41581101 -0.55591569  0.65654866
  C  3.79049399 -0.58380846  0.51866458
  C  4.43289235  0.32287785 -0.30680372
  C  3.69272661  1.28828638 -0.97255089
  C  2.32247890  1.32910813 -0.83031444
  H -4.56684306  1.13860242  0.72944395
  H -4.51809088  0.39329609 -0.88063412
  H -4.36651959  2.15201672 -0.69737703
  H -2.49131327 -1.97529538  1.27454587
  H -3.85064820 -0.89549987  1.08425859
  H -3.30539135 -1.84583014 -0.28944968
  H -1.05122728 -2.37742904 -0.43100594
  H -0.18145791 -2.21879021  1.11005880
  H  0.64420062 -1.87686454 -0.42010345
  H -0.15893499  1.54123066 -0.04281099
  H  1.94898794 -1.23269157  1.35489547
  H  4.36671480 -1.31424284  1.06750972
  H  5.50725503  0.28790892 -0.41497864
  H  4.19289118  2.01201840 -1.59908237
  H  1.74156509  2.08094582 -1.34399478
