33
opt_min/./Reactant_1893_1_opt.xyz
  C -2.82793528 -1.74184770  0.79587063
  C -2.15962645 -1.32035277 -0.48110394
  O -2.18149736 -1.96897008 -1.49117144
  C -1.43859438  0.03553722 -0.39001848
  C -2.41042461  1.14507759  0.01948364
  C -1.78252760  2.31959165  0.71796350
  O -3.58678114  1.08188437 -0.22502008
  C -0.30725361 -0.11991486  0.49824767
  C  0.81360288 -0.22033945  0.91941284
  C  2.26267106 -0.31251917  0.91393049
  C  2.82660660 -1.39805080  1.81884721
  F  2.79524849  0.91259491  1.32751126
  C  2.62575845 -0.51501741 -0.57847712
  C  1.79605150  0.35460322 -1.54384923
  C  0.50196199 -0.30116971 -2.08554446
  C -0.81162936  0.43413097 -1.76264434
  H -2.25894568 -1.43422750  1.66925431
  H -3.80312367 -1.25391477  0.82609365
  H -2.98455537 -2.81775078  0.79969056
  H -1.98904512  2.22562183  1.78412360
  H -2.24766354  3.24201543  0.37588715
  H -0.70671099  2.35478640  0.57658044
  H  2.72126265 -1.09577214  2.85899892
  H  3.88195117 -1.55256860  1.60483958
  H  2.28774681 -2.32902186  1.66321615
  H  2.47960709 -1.57002266 -0.81100080
  H  3.68796049 -0.28587919 -0.68896622
  H  1.55048398  1.29255371 -1.04560035
  H  2.44057257  0.60934917 -2.38782815
  H  0.43071833 -1.32738716 -1.72767810
  H  0.56732177 -0.35603447 -3.17430672
  H -1.55366712  0.20344276 -2.52930990
  H -0.63656111  1.51097861 -1.77164879
