30
opt_min/./Reactant_978_1_opt.xyz
  C -0.26745000 -1.79267700  0.61149100
  C  0.08165935 -0.51136441 -0.08381817
  C  1.41561769 -0.21974232 -0.50548559
  C  1.65116898  0.67691805 -1.57215103
  C  2.92424343  0.96835087 -2.00695644
  C  4.02726488  0.36965566 -1.41661843
  C  3.82141452 -0.54250339 -0.39313873
  C  2.55063528 -0.83622020  0.05103163
  N -0.92851512  0.38447229 -0.29336546
  C -0.69369683  1.79265021 -0.01061829
  C -2.17212973 -0.00015493 -0.59219127
  C -2.39776115 -1.27343869 -1.33545505
  C -3.34090142  0.89551071 -0.33458590
  H  0.52156474 -2.05766147  1.31190903
  H -0.40087021 -2.64707436 -0.05735589
  H -1.19123257 -1.65681415  1.17403824
  H  0.80946388  1.11684603 -2.08807731
  H  3.05872840  1.65889168 -2.82866648
  H  5.02568669  0.59611404 -1.75904252
  H  4.66692227 -1.03213605  0.07078888
  H  2.43505298 -1.54696194  0.85589479
  H -1.02486900  2.42269822 -0.83592260
  H -1.24633640  2.08267031  0.88567189
  H  0.36600006  1.95005455  0.16869498
  H -3.21345971 -1.13961572 -2.04376196
  H -1.49210310 -1.53711007 -1.88269341
  H -2.65511829 -2.11976997 -0.69397353
  H -3.30801408  1.32896923  0.66538172
  H -4.26326868  0.32903378 -0.42365430
  H -3.38332393  1.72440308 -1.04750091
