14
opt_min/./Reactant_3488_0_opt.xyz
  C  1.80253100 -0.01815700 -0.44489500
  C  0.65347514 -0.93078462 -0.06209540
  O  0.79329390 -2.12930780  0.00059585
  C -0.64213788 -0.26915161  0.17020146
  C -0.85970943  1.18845908 -0.08791733
  N -1.66833370 -0.95920388  0.59876514
  O -1.77209814 -2.15300857  0.89979365
  H  1.74541044  0.96783612 -0.00417140
  H  2.72846416 -0.50316989 -0.15205091
  H  1.81375022  0.07983088 -1.52866152
  H -0.30914288  1.80066170  0.62364978
  H -1.91472398  1.44225426  0.00177053
  H -0.53194875  1.45515407 -1.08958976
  H -2.53674027 -0.39145171  0.71533257
