24
opt_min/./Reactant_4349_0_opt.xyz
  C -1.88713900 -1.54221500  0.76300200
  N -1.91061120 -0.27846531  0.35793033
  C -3.21896136  0.22452431 -0.04204992
  C -0.84603562  0.54292434  0.33423494
  C -1.05178693  2.03162642  0.43455847
  C  0.50910404  0.05421684  0.24788383
  C  1.59270289  0.83712595  0.67853964
  C  2.89707605  0.41670452  0.51869634
  C  3.18353568 -0.78900858 -0.09828637
  C  2.13120909 -1.56275252 -0.56560161
  C  0.82724105 -1.15815166 -0.39017274
  H -1.00219107 -1.94465797  1.21064633
  H -2.72988874 -2.17617429  0.57751185
  H -3.81998627 -0.60849277 -0.40322364
  H -3.12299330  0.95568205 -0.84222270
  H -3.73920929  0.67435256  0.80560681
  H -0.59319362  2.41595347  1.34775429
  H -0.58966958  2.54931651 -0.40754554
  H -2.10022055  2.30636146  0.47698483
  H  1.41714208  1.78433053  1.16380212
  H  3.70333724  1.04040304  0.88028349
  H  4.20429108 -1.11886305 -0.21992747
  H  2.33139235 -2.49575633 -1.07456280
  H  0.03413811 -1.77276285 -0.79162204
