42
opt_min/./Reactant_2591_0_opt.xyz
  C  2.23045500  3.15023600 -1.21855900
  N  2.14339922  1.90460250 -0.50369820
  C  1.00790464  1.21206975 -0.38643084
  O -0.08018731  1.56016744 -0.87719778
  C  1.08888600 -0.06088011  0.32773715
  C  2.28111229 -0.56342912  0.93868496
  O  3.38245652 -0.00272080  0.86125674
  N  2.12859164 -1.68485642  1.71007230
  C  3.23911036 -2.30860528  2.38154569
  N -0.02071505 -0.84699453  0.01371684
  C  0.19774220 -2.13582975 -0.63604827
  C -1.18009689 -0.20371928 -0.09415971
  C -1.70460471  0.74953738  0.95178861
  O -2.84246221  1.16806483  0.88281010
  N -0.90204686  0.99592328  2.01070492
  C -1.28834003  1.95202135  3.02141733
  C -2.19876393 -0.63414855 -1.06609409
  C -1.94903691 -0.47603919 -2.42942430
  C -2.90694401 -0.82671455 -3.36089991
  C -4.12398253 -1.34379303 -2.94636836
  C -4.38004672 -1.49855695 -1.59496231
  C -3.42759759 -1.14333052 -0.65681709
  H  1.23295790  3.41601453 -1.56616674
  H  2.60627151  3.93732150 -0.56105054
  H  2.90052627  3.05682013 -2.07608588
  H  2.97135394  1.47492713 -0.08670159
  H  1.21518280 -2.08248069  1.84070949
  H  2.98254674 -2.52790165  3.41827892
  H  4.07393631 -1.60957254  2.34984792
  H  3.53792602 -3.23544626  1.88151978
  H -0.53622163 -2.29641765 -1.42308491
  H  1.20089924 -2.16598505 -1.05829285
  H  0.09949733 -2.94487077  0.09123004
  H  0.07798813  0.74480960  1.94521067
  H -2.36600357  1.88645341  3.16542418
  H -1.04339837  2.97346226  2.71701659
  H -0.77342744  1.71728195  3.95113856
  H -1.01235038 -0.04084312 -2.74406038
  H -2.70650300 -0.68833676 -4.41300878
  H -4.87320852 -1.61592447 -3.67507325
  H -5.32997360 -1.89281807 -1.26590516
  H -3.63572736 -1.26053946  0.39527912
