30
opt_min/./Reactant_2422_0_opt.xyz
  C -0.67032400  4.03871100  0.90311800
  N -0.09241288  2.74149640  0.64231333
  C -0.88636092  1.66192148  0.38910532
  O -2.09750968  1.78045726  0.31889954
  C -0.21693657  0.35796507  0.19248196
  N  1.09515417  0.25180290  0.23725350
  C  1.94031815 -0.75416330  0.00220971
  C  3.31712897 -0.40120945  0.12741096
  C  4.32516005 -1.48527182 -0.16273654
  O  3.63462368  0.75480007  0.42578382
  C -1.06555622 -0.81156022 -0.04198048
  C -2.10299605 -0.77009594 -0.97237191
  C -2.91355339 -1.87296627 -1.16321228
  C -2.70925594 -3.03179786 -0.43400623
  C -1.68450205 -3.08051909  0.49783971
  C -0.86927953 -1.98457185  0.69247739
  H -1.69517305  4.02164992  0.53746712
  H -0.10284947  4.80809418  0.38100284
  H -0.68129932  4.26072670  1.97308314
  H  0.89649891  2.66445499  0.80690337
  H  1.65839976  1.08435936  0.45776395
  H  1.59991525 -1.72675575 -0.29404685
  H  5.33202930 -1.11356791  0.00124415
  H  4.15635965 -2.34685268  0.47909030
  H  4.21773860 -1.80047353 -1.19722275
  H -2.26498637  0.12682881 -1.54642400
  H -3.71152033 -1.82787111 -1.88934668
  H -3.34549808 -3.89090495 -0.58399325
  H -1.52462247 -3.97609253  1.08002351
  H -0.09722994 -2.02098898  1.44710106
