26
opt_min/./Reactant_5108_0_opt.xyz
  C -4.24239988  0.65902434 -1.64299547
  C -3.12647725  0.08643790 -0.86332154
  O -1.86711865  0.50907532 -1.05960117
  C -3.09252317 -0.88190059  0.12165886
  N -1.79404279 -1.04637774  0.52195277
  C -1.11033330 -0.21046002 -0.19503310
  C  0.27588756 -0.01389325 -0.18397406
  C -0.04467028  2.76259302 -1.46281247
  C  1.03680189  3.16220646 -1.56071845
  C  1.57772952  0.27136546 -0.23284207
  C  2.27664125 -2.27129160  0.14604064
  C  1.44360275 -3.07779336  0.26574899
  C -4.22148323 -1.62838749  0.68426499
  C -3.84465527 -2.62072783  1.74528532
  O -5.35736001 -1.43037210  0.30955286
  H -3.86741268  1.39184648 -2.35279079
  H -4.76871487 -0.13513396 -2.17034235
  H -4.96130864  1.12644101 -0.97127004
  H -0.90778061  4.72558819 -2.29868685
  H -1.30757131  5.34350279 -2.56437431
  H  2.61630659  0.41796112 -0.26823386
  H  3.58220234 -4.20242833  0.57370395
  H  4.13777041 -4.74495557  0.67773943
  H -4.69516372 -3.24928596  1.99340781
  H -3.52116992 -2.07634523  2.63077874
  H -3.00374681 -3.22021492  1.40777725
