28
opt_min/./Reactant_4266_1_opt.xyz
  C  4.62484900  1.50543300 -0.33247000
  O  3.22759833  1.52141519 -0.58776987
  C  2.54746201  0.44353184 -0.17459465
  O  3.05495540 -0.50307007  0.38972001
  C  1.10654561  0.52340768 -0.44626567
  C  0.52011070  1.68520400 -1.16006249
  N  0.44702609 -0.54150529 -0.05919000
  C -0.82776547 -0.96939146 -0.07862842
  C -0.91270059 -2.41191521  0.18310464
  C -2.25714108 -3.06704855  0.19954945
  O  0.12434910 -3.02650451  0.39204933
  C -2.00345277 -0.11673719 -0.13791441
  O -3.10955610 -0.46256926 -0.48673995
  O -1.75774588  1.13250044  0.33208889
  C -2.87873514  1.99993141  0.36879399
  H  5.04742156  2.32996842 -0.90056683
  H  4.81453476  1.64003418  0.73445307
  H  5.05706576  0.55369253 -0.64733826
  H  0.14144156  2.43036703 -0.46109332
  H  1.28938333  2.15235090 -1.77001528
  H -0.30506222  1.36063129 -1.78970397
  H  1.06878946 -1.31869640  0.27320343
  H -2.13873451 -4.12719598  0.40675521
  H -2.75238286 -2.92337823 -0.75744938
  H -2.88932741 -2.60730018  0.95590082
  H -3.39755636  1.99289005 -0.59195690
  H -2.49304381  2.99198985  0.59037192
  H -3.57721807  1.68328196  1.14618863
