39
opt_min/./Reactant_2880_0_opt.xyz
  C  4.12370617  0.67310843  3.48480412
  N  3.52599391  0.92247378  2.19563373
  C  2.23751516  0.60649155  1.91974592
  O  1.49283843  0.11765065  2.73881718
  C  1.84344031  0.87959629  0.46549404
  C  0.42510688  1.02166438  0.27879263
  C -0.65319024  0.77559019 -0.18272242
  C -1.64854528  0.25770244 -1.07964918
  C -2.80165120  1.24181029 -1.31295438
  O -3.28858906  1.48148604 -2.38439777
  O -3.19886644  1.78005488 -0.16370932
  C -4.28239313  2.69673815 -0.21078967
  C -2.31409979 -0.97659825 -0.46121153
  O -2.74195778 -1.89983408 -1.10301159
  O -2.38066549 -0.86908489  0.85787151
  C -2.97703143 -1.93599881  1.58210368
  C -0.90795393 -0.05253563 -2.38550599
  C  0.35847122 -0.92592186 -2.32166578
  C  1.74935280 -0.43156536 -1.84879630
  C  2.20030967 -0.36740573 -0.37412218
  H  4.46684879  1.60362833  3.94231024
  H  4.96624995 -0.01560185  3.39342448
  H  3.35664208  0.22613282  4.11565474
  H  4.10678513  1.34538319  1.48863649
  H  2.35549493  1.77719880  0.09796908
  H -4.96355779  2.43245694 -1.02218497
  H -3.90139430  3.70735428 -0.37536525
  H -4.78353420  2.63706810  0.75342808
  H -2.18713919 -2.55976196  2.00421881
  H -3.61012920 -2.53337853  0.92202295
  H -3.56280607 -1.49162251  2.38560582
  H -0.66887544  0.88961945 -2.88405896
  H -1.61348471 -0.58736002 -3.02906740
  H  0.54204709 -1.14699171 -3.38076224
  H  0.12397108 -1.87287974 -1.82824051
  H  2.41072025 -1.20550907 -2.26084858
  H  1.99453330  0.50652897 -2.35558334
  H  1.83009666 -1.25826486  0.13835451
  H  3.29401697 -0.44217487 -0.39510102
