28
opt_min/./Reactant_2871_0_opt.xyz
  C -1.03875600  4.50140000  0.81681000
  O -0.84134732  3.17009487  0.36919982
  C -1.84364012  2.30671835  0.60330080
  O -2.88585603  2.60547948  1.12841375
  C -1.50264150  0.95351454  0.12638230
  O -0.23702754  0.78505585 -0.17164383
  C  0.46678159 -0.11430835 -0.76128103
  C  0.01423178 -1.42123248 -1.30718059
  C  1.88720464  0.24341963 -0.95471866
  O  2.67052254 -0.47316650 -1.53392263
  O  2.18964199  1.43132601 -0.42405526
  C  3.52578626  1.88992553 -0.56756104
  C -2.61689821 -0.01850741  0.09580893
  O -3.73771536  0.24839607 -0.24910045
  O -2.25648890 -1.23337803  0.57239934
  C -3.29330075 -2.19778491  0.71085085
  H -0.63322820  4.61562954  1.82430594
  H -2.10399863  4.74070160  0.82807478
  H -0.50618778  5.15065987  0.12473010
  H -0.74279873 -1.87088859 -0.67440115
  H -0.39829476 -1.29690935 -2.31107916
  H  0.88073183 -2.07471952 -1.38753350
  H  3.48265018  2.92451694 -0.90815695
  H  4.02347097  1.83872721  0.40192215
  H  4.05923704  1.26933356 -1.29072629
  H -4.11973312 -1.95254218  0.04026926
  H -3.65050763 -2.19561790  1.74169383
  H -2.87269997 -3.17163485  0.46267425
