33
opt_min/./Reactant_3192_1_opt.xyz
  C -1.08939182  3.85177407 -0.75364090
  O -0.31721111  2.72950686 -0.35443966
  C -1.00845788  1.59595373 -0.16711437
  O -2.19945892  1.49846276 -0.36076639
  C -0.12725226  0.48038066  0.20228767
  C  1.29942342  0.57746586 -0.13075454
  C  1.70851729  0.91248626 -1.41881492
  C  3.05346657  1.03635142 -1.71171444
  C  4.00351544  0.83468259 -0.72306633
  C  3.60458477  0.51736351  0.56436227
  C  2.26120553  0.38936869  0.86306461
  N -0.65226127 -0.62314235  0.74464986
  C  0.04718584 -1.88817099  0.58435233
  C -1.77240962 -0.59804127  1.49919970
  C -2.10268041  0.58127028  2.17908715
  N -2.32406975  1.52313843  2.79928298
  C -2.72267480 -1.71481150  1.62821992
  C -2.92928778 -2.56516547  0.38569452
  O -3.36701761 -1.90172482  2.63858413
  H -0.38836862  4.67577289 -0.85782477
  H -1.59463563  3.65372134 -1.70088406
  H -1.84137898  4.07788175  0.00456711
  H  0.96596364  1.06320213 -2.18747652
  H  3.36305166  1.29140393 -2.71347041
  H  5.05267256  0.93546009 -0.95486220
  H  4.33971740  0.37867194  1.34325398
  H  1.95102146  0.17602649  1.87771381
  H -0.42186314 -2.65167926  1.20024322
  H  1.08518625 -1.78234075  0.89361063
  H  0.03481721 -2.19337875 -0.46276021
  H -2.50224855 -3.55812044  0.52113908
  H -4.00176655 -2.69656009  0.25704090
  H -2.51738839 -2.10196033 -0.50579253
