26
opt_min/./Reactant_5971_0_opt.xyz
  C  0.71601900  1.41228200  0.33446500
  O  1.02052065  2.54485557  0.65430509
  C -0.56689779  1.13148725 -0.35591293
  O -1.23225655  2.28027052 -0.59905462
  C -2.61646207  2.29154049 -0.87806556
  C -0.94146117 -0.14047578 -0.69271507
  O -2.09982347 -0.30674581 -1.40030594
  C -2.70964065 -1.57459163 -1.54527674
  C -0.06130132 -1.28096871 -0.37987318
  O -0.34796984 -2.43040551 -0.68135683
  C  1.21615850 -0.99423178  0.31557951
  C  2.06957891 -2.17907126  0.62631707
  C  1.59750133  0.26016302  0.62066685
  C  2.90072877  0.57007400  1.27865564
  H -2.90236448  3.34174568 -0.84703226
  H -2.83276649  1.87975507 -1.86488009
  H -3.18085411  1.73885369 -0.12390325
  H -3.67989735 -1.36172751 -1.99286445
  H -2.13431774 -2.22469856 -2.20697995
  H -2.85007700 -2.07672685 -0.58659532
  H  2.35947380 -2.18085256  1.67408742
  H  1.52777598 -3.09153269  0.39506244
  H  2.97983558 -2.15317522  0.02939385
  H  2.96061218  0.09160104  2.25504150
  H  2.99617005  1.64413094  1.40461571
  H  3.72890429  0.20016147  0.67830323
