26
opt_min/./Reactant_4891_0_opt.xyz
  C  3.55450200 -0.40363500  0.32004200
  C  2.39066631 -0.12617073 -0.60696987
  O  2.53712620 -0.14306218 -1.82173038
  C  1.15903184  0.15480999  0.07951556
  N -0.02277201  0.40625921 -0.48455908
  C -0.08044345  0.60247302 -1.91882641
  C -1.16203329  0.41162764  0.21720746
  C -1.32712790 -0.33829498  1.48017434
  C -0.61335144 -1.67419231  1.57873153
  O -2.07717522  0.02545455  2.35565978
  C -2.34803515  1.19625322 -0.18788451
  C -2.07288908  2.59673392 -0.70924309
  O -3.47748200  0.80498998 -0.02111599
  H  4.37529268 -0.84096470 -0.24303238
  H  3.89167246  0.54249214  0.74742089
  H  3.26587849 -1.06682203  1.13197488
  H  1.17234468  0.14646019  1.15663394
  H  0.46810885  1.49991474 -2.20837199
  H  0.42187811 -0.24060737 -2.40312972
  H -1.11021288  0.64240959 -2.26067768
  H -0.32569182 -2.05821564  0.60277621
  H  0.26434041 -1.60657327  2.21887361
  H -1.30772449 -2.36134105  2.06182875
  H -2.87395983  3.23662442 -0.33851401
  H -1.11420909  2.97385885 -0.36146439
  H -2.10653998  2.62947311 -1.79629833
