24
opt_min/./Reactant_2418_1_opt.xyz
  C  3.60610100  0.71727300 -0.84855800
  N  2.36982328  0.08564011 -0.46243693
  C  1.21291722  0.78717701 -0.33139470
  O  1.17750070  1.98707549 -0.56165544
  C  0.05848374 -0.01530361  0.07501712
  C -1.27782240  0.19896850  0.07707235
  O -2.14135835  1.15937516 -0.19541368
  C -1.70326245  2.49025645 -0.44119747
  C -1.89973875 -1.14922468  0.51190190
  C -1.65720833 -2.09185962 -0.66442179
  C -0.35351498 -2.31892160 -0.64453356
  C  0.16184561 -1.49444688  0.53515740
  O -0.92825029 -1.58772567  1.43652616
  H  4.35436144  0.62409313 -0.05822420
  H  3.39202429  1.77080728 -1.01867993
  H  3.99694901  0.27161217 -1.76524332
  H  2.38372684 -0.90725146 -0.30891900
  H -2.52741542  2.98058414 -0.95535937
  H -0.79631171  2.51749384 -1.03991850
  H -1.50794197  2.99433011  0.50838426
  H -2.89842592 -1.09502620  0.93230004
  H -2.42087743 -2.42913425 -1.33394949
  H  0.26878654 -2.90162369 -1.29243197
  H  1.08176015 -1.80828347  1.01944093
