18
opt_min/./Reactant_2964_1_opt.xyz
  C -2.31950399  0.40479607  1.08909900
  C -1.50992813  0.16870078 -0.16537532
  N -2.14668463  0.18719024 -1.26041785
  N -2.72737390  0.21234360 -2.23477063
  C -0.06757110 -0.02939083 -0.17202568
  C  0.70076412  0.27003671  0.95505426
  C  2.06785985  0.07124587  0.94449387
  C  2.69601096 -0.42067751 -0.18711881
  C  1.94393249 -0.71003179 -1.31507134
  C  0.57760934 -0.52003773 -1.31338216
  H -2.45843425  1.47022264  1.27385874
  H -1.81671689 -0.04223373  1.93818396
  H -3.30212116 -0.04898468  0.98465032
  H  0.23480324  0.67594443  1.83958720
  H  2.64598219  0.30741885  1.82619536
  H  3.76355411 -0.57424812 -0.19090397
  H  2.42560104 -1.09048309 -2.20349623
  H  0.00268224 -0.75708300 -2.19585599
