37
opt_min/./Reactant_2452_0_opt.xyz
  C  2.92852700  3.17030000 -0.08953700
  O  2.45267397  1.83527492 -0.01331176
  C  1.19558724  1.69882090  0.40279436
  O  0.51572760  2.60062217  0.82587873
  C  0.76265664  0.26815857  0.39190830
  C  1.80159280 -0.76025981  0.43214128
  C  1.79680088 -1.79231330 -0.50835458
  C  2.80407408 -2.73744730 -0.51245611
  C  3.82374759 -2.67459880  0.42389523
  C  3.83684188 -1.65247994  1.35884434
  C  2.83893435 -0.69636088  1.36123394
  N -0.52840917  0.00631601  0.49479688
  C -1.00170160 -1.27918583  0.97470963
  C -1.42770545  0.83781156 -0.16425041
  C -2.73707403  1.16119460  0.33130874
  C -2.92140025  1.05326043  1.83713255
  O -3.64516255  1.57741592 -0.37110948
  C -0.91624844  1.26736227 -1.43084238
  C -1.87986851  1.74964821 -2.47113298
  O  0.29462177  1.17590692 -1.67398667
  H  2.31063545  3.75022995 -0.77731316
  H  3.95005045  3.10532569 -0.45477108
  H  2.89885023  3.64328248  0.89488667
  H  1.01862757 -1.82419588 -1.25670654
  H  2.79750831 -3.52334935 -1.25284114
  H  4.60904686 -3.41515806  0.42057842
  H  4.63107601 -1.59676954  2.08819441
  H  2.84992613  0.09650534  2.09377604
  H -0.18477988 -1.99621439  1.00125921
  H -1.39426179 -1.16641607  1.98546914
  H -1.79683097 -1.64811265  0.32861396
  H -3.30889458  0.07292847  2.10708675
  H -1.98591216  1.24018578  2.35723061
  H -3.65973955  1.79218267  2.13769306
  H -1.33747390  1.96026600 -3.38921990
  H -2.36971024  2.64940720 -2.10483656
  H -2.65988814  1.01357458 -2.64726615
