24
opt_min/./Reactant_2491_1_opt.xyz
  C  2.84031000 -0.78218000  0.39918700
  O  1.86060924 -0.26505499 -0.50541801
  C  0.74680845  0.27697615  0.05087846
  O  0.80307683  1.59294421  0.33194527
  C  1.93940621  2.32480030 -0.10152593
  C -0.39059128 -0.44750129  0.19551602
  C -0.30980542 -1.91407534 -0.13291095
  C -1.31279154 -2.38574487 -1.14066505
  O  0.49999222 -2.64298912  0.38742008
  C -1.68912768  0.05244594  0.69012520
  C -1.77897660  1.49541410  1.10687727
  O -2.65628474 -0.67652275  0.78027082
  H  3.74707076 -0.90615722 -0.18927876
  H  2.50447604 -1.74429018  0.79169408
  H  3.02438624 -0.09444326  1.22860049
  H  1.65578463  3.37247560 -0.02099471
  H  2.80504321  2.13027139  0.53648642
  H  2.19351710  2.08094043 -1.13489523
  H -1.10976592 -3.41685065 -1.41663032
  H -1.29626007 -1.74457515 -2.01913039
  H -2.30123976 -2.31077904 -0.68826357
  H -1.08575433  1.69373387  1.92112025
  H -2.79606877  1.69884593  1.43612727
  H -1.51934056  2.14801235  0.27795996
