27
opt_min/./Reactant_1931_1_opt.xyz
  C  4.06236600  0.25744600  0.10748800
  N  2.67618192  0.13990457 -0.28305437
  C  1.74937211 -0.36935123  0.55947712
  O  2.00786940 -0.74965218  1.68561740
  C  0.36697252 -0.44101496  0.01722243
  C -0.33034893  0.37761054 -0.77954076
  C  0.08608485  1.65503083 -1.41674418
  F  0.87457098  1.44849407 -2.50495846
  F -0.95125016  2.38485529 -1.84641879
  F  0.80468439  2.45310965 -0.60385954
  C -1.75952134 -0.11696564 -0.81718407
  C -2.32436194  0.22272528  0.58489154
  C -1.52559428 -0.70674467  1.51094939
  C -0.60699410 -1.47593729  0.52914134
  C -1.53119756 -1.62401149 -0.68060384
  H  4.51628433  1.10196113 -0.40628222
  H  4.10142713  0.41304386  1.18491501
  H  4.61692025 -0.65425725 -0.13369981
  H  2.44144050  0.37733551 -1.23218486
  H -2.36395272  0.24176643 -1.64350387
  H -2.19266075  1.27772423  0.82572830
  H -3.39212323  0.00455801  0.61520299
  H -2.17719640 -1.41261875  2.02388183
  H -0.93677842 -0.17420909  2.25485678
  H -0.14614986 -2.35918082  0.95628105
  H -1.03663399 -2.06162546 -1.54783875
  H -2.44359912 -2.17610697 -0.46627630
