28
opt_min/./Reactant_1264_1_opt.xyz
  C  3.77579600  0.76807300 -0.20819000
  O  2.38747366  0.68928818  0.09510984
  C  1.88161404 -0.53762357  0.23239693
  O  2.53438070 -1.54720330  0.18236925
  C  0.41076200 -0.47490948  0.47260958
  C -0.22647409 -1.46818554  1.40645836
  C  0.08435563 -2.89636826  1.09751809
  O -0.93232700 -1.09747832  2.30966942
  C -0.34017880  0.46037774 -0.12379324
  C  0.18243802  1.50245722 -1.07766210
  C  0.14168162  2.88403252 -0.50797097
  O  0.54661887  1.21337164 -2.18736485
  C -1.82553177  0.52491784  0.08930943
  O -2.40857523  1.52863334  0.40499389
  O -2.38655553 -0.65142187 -0.15461395
  C -3.79440077 -0.76275819  0.03677413
  H  3.98144393  1.81418437 -0.41682901
  H  4.36733335  0.42136426  0.64172598
  H  4.00546376  0.14990283 -1.07771707
  H -0.41933060 -3.55152111  1.80314501
  H -0.23981607 -3.11780325  0.08213783
  H  1.16106348 -3.05164032  1.13374570
  H  0.77007438  2.92451111  0.37896224
  H  0.48206128  3.60666595 -1.24476501
  H -0.88011854  3.10592627 -0.19988121
  H -4.14194999  0.02173823  0.71048118
  H -4.29636922 -0.67359218 -0.92736575
  H -3.97581659 -1.74544723  0.46732887
