37
opt_min/./Reactant_2775_0_opt.xyz
  C -0.02704358  2.74346972  3.06677037
  N  0.03711665  1.64839611  2.12682931
  C -0.70399277  1.63477592  1.00373709
  O -1.46307286  2.52660601  0.70121137
  C -0.47294252  0.39325962  0.10855981
  C -1.78538350 -0.04493728 -0.51451883
  C -2.27283043 -1.32518360 -0.28712743
  C -3.46790719 -1.73406209 -0.85180996
  C -4.19309677 -0.86409500 -1.64787945
  C -3.71358089  0.41458135 -1.87406443
  C -2.51523851  0.82311957 -1.31631308
  C  0.21250132 -0.67141735  0.79954990
  C  1.06260889 -1.46401301  1.11126217
  C  2.41004116 -1.94430734  1.16003742
 Cl  2.55206599 -3.66594634  0.68615549
 Cl  3.08646530 -1.77457169  2.82182452
  C  3.19725361 -1.04955564  0.18215050
  C  2.90705762  0.45001524  0.38702445
  C  1.97890653  1.18942150 -0.60431295
  C  0.56086732  0.73430050 -1.00867795
  H -1.01112022  3.20550703  2.99450555
  H  0.72686241  3.50003722  2.83521008
  H  0.13335676  2.37411180  4.07695247
  H  0.59292684  0.84146998  2.36217518
  H -1.71350857 -2.00668963  0.33832552
  H -3.83267288 -2.73345856 -0.66672178
  H -5.12718523 -1.18100301 -2.08770028
  H -4.27566215  1.10071293 -2.49036644
  H -2.16192654  1.82647725 -1.48976568
  H  2.94638976 -1.35787050 -0.83378585
  H  4.26033331 -1.24390168  0.34266745
  H  3.86116490  0.97668710  0.29807551
  H  2.57109639  0.60300707  1.41178926
  H  1.89762148  2.20680288 -0.21278759
  H  2.52718317  1.26087550 -1.54723546
  H  0.14737912  1.55288808 -1.59944996
  H  0.62844008 -0.14375670 -1.65516784
