44
opt_min/./Reactant_3080_0_opt.xyz
  C  3.78720220  1.54738768  2.21813263
  O  3.77503065  1.34508743  0.81756138
  C  3.05780586  0.23655628  0.40778599
  F  3.63816373 -0.90934167  0.96270418
  C  1.63226759  0.24874215  0.71771264
  C  0.45603984  0.19296058  0.48152343
  C -0.74293220 -0.09521012 -0.28589254
  C -1.55028049 -1.25313773  0.27297240
  C -2.76253566 -1.57460145 -0.32756239
  C -3.52053371 -2.63052344  0.14232954
  C -3.07697124 -3.37875426  1.21991190
  C -1.87428528 -3.06096617  1.82449725
  C -1.11432456 -2.00345867  1.35412824
  C -1.63499683  1.13078352 -0.31242925
  C -2.09268304  1.72037042 -1.48081500
  C -2.92737041  2.82589327 -1.42648638
  C -3.31394651  3.35202307 -0.20836212
  C -2.86296717  2.76615342  0.96336750
  C -2.03241475  1.66397194  0.90992588
  C -0.12001881 -0.49135307 -1.65999881
  C  1.03047365 -1.51213955 -1.51885912
  C  2.46887385 -1.04529502 -1.82474931
  C  3.12909490  0.16286664 -1.12820345
  H  2.76511842  1.64325425  2.60318495
  H  4.33333696  2.47417352  2.37986545
  H  4.29135507  0.72295426  2.73134289
  H -3.11886017 -0.98682695 -1.16156008
  H -4.46096971 -2.86856909 -0.33333156
  H -3.66892997 -4.20428174  1.58750920
  H -1.52230331 -3.63789244  2.66795435
  H -0.17622547 -1.75871200  1.83338927
  H -1.81233666  1.32468423 -2.44444927
  H -3.27640902  3.27488949 -2.34579476
  H -3.96498499  4.21324840 -0.17002370
  H -3.16062500  3.16861862  1.92088207
  H -1.68111611  1.20639020  1.82419098
  H  0.24148564  0.40315524 -2.16637054
  H -0.90356549 -0.93104683 -2.27819020
  H  0.99583412 -1.96906291 -0.53135135
  H  0.84718020 -2.32368927 -2.23023838
  H  3.10039901 -1.91440877 -1.61947477
  H  2.53388190 -0.82864191 -2.89426503
  H  2.69781607  1.09831335 -1.48968019
  H  4.18380475  0.14551246 -1.41489863
