28
opt_min/./Reactant_2306_0_opt.xyz
  C -4.26757201  1.71250391 -0.94756305
  N -3.01918946  1.01106501 -1.12548873
  C -2.08582104  0.99558968 -0.14230385
  O -2.28454289  1.53294038  0.93632195
  C -0.81927467  0.32737714 -0.52119820
  C -0.69716378 -0.02843797 -1.86295601
  N -0.69787141 -0.39274694 -2.95807275
  N  0.18161415  0.07380273  0.36346607
  C -0.18865303 -0.15213325  1.74743036
  C  1.46140094 -0.01318731 -0.00033282
  C  1.90793607  0.49489971 -1.33023413
  C  2.46904931 -0.57331266  0.89556244
  O  2.27693226 -1.06358318  1.98996751
  O  3.69966933 -0.53066775  0.33642870
  C  4.77504002 -1.06834607  1.08852978
  H -4.96728224  1.40453857 -1.71894122
  H -4.11762389  2.79462395 -1.00038114
  H -4.67480178  1.47746407  0.03701290
  H -2.81904728  0.59102494 -2.01811404
  H -1.24048219  0.06793697  1.89353087
  H  0.40311785  0.48520923  2.40324281
  H  0.02148068 -1.18789421  2.01530338
  H  1.30288826  1.35555876 -1.62010661
  H  2.95255975  0.78670778 -1.27479048
  H  1.81435820 -0.25172239 -2.12098519
  H  5.38054226 -0.24891864  1.47958194
  H  4.39030071 -1.66961113  1.91468326
  H  5.36866673 -1.68327581  0.41355420
