28
opt_min/./Reactant_3899_1_opt.xyz
  C -1.26313200 -3.21734100 -1.70027200
  N -1.09191745 -1.99726600 -0.94995155
  C  0.01555683 -1.19777836 -1.12727488
  O  0.85782484 -1.46569399 -1.97676591
  C  0.04442307 -0.01410454 -0.28769037
  N  1.20065693  0.60182701  0.10636563
  C  2.44449451  0.24089049  0.21667772
  C  3.42593343  1.24283169  0.72885424
  C  2.91464681 -1.13260183 -0.08950087
  C -1.07954889  0.85914814  0.00126959
  O -0.88893101  1.90169322  0.64380084
  N -2.30594447  0.53857339 -0.48905587
  C -3.43879342  1.41388811 -0.32587315
  H -2.28443620 -3.29181343 -2.07940676
  H -0.56474932 -3.18202331 -2.53568026
  H -1.04344732 -4.10039673 -1.09348111
  H -1.61551733 -1.90552652 -0.09431923
  H  0.91276538  1.52273811  0.48900031
  H  4.28502444  1.30188448  0.06137911
  H  2.97676008  2.22974773  0.81307359
  H  3.79437661  0.94481953  1.71192393
  H  2.34491653 -1.85848853  0.49382295
  H  3.97191501 -1.23722016  0.13478049
  H  2.73277026 -1.37882719 -1.13976383
  H -2.37431315 -0.20027053 -1.17000409
  H -4.28267047  0.87319940  0.10952480
  H -3.74852118  1.84614299 -1.28093172
  H -3.13585606  2.21441463  0.34806847
