28
opt_min/./Reactant_2324_1_opt.xyz
  C -1.51735516  2.17017070 -1.26977888
  O -1.88135802  0.82323321 -1.07115727
  C -0.85087639 -0.12213295 -0.96350761
  O -0.90636416 -1.01719097 -2.04856229
  C -2.08800776 -1.78520711 -2.15141951
  C  0.51111391  0.39643992 -0.89321952
  C  1.61255184  0.50692076 -0.41830467
  C  2.59704114  0.41043430  0.61269340
 Cl  2.90888813  2.00566135  1.37005314
 Br  4.33939717 -0.27018771 -0.12797142
  C  2.09046757 -0.60898172  1.63762311
  C  0.78572944 -0.26536379  2.38044537
  C -0.50392621  0.05575931  1.60315535
  C -0.89111101 -0.86535672  0.41917706
  H -0.68258856  2.26063573 -1.97116271
  H -2.39662963  2.66031922 -1.68645081
  H -1.24796876  2.65528919 -0.32520803
  H -2.05903632 -2.22986874 -3.14458431
  H -2.11658847 -2.58048032 -1.40018238
  H -2.97408059 -1.15371706 -2.05577712
  H  1.98797942 -1.56326320  1.11480625
  H  2.86628401 -0.73868674  2.39770627
  H  0.98281428  0.59754213  3.02065323
  H  0.58907544 -1.11278848  3.04135534
  H -1.34477541 -0.02462417  2.29364194
  H -0.45161228  1.08381044  1.25168347
  H -0.20377536 -1.70506477  0.32161348
  H -1.90435113 -1.23963929  0.56726163
