36
opt_min/./Reactant_2635_1_opt.xyz
  F  1.28135400  2.23474800  0.18566300
  C  0.90817816  0.94350887 -0.04723760
  C -0.39846466  0.63427354 -0.03205136
  C -0.85450021 -0.76850205 -0.10424082
  C -0.36282572 -1.72534730  0.77898567
  C -0.82448902 -3.02756146  0.72075118
  C -1.77853005 -3.38655100 -0.21698837
  C -2.27713005 -2.43783857 -1.09203028
  C -1.82425864 -1.13230450 -1.03349632
  C -1.46311231  1.63896908  0.10855596
  C -1.40475868  2.86867614 -0.54592530
  C -2.42843287  3.78510571 -0.40619877
  C -3.52458617  3.49535673  0.38900206
  C -3.59460100  2.27480417  1.04175122
  C -2.57717656  1.35226822  0.90001104
  C  2.04769981  0.05649250 -0.25942110
  C  3.23383208  0.29384729  0.43557996
  C  4.32927193 -0.52957037  0.25485615
  C  4.25988834 -1.59432929 -0.62536243
  C  3.09345969 -1.82118077 -1.33820731
  C  1.99382385 -1.00178997 -1.16483435
  H  0.37667990 -1.43705622  1.51176896
  H -0.44185835 -3.76438181  1.41209500
  H -2.13730453 -4.40488301 -0.26360570
  H -3.02415002 -2.71412909 -1.82077536
  H -2.21466921 -0.39022534 -1.71494611
  H -0.56186847  3.09859087 -1.18003673
  H -2.37165426  4.73307888 -0.92301692
  H -4.32170419  4.21353083  0.49996731
  H -4.44832770  2.04239833  1.66377185
  H -2.63346611  0.40377071  1.41533559
  H  3.28938789  1.12359102  1.12348711
  H  5.23979425 -0.33929889  0.80251210
  H  5.11602508 -2.24108474 -0.76278596
  H  3.03988980 -2.63925234 -2.04145786
  H  1.09903017 -1.16967770 -1.74190941
