25
opt_min/./Reactant_3606_1_opt.xyz
  C  3.81350091  2.21530913 -0.28068232
  N  3.07628290  1.01651276 -0.59510409
  C  1.76681968  0.88402058 -0.26886019
  O  1.16505318  1.74500982  0.35161520
  C  1.16256461 -0.38570304 -0.74194357
  C  1.98631838 -1.24484771 -1.46862733
  N  2.72220715 -1.94689614 -2.01427593
  N -0.12516039 -0.73150508 -0.51676570
  C -0.62918046 -1.91117665 -1.19881424
  C -0.94050604 -0.06684454  0.27924992
  C -2.34988922 -0.36206272  0.45127290
  O -3.00543252 -1.22875293 -0.09047247
  O -2.87761986  0.50743087  1.33805417
  C -4.26194351  0.36055705  1.60367083
  H  3.34000538  2.68771203  0.57996949
  H  4.84560664  1.96297647 -0.04523462
  H  3.79679021  2.92062174 -1.11717453
  H  3.53767769  0.29504189 -1.12648651
  H -1.45417671 -1.62921757 -1.85390626
  H  0.16119474 -2.37915122 -1.78103335
  H -1.02535444 -2.62087691 -0.47361428
  H -0.56261075  0.79668047  0.80191932
  H -4.47433735  0.99060264  2.46353249
  H -4.85026118  0.68237392  0.74113003
  H -4.50006576 -0.68390579  1.82011704
