29
opt_min/./Reactant_2839_1_opt.xyz
  C -2.63454154  0.49939221 -0.16379435
  C -1.50196460  0.01448448  0.75079968
  C -1.97265897 -0.19811330  2.19268521
  C -0.36414309  0.89074921  0.67058890
  C  0.73682430  1.25649005  0.36798529
  C  2.02303075  1.35050362 -0.25615290
  F  2.30283724  2.63636284 -0.71013800
  C  3.15002907  1.00811698  0.73738063
  F  2.93569848  1.51034779  1.95904073
  F  4.33739300  1.46661840  0.32464937
  F  3.28913717 -0.32043300  0.89153037
  C  1.97819228  0.40742593 -1.47318075
  C  1.33957853 -0.99250311 -1.36860150
  C -0.15936160 -1.32017131 -1.14270472
  C -0.87633239 -1.30831266  0.22343676
  H -3.37659173  1.05646793  0.40363330
  H -3.13001683 -0.34694803 -0.63640158
  H -2.24866114  1.15279097 -0.94342160
  H -1.12333936 -0.20916663  2.87323848
  H -2.64566065  0.59945265  2.50072379
  H -2.50262041 -1.14576604  2.27988452
  H  1.46463965  0.97208585 -2.25625177
  H  3.01136472  0.25037273 -1.79789202
  H  1.51409307 -1.38299412 -2.37906735
  H  1.93266581 -1.61415715 -0.69159464
  H -0.76302796 -0.79844204 -1.88963658
  H -0.18512709 -2.38474829 -1.41082308
  H -0.18990160 -1.69413059  0.98019669
  H -1.70187238 -2.02267323  0.13672148
