37
opt_min/./Reactant_4673_1_opt.xyz
  C -3.25307300  3.39174300 -1.76384600
  O -2.61359647  2.26333158 -1.20202511
  C -1.25327106  2.34676745 -1.07715632
  O -0.64031375  3.33892495 -1.44322827
  C -0.73618895  1.13964176 -0.51310865
  C -1.71913254  0.08440515 -0.16091044
  C -2.53242242  0.22195755  0.95886014
  C -3.46461126 -0.75078023  1.27116421
  C -3.59311627 -1.87274290  0.47012157
  C -2.78719874 -2.01754967 -0.64674009
  C -1.85537788 -1.04557974 -0.96149855
  N  0.57915229  0.90072487 -0.30015036
  C  1.53655676  1.92717762 -0.66473184
  C  0.99779033 -0.20160306  0.30553512
  C  2.34094457 -0.69701982  0.42297451
  C  2.65333218 -1.48664684  1.54138050
  C  3.91322540 -2.02129282  1.70713567
  C  4.89646754 -1.80174041  0.75443140
  C  4.59428481 -1.06284662 -0.37802250
  C  3.33706098 -0.51866972 -0.54934494
  H -4.19520932  3.03970317 -2.17813364
  H -2.62770599  3.83432911 -2.54240527
  H -3.44025098  4.14301703 -0.99161053
  H -2.43327183  1.09971295  1.58102757
  H -4.09338459 -0.63401925  2.14198214
  H -4.32203362 -2.63181119  0.71358395
  H -2.88800486 -2.88891204 -1.27721849
  H -1.22891683 -1.15614165 -1.83501153
  H  1.16181814  2.89770321 -0.34320665
  H  1.65451832  1.97683636 -1.74733983
  H  2.49184684  1.72725326 -0.18739061
  H  0.22658222 -0.80894093  0.75805518
  H  1.88928110 -1.66175462  2.28496852
  H  4.13198706 -2.61492365  2.58278244
  H  5.88422243 -2.21738530  0.88501668
  H  5.34513358 -0.91504725 -1.14083523
  H  3.11101811  0.00329714 -1.46615660
