21
opt_min/./Reactant_1662_0_opt.xyz
  C  3.18927418  0.72719187 -1.11698759
  N  2.02125457  0.22565597 -0.43820626
  C  0.84990140  0.88329365 -0.46067269
  O  0.72192475  1.99408959 -0.96691592
  C -0.29046580  0.18340673  0.19130703
  N -1.46844188  0.82852582  0.31628020
  C -1.82452294  2.05408930 -0.00815910
  C -3.11200502  2.50014544  0.26827543
  N -4.17909981  2.86748614  0.49840420
  C -0.23369071 -1.19005023  0.64265053
  C -1.50457797 -1.81000620  1.20340920
  O  0.78246228 -1.87562016  0.58826373
  H  3.46478744  0.07498781 -1.94811915
  H  4.02659378  0.78761605 -0.42020063
  H  2.96177292  1.72142223 -1.49903250
  H  2.02587085 -0.73347098 -0.10191340
  H -2.20411453  0.27125486  0.75249767
  H -1.11523637  2.70282014 -0.50269199
  H -1.85964025 -1.28428311  2.08884581
  H -1.26932396 -2.83222619  1.48960961
  H -2.29063849 -1.84079621  0.44943930
