23
opt_min/./Reactant_1407_0_opt.xyz
  C -5.08316338 -0.43344267  0.76784579
  N -4.03765043  0.49827161  0.43993148
  C -2.72713612  0.11625003  0.37236482
  O -2.36501924 -1.01693915  0.65783802
  C -1.82436327  1.17169071 -0.03795805
  N -0.56442699  0.92851460 -0.13116474
  C  0.55792148  0.58520573 -0.17767567
  C  1.87862616  0.18909470 -0.20842921
  C  2.89616930  1.07258835 -0.60378246
  C  4.20642957  0.64520216 -0.62037999
  C  4.53048975 -0.65237931 -0.24996771
  C  3.52740718 -1.52910868  0.13983891
  C  2.21070610 -1.12480921  0.16367669
  H -5.68362450 -0.69137790 -0.10986721
  H -5.73591611 -0.01561077  1.53562384
  H -4.60525472 -1.33515799  1.14518284
  H -4.30614255  1.41603945  0.13026241
  H -2.16365170  2.16584759 -0.27379392
  H  2.64064875  2.08189342 -0.89203909
  H  4.98465844  1.32945886 -0.92486539
  H  5.55903700 -0.97798778 -0.26540833
  H  3.77619582 -2.53959840  0.42758343
  H  1.42417075 -1.79968957  0.46520919
