26
opt_min/./Reactant_1763_1_opt.xyz
  C  3.95115666  0.11935759  1.39298947
  O  2.78037008 -0.48566885  0.85821068
  C  2.16238501  0.13742459 -0.14166326
  O  2.49758492  1.18661611 -0.61914286
  C  0.97427832 -0.67292373 -0.62491150
 Cl  1.58059727 -1.58804102 -2.03584207
  C  0.29916565 -1.52539698  0.38707123
  C -0.83341476 -1.60025923  0.83475678
  C -2.22756683 -1.17281221  0.99673528
  C -2.88394991 -0.44351275 -0.25691165
  C -2.48294469  0.97074376 -0.81436470
  C -1.17192896  1.13892278 -1.66636129
  C -0.35597910  0.10867597 -0.90977236
  H  4.72113403 -0.64847311  1.45282974
  H  4.27516308  0.93872049  0.74873444
  H  3.72529846  0.49824811  2.39065147
  H -2.87856367 -2.02401105  1.20705569
  H -2.27137842 -0.49594976  1.85574973
  H -2.91622301 -1.15629990 -1.08385491
  H -3.91691911 -0.30600472  0.07721659
  H -2.41537551  1.65043329  0.03780836
  H -3.32987055  1.29538100 -1.42267015
  H -0.81898672  2.16655364 -1.60297791
  H -1.33392698  0.88396899 -2.71255607
  H -0.52732508  0.46089825  0.10782356
  H -0.95733495 -0.76011093 -1.14792245
