25
opt_min/./Reactant_4090_1_opt.xyz
  C  2.66955900 -1.71023000  2.72086900
  C  1.52955489 -1.74607613  1.71951787
  O  1.25750240 -2.77316139  1.10810951
  C  0.86134940 -0.49061810  1.57131214
  N -0.15289709 -0.23066687  0.74641410
  C -0.71838004 -1.32339091 -0.03355652
  N -0.65334665  0.94383274  0.74811150
  C -1.53328886  1.41025951 -0.20012191
  C -2.60862714  2.19485597  0.22601251
  C -3.44817976  2.78196759 -0.69801413
  C -3.22393569  2.61904791 -2.05614435
  C -2.14470538  1.86483188 -2.48681496
  C -1.30597630  1.25819382 -1.57337554
  H  2.39581275 -1.14537793  3.60736580
  H  3.53333708 -1.23457599  2.25977336
  H  2.93913528 -2.72628872  2.99573183
  H  1.20303713  0.35961323  2.14004566
  H -0.90472015 -2.17120559  0.62405553
  H -0.00163230 -1.65430665 -0.78492135
  H -1.64343116 -0.99786417 -0.50586077
  H -2.77220964  2.31671080  1.28536846
  H -4.28361938  3.37441822 -0.35433208
  H -3.87982228  3.08539469 -2.77540598
  H -1.95487061  1.75039655 -3.54420107
  H -0.44647929  0.69683638 -1.91238976
