13
opt_min/./Reactant_4804_1_opt.xyz
  N -0.88934100  1.00827100  0.61415000
  C -0.64080955 -0.31018265  0.15867999
  N -1.57683446 -0.93956051 -0.70444291
  N  0.67769964 -0.74728470 -0.05574421
  C  1.81351081  0.11297609  0.16561243
  H -1.71076082  1.40650708  0.16577523
  H -0.09904415  1.63684726  0.50205700
  H -1.95602530 -0.31897574 -1.42292108
  H -2.35828957 -1.33388821 -0.19470389
  H  0.75482650 -1.34741548 -0.86591599
  H  1.86047474  0.97532223 -0.52017840
  H  2.72285329 -0.46981836  0.02708401
  H  1.78743036  0.48084106  1.19202326
