31
opt_min/./Reactant_2902_0_opt.xyz
  C  4.85291802  1.86259591 -1.15539204
  N  3.56827512  1.25300490 -0.92048383
  C  3.26118218  0.03647813 -1.42397694
  O  4.00734688 -0.61603549 -2.12667158
  C  1.89991715 -0.44534177 -1.04963913
  C  1.50495341 -1.71241486 -1.49406320
  N  1.21208169 -2.76632182 -1.85074243
  O  1.18734503  0.35613217 -0.30017484
  C  0.00455940  0.23861714  0.23203618
  C -0.28321666  1.36962515  1.12955665
  O  0.52163048  2.24354510  1.36715905
  O -1.51751217  1.31639515  1.64807704
  C -1.87289607  2.36877279  2.53198945
  C -0.96210738 -0.81587213 -0.05718359
  C -1.60848162 -1.50043268  0.97250592
  C -2.53790042 -2.47734015  0.67866734
  C -2.84557023 -2.77562566 -0.63965856
  C -2.22083083 -2.08812705 -1.66677650
  C -1.28145679 -1.11634225 -1.38355891
  H  4.74012221  2.94264452 -1.22422405
  H  5.55591008  1.62395695 -0.35195578
  H  5.25296744  1.46620151 -2.08813742
  H  2.91683928  1.72705543 -0.31309016
  H -2.95977753  2.40806121  2.54512077
  H -1.45900064  3.31714544  2.18299845
  H -1.49113768  2.16307444  3.53437432
  H -1.35607137 -1.27139561  1.99610000
  H -3.02397917 -3.01340381  1.47997128
  H -3.57245111 -3.54032370 -0.86696851
  H -2.46574452 -2.31294333 -2.69348937
  H -0.81844017 -0.57038976 -2.19287540
