24
opt_min/./Reactant_2092_0_opt.xyz
  C -3.15708809 -0.30434690 -0.21820251
  C -1.72970090 -0.56843948 -0.65868469
  O -1.49790300 -1.36733158 -1.54655764
  C -0.64630180  0.09182518  0.07150785
  N -0.78447589  1.21398300  0.78443827
  C -1.74013038  2.13912028  0.87532712
  C -1.57078097  3.21174828  1.73528221
  N -1.43273551  4.10126688  2.45567930
  C  0.68899346 -0.50489091  0.07041504
  C  0.85564337 -1.88874425 -0.04610731
  C  2.11744289 -2.45031226 -0.02634377
  C  3.24053584 -1.65223667  0.11434980
  C  3.09191220 -0.27943812  0.22153299
  C  1.83373816  0.29115886  0.19703792
  H -3.59502805  0.48462845 -0.82844784
  H -3.22794596 -0.03780590  0.83240471
  H -3.73487539 -1.20725827 -0.40510959
  H  0.03721486  1.42655622  1.35331125
  H -2.62354066  2.10319125  0.26524965
  H -0.00951760 -2.52279411 -0.14848797
  H  2.22152045 -3.52085063 -0.11794824
  H  4.22501021 -2.09398146  0.13264864
  H  3.96097420  0.35376996  0.31609002
  H  1.75974048  1.36995842  0.24026049
