29
opt_min/./Reactant_5926_1_opt.xyz
  C  4.08350800  1.46349207  2.16331595
  O  3.11357379  0.77250274  1.39170025
  C  3.56049016 -0.29893135  0.70189177
  O  4.70364030 -0.68334982  0.70756130
  C  2.47435386 -0.92171645 -0.05529479
  C  2.77127892 -1.99447022 -0.89495977
  N  3.02353604 -2.85934761 -1.61196205
  O  1.27939725 -0.34969229  0.06607140
  C  0.13706691 -0.69050115 -0.43319250
  C -0.13820140 -2.01660736 -1.08411109
  C  0.12346509 -3.20562395 -0.19300702
  O -0.65589462 -2.10637443 -2.16826947
  C -0.94314499  0.25754262 -0.24544994
  C -2.23004355  0.01714345 -0.74977034
  C -3.23530733  0.94263453 -0.55508293
  C -2.98856388  2.11115407  0.14805081
  C -1.71959275  2.35913583  0.65230241
  C -0.70334418  1.44797454  0.46052582
  H  5.05614219  1.42427130  1.67011159
  H  3.73784748  2.49085169  2.25147612
  H  4.16631587  1.00687344  3.15152820
  H -0.75732612 -3.84346778 -0.21131879
  H  0.34909400 -2.91022953  0.82845504
  H  0.95351124 -3.79064395 -0.58915165
  H -2.42696684 -0.87998475 -1.31351062
  H -4.21996425  0.74846569 -0.95227405
  H -3.77953944  2.83011890  0.30038182
  H -1.52301565  3.27039101  1.19624576
  H  0.28253572  1.64494385  0.85200438
