33
opt_min/./Reactant_2871_1_opt.xyz
  C -0.68037545 -0.85952284 -2.10030660
  C -0.23489473 -0.25946403 -0.76113526
  C  1.28180027 -0.17652102 -0.73055528
  C  1.98685054 -1.37416175 -0.63164677
  C  3.36803983 -1.38888908 -0.62319172
  C  4.07451063 -0.20103776 -0.70730315
  C  3.38498060  0.99385242 -0.79132863
  C  1.99881004  1.00763701 -0.80129542
  C -0.68380506 -1.06444568  0.36111765
  C -1.23437834 -1.32357614  1.39709693
  C -2.13409473 -1.09012445  2.49170783
 Cl -3.27953371 -2.46165709  2.72177545
 Cl -1.23909886 -0.86821787  4.02345721
  C -2.91834022  0.17462757  2.12474843
  C -2.09247454  1.46144307  1.90704688
  C -0.84857361  1.53367190  0.99753907
  C -0.97481114  1.07340938 -0.47250687
  H -0.32415091 -1.88143732 -2.19872939
  H -1.76651266 -0.86720230 -2.17280272
  H -0.27541453 -0.26998204 -2.92144282
  H  1.44322407 -2.30449221 -0.54484995
  H  3.89310666 -2.32971662 -0.54687734
  H  5.15436990 -0.20688466 -0.70127501
  H  3.92611583  1.92673487 -0.84690480
  H  1.49407544  1.95829737 -0.86363983
  H -3.62471245  0.40625220  2.92777705
  H -3.49894114 -0.05351957  1.22760671
  H -2.81735078  2.19824411  1.54833828
  H -1.74520396  1.78954677  2.89058676
  H -0.57586600  2.59366420  0.99740775
  H -0.01894179  1.00797592  1.46909565
  H -2.02715794  0.95606562 -0.73656693
  H -0.57786000  1.84723903 -1.12824745
