16
opt_min/./Reactant_1417_0_opt.xyz
  C -2.46694329 -0.33565173 -1.25364598
  C -1.35137491 -0.52387100 -0.25230283
  O -1.46243485 -1.29282850  0.68910326
  C -0.18084289  0.28643934 -0.50044800
  N  0.90993522  0.30509598  0.24531930
  C  1.02328941 -0.54989745  1.41265717
  N  1.87398408  1.08248600 -0.09800928
  C  2.99475202  1.21143373  0.53427361
  N  4.03284548  1.40209889  1.00106296
  H -3.30101126  0.15658676 -0.75505300
  H -2.81746899 -1.31354948 -1.57939670
  H -2.16412354  0.25092716 -2.11358983
  H -0.16654437  0.95044022 -1.35073940
  H  0.89245928 -1.59154814  1.11885514
  H  2.00269865 -0.40466393  1.86977051
  H  0.23185415 -0.31385172  2.12451482
