37
opt_min/./Reactant_5655_0_opt.xyz
  C  2.72886000 -1.99385600  2.38436500
  N  1.80487028 -1.50515154  1.38907510
  C  1.95337630 -0.24072526  0.85611636
  O  2.87306056  0.47178019  1.21523774
  C  0.92656329  0.11011545 -0.11034097
  C  0.61359594  1.47077650 -0.45506366
  O -0.07340993  1.78678592 -1.41854965
  O  1.17046405  2.36392621  0.37939563
  C  1.01227854  3.73323726  0.06369971
  N  0.29891181 -0.87713239 -0.85592323
  C  1.13889621 -1.88090758 -1.48957228
  C -0.97405273 -0.78424330 -1.18177256
  C -1.52342707 -1.56979548 -2.32772523
  C -1.89029941  0.05762937 -0.41634082
  C -1.86212893  0.06333966  0.98081326
  C -2.75913698  0.82972923  1.69492319
  C -3.68596417  1.62076726  1.03241424
  C -3.71761974  1.62804985 -0.35077265
  C -2.83535271  0.84562092 -1.07340768
  H  2.24029358 -2.73197586  3.01656977
  H  3.60498887 -2.44939573  1.91161102
  H  3.07196693 -1.15516681  2.99064872
  H  0.96753935 -2.03501619  1.22791348
  H  0.43936293  3.83841059 -0.86081417
  H  2.00153432  4.17751180 -0.05139744
  H  0.48363687  4.21751805  0.88684088
  H  2.14669038 -1.80043642 -1.09255506
  H  1.17398641 -1.70358762 -2.56547276
  H  0.75691490 -2.88646617 -1.31099785
  H -2.60579040 -1.49299562 -2.34911385
  H -1.25395129 -2.62306435 -2.25908927
  H -1.12838666 -1.18758693 -3.27028350
  H -1.13853245 -0.54278270  1.50591241
  H -2.73214034  0.81678325  2.77454645
  H -4.37511400  2.23352016  1.59463036
  H -4.43063560  2.24933671 -0.87225777
  H -2.84175507  0.88128841 -2.15073466
