29
opt_min/./Reactant_2915_1_opt.xyz
  C  4.59732400  0.43830500  1.59078200
  N  3.27449540  0.11466667  1.11858627
  C  2.98555183 -1.08467415  0.57862094
  O  3.77991662 -1.99834061  0.45829332
  C  1.55957530 -1.23160110  0.11863344
  C  1.19560377 -2.49451213 -0.56048792
  O  0.82330987 -0.20885848  0.32824562
  C -0.45389635  0.10185961  0.07268612
  C -1.59044488 -0.79418395  0.04001310
  O -2.71434647 -0.49142194 -0.27702331
  O -1.27699071 -2.02200804  0.55050414
  C -2.34337585 -2.94551270  0.69852372
  C -0.59140018  1.56683029  0.07280744
  O  0.36575071  2.30315068  0.19971002
  O -1.84424594  1.98971857 -0.08973287
  C -2.02705754  3.39896750 -0.14290419
  H  5.07834599 -0.48415046  1.91875681
  H  4.53223675  1.13892634  2.42016888
  H  5.20427346  0.87373379  0.79271897
  H  2.57167301  0.83998800  1.11676484
  H  2.09031875 -2.86302291 -1.06098987
  H  0.88541321 -3.25295976  0.16045438
  H  0.38059194 -2.34154466 -1.26319116
  H -3.28557721 -2.46515755  0.42257908
  H -2.16469211 -3.80005417  0.04381250
  H -2.37625673 -3.26490766  1.74010445
  H -1.67109718  3.78535831 -1.10071260
  H -3.09735571  3.55874717 -0.04413507
  H -1.47572416  3.88130509  0.66644647
