19
opt_min/./Reactant_959_0_opt.xyz
  C  4.40189100 -0.07724700 -0.40154600
  N  2.96657341 -0.20856694 -0.32862379
  C  2.22064089  0.56357411  0.46924110
  O  2.62301978  1.43768171  1.21432295
  N  0.84437280  0.27812281  0.31332275
  N  0.13143161  1.05004229  1.01154714
  N -1.11545846  1.08664156  1.16402295
  C -1.94946974  0.38279587  0.29657032
  O -1.74268118  0.18030592 -0.87021619
  O -3.06525576  0.06376154  0.95561022
  C -4.10445168 -0.55710622  0.21335856
  H  4.78256871 -0.70408687 -1.20226755
  H  4.85624566 -0.37895712  0.54506139
  H  4.67360645  0.96360179 -0.58829110
  H  2.48126344 -0.85353563 -0.93083361
  H  0.66006999  1.74427346  1.60074379
  H -5.01925353  0.01184912  0.37803367
  H -4.23200043 -1.57679026  0.58009363
  H -3.85185010 -0.57129279 -0.84864077
