28
opt_min/./Reactant_2822_1_opt.xyz
  C  3.44268600  1.94616000  0.33837400
  N  2.40170192  0.94918583  0.28489701
  C  2.66259123 -0.31537210 -0.16526766
  O  3.78735416 -0.63562194 -0.53233683
  C  1.57522978 -1.28243539 -0.12589578
  C  1.97788066 -2.72716338 -0.16750528
  N  0.27559874 -1.01652148  0.02894724
  C -0.43954877  0.09097248 -0.16701309
  C -1.82379886  0.16658939  0.17356513
  C -2.42698416 -0.72351614  1.07762189
  C -3.77306312 -0.63098142  1.36510013
  C -4.55288084  0.34907496  0.77182652
  C -3.97075929  1.24458634 -0.11321082
  C -2.62793372  1.15861939 -0.41000834
  H  4.40463977  1.43255912  0.34038545
  H  3.34270594  2.54563002  1.24261582
  H  3.40406733  2.60425516 -0.53486213
  H  1.52244516  1.16656503  0.72345839
  H  1.13169555 -3.36785856 -0.40939760
  H  2.75205503 -2.85170503 -0.92295210
  H  2.40811868 -3.05218591  0.78210853
  H -0.28852143 -1.82693749  0.28560025
  H  0.04716529  0.94498943 -0.60542811
  H -1.83254896 -1.47861467  1.57505519
  H -4.21863066 -1.32072303  2.06755986
  H -5.60515132  0.41974136  1.00362822
  H -4.57377950  2.01084464 -0.57836286
  H -2.17780272  1.85518764 -1.10230457
