23
opt_min/./Reactant_5011_0_opt.xyz
  C  1.63992001  0.64558675 -2.56943845
  C  0.49876170 -0.32555179 -2.68879475
  O  0.15356137 -0.77667120 -3.75506100
  C -0.22062205 -0.73862493 -1.45514176
  O -0.16495704 -0.28320295 -0.24908968
  C  0.38661746  0.63435109  0.49586179
  C  1.29034389  1.65467404  0.17419671
  N  2.02102466  2.53804205  0.06743417
  C -0.08660047  0.52320061  1.91111858
  C  0.43504217  1.54828570  2.87223682
  O -0.86546768 -0.35349749  2.20731452
  C -1.15590941 -1.92746916 -1.55470911
  C -2.31228192 -1.86793443 -0.59778988
  O -0.95165583 -2.82759552 -2.32224946
  H  2.39479961  0.28412129 -1.87247436
  H  1.28396108  1.61410446 -2.22695371
  H  2.08953912  0.76654466 -3.55281129
  H  1.48343671  1.77106159  2.69456485
  H  0.28638738  1.19366064  3.88951933
  H -0.12914403  2.47252332  2.74199269
  H -2.93215842 -1.00168909 -0.82356512
  H -1.95344347 -1.76370686  0.42639083
  H -2.90559573 -2.77370797 -0.69210427
