29
opt_min/./Reactant_2427_1_opt.xyz
  C  4.05661200 -0.80471900 -0.35365200
  N  2.70736410 -0.89513697  0.14345614
  C  1.75891832  0.02112672 -0.15814661
  O  1.97187741  0.98676182 -0.87030319
  C  0.43468069 -0.22371107  0.44029430
  C -0.48490095  0.73330097  0.64914545
  C -0.32710883  2.20017728  0.49469687
  C -0.92132381  2.75069930 -0.77713283
  O  0.20910290  2.87887284  1.33256131
  C -1.76181641  0.04248681  1.08204503
  C -2.29805417 -0.67139813 -0.17997142
  C -1.23298542 -1.75159335 -0.44858717
  C -0.23635388 -1.55133391  0.71991755
  C -1.18211446 -1.14597163  1.85774517
  H  4.77041942 -0.87578921  0.46728934
  H  4.26263970 -1.59939800 -1.07552962
  H  4.16284682  0.15984714 -0.84472898
  H  2.48805201 -1.65906809  0.75893127
  H -0.43527047  2.27824935 -1.62507097
  H -0.77889577  3.82538808 -0.82088274
  H -1.98411410  2.51888161 -0.81263173
  H -2.48574213  0.67187256  1.59337851
  H -3.26622754 -1.11810825  0.04338459
  H -2.41862213  0.00975496 -1.01857242
  H -1.66334403 -2.75064110 -0.42441827
  H -0.73675407 -1.61223527 -1.40762605
  H  0.40906145 -2.40731385  0.90180330
  H -0.65174666 -0.84432404  2.75840181
  H -1.92316747 -1.90569195  2.10003539
