13
opt_min/./Reactant_3893_0_opt.xyz
  C -2.03027900 -0.35486500  0.11368697
  C -0.63210384  0.12032572  0.03959116
  N  0.45258879 -0.66402727 -0.07327445
  C  1.57371776  0.08061465 -0.10062047
  C  2.86983248 -0.39982493 -0.21275396
  N  3.93463321 -0.82883280 -0.30240055
  O  1.23868917  1.37489449 -0.00377322
  C -0.15611114  1.47455151  0.08947321
  O -0.72438316  2.53194873  0.18173036
  H -2.69227825  0.47079920 -0.13476379
  H -2.28020207 -0.69083637  1.12242184
  H -2.19953078 -1.18210929 -0.57448692
  H  0.44703480 -1.67384935 -0.13217407
