15
opt_min/./Reactant_596_0_opt.xyz
  C -1.56512235 -1.32259725 -2.33353354
  O -0.82426218 -0.30015573 -1.67328465
  C -0.45622674 -0.51177091 -0.42204672
  O -0.67908044 -1.49824514  0.24544913
  C  0.29970532  0.62608899  0.14903787
  C  0.56743493  1.79132051 -0.58150964
  N  0.77148414  2.73620123 -1.19911263
  N  0.68423808  0.43970766  1.40138247
  N  1.33436583  1.26246702  2.12875074
  C  1.68261116  1.02512428  3.35686095
  N  2.03716494  0.92848175  4.44864093
  H -1.71939701 -2.16893740 -1.66236176
  H -2.52391280 -0.90108484 -2.63611464
  H -1.00113099 -1.63027517 -3.21360972
  H  0.37525430 -0.49065646  1.75814313
