37
opt_min/./Reactant_2712_0_opt.xyz
  C  1.97335700  3.17870800 -1.11634700
  O  1.67358388  1.85263286 -0.70376524
  C  0.48828247  1.64778427 -0.12654066
  O -0.29022679  2.51380752  0.18544109
  C  0.32060057  0.20657931  0.20503166
  C  1.54142204 -0.60931962  0.32599654
  C  1.91926021 -1.42981736 -0.73257136
  C  3.07566653 -2.18277977 -0.64311796
  C  3.85929986 -2.12409939  0.49743231
  C  3.48952217 -1.30278819  1.54899251
  C  2.33547994 -0.54453991  1.46571371
  N -0.86362694 -0.26070033  0.53648606
  C -0.95895378 -1.55652576  1.18524706
  C -1.99063975  0.26041576 -0.08669721
  C -3.24857842  0.41080993  0.58781804
  C -3.17005672  0.48973626  2.10769437
  O -4.32383446  0.53338788  0.02058126
  C -1.75491379  0.52762276 -1.47506509
  C -2.94561156  0.66164155 -2.37429099
  O -0.60045601  0.58352691 -1.91659779
  H  1.07993708  3.80218235 -1.05167752
  H  2.33062396  3.13044930 -2.14353188
  H  2.75350789  3.58263324 -0.46869926
  H  1.30933497 -1.45165371 -1.62255613
  H  3.36797759 -2.81382881 -1.46853411
  H  4.76170754 -2.71285574  0.56473457
  H  4.10193771 -1.24862939  2.43625723
  H  2.04895690  0.10344638  2.28154505
  H -0.44000071 -2.31187589  0.59318610
  H -0.49892057 -1.51670290  2.17218320
  H -2.00492433 -1.83466834  1.27434737
  H -3.40789955 -0.47616590  2.55041501
  H -2.19197778  0.81690897  2.44560181
  H -3.92530159  1.19559779  2.44292754
  H -3.53772712  1.51159965 -2.04374613
  H -3.58242435 -0.21569680 -2.30385701
  H -2.60858192  0.80776068 -3.39674704
