30
opt_min/./Reactant_2440_0_opt.xyz
  C  2.91694271 -2.44058966 -0.36011294
  O  2.25900054 -1.35857673  0.27798554
  C  1.77614479 -0.36144565 -0.53413772
  F  2.83459840  0.21535571 -1.23192329
  C  1.06488636  0.61501562  0.26877610
  C  0.03381579  1.15824173  0.54440970
  C -1.31000490  1.53945500  0.89274220
  C -1.35753758  1.98712796  2.37345731
  F -0.29692350  2.72640462  2.69905369
  F -2.44079223  2.71208512  2.66886009
  F -1.36620873  0.93763983  3.20186540
  C -1.76161219  2.70601123 -0.00677367
  F -3.03355203  3.05512280  0.20954042
  F -1.68036183  2.37923433 -1.30170849
  F -1.01533289  3.79651285  0.16383390
  C -2.12964494  0.25261362  0.63319301
  C -1.90020315 -0.54480561 -0.67535366
  C -0.63115816 -1.33579620 -1.12104202
  C  0.72150355 -0.76507567 -1.59294935
  H  2.21366548 -3.08021193 -0.90100508
  H  3.69325844 -2.08414241 -1.04117920
  H  3.37447575 -3.00903836  0.44573142
  H -3.18985058  0.52751293  0.62788677
  H -1.97084036 -0.41567101  1.48186048
  H -2.28399416  0.02063641 -1.52447736
  H -2.58873170 -1.38446108 -0.51620079
  H -0.44791212 -2.13574509 -0.40207326
  H -1.00217414 -1.80527039 -2.03834344
  H  0.56772521  0.10158010 -2.24103744
  H  1.18811888 -1.53881628 -2.21040288
