35
opt_min/./Reactant_2722_0_opt.xyz
  C -1.85318400  2.96870300  1.55807600
  O -1.58825132  1.69761006  0.98527663
  C -0.30609221  1.30617957  0.93963185
  O  0.61015437  1.92485080  1.41942455
  C -0.21494435 -0.03242871  0.32069423
  N  0.93306844 -0.57756830 -0.01397974
  C  2.11378100  0.05762907 -0.26317386
  C  2.04757617  1.36782924 -0.89688480
  C  3.35276001  2.01959770 -1.24608139
  O  0.97233564  1.86187418 -1.19908148
  C  3.31392845 -0.72945075 -0.10214398
  O  4.44997394 -0.41660743 -0.37676757
  O  3.00925043 -1.95192249  0.43872958
  C  4.10550723 -2.81471643  0.68698595
  C -1.44957247 -0.82230249  0.16165719
  C -2.11583350 -1.33815717  1.26944280
  C -3.27241536 -2.07673988  1.09904332
  C -3.77368045 -2.30141769 -0.17261890
  C -3.11431406 -1.78871216 -1.27677559
  C -1.95300086 -1.05416978 -1.11415509
  H -0.93371371  3.55478270  1.60739564
  H -2.25736725  2.83307102  2.56343652
  H -2.58837697  3.46222767  0.92449290
  H  0.91442135 -1.57999338 -0.21333377
  H  3.91144412  2.20560445 -0.33182170
  H  3.15655428  2.95509865 -1.76376200
  H  3.95660175  1.36209546 -1.86608642
  H  4.52017568 -2.61378340  1.67759639
  H  3.72163250 -3.83220376  0.64133072
  H  4.88433160 -2.66013936 -0.06285357
  H -1.72146709 -1.15850660  2.25821313
  H -3.78509062 -2.47808313  1.96040706
  H -4.67974695 -2.87446691 -0.30213724
  H -3.50590329 -1.95909238 -2.26821265
  H -1.43801884 -0.64280552 -1.96905262
