21
opt_min/./Reactant_4961_0_opt.xyz
  C  3.30410919 -0.70561279  1.31126333
  O  2.03133026 -0.39028979  0.76540834
  C  1.40834105 -1.35449675  0.06728953
  O  1.87280356 -2.44273651 -0.12851053
  C  0.08514423 -0.89278758 -0.40538945
  N -0.53856693  0.18272617  0.07620267
  C -0.29746888  1.13331665  0.98574260
  C -1.34545951  2.04779873  1.21591033
  N -2.21645793  2.77339018  1.39574091
  C  0.85148359  1.42217620  1.74282865
  N  1.66049060  1.84066159  2.44457274
  C -0.59509865 -1.67109230 -1.46101425
  C -1.96698464 -1.17743143 -1.90095685
  O -0.09502428 -2.64418258 -1.96892717
  H  4.05366767 -0.73411324  0.51888824
  H  3.52179288  0.09189070  2.01867529
  H  3.27153352 -1.67650551  1.80782556
  H -1.48029909  0.28184166 -0.31200332
  H -2.69776891 -1.28375678 -1.09918611
  H -1.94194191 -0.14699198 -2.25267375
  H -2.28675588 -1.80722675 -2.72778919
