28
opt_min/./Reactant_2377_1_opt.xyz
  N -4.46042000  3.04894595  0.31657722
  C -3.65746601  2.23384680  0.15897565
  N -2.83756555  1.25770580 -0.06239115
  N -1.55804801  1.39115261  0.16587163
  C -0.61566403  0.48279047  0.00382968
  C -0.86062526 -0.85853192 -0.48926716
  C  0.04691568 -1.88294012 -0.18192545
  C -0.16271297 -3.16803528 -0.63675348
  C -1.27599438 -3.46625382 -1.40677948
  C -2.18523817 -2.46605199 -1.70918384
  C -1.98904216 -1.17675382 -1.25335666
  C  0.74257884  0.92261576  0.35319780
  C  1.81181840  0.64772494 -0.50071657
  C  3.08332665  1.08958325 -0.18742092
  C  3.30678651  1.80453260  0.97792886
  C  2.25327098  2.08027987  1.83285102
  C  0.97727933  1.64592525  1.52333903
  H -1.22216346  2.30040071  0.51535488
  H  0.90627407 -1.66718314  0.43420686
  H  0.54539996 -3.94448429 -0.38641425
  H -1.43671200 -4.47303447 -1.76239867
  H -3.05757054 -2.69327067 -2.30378291
  H -2.70583477 -0.41030145 -1.49662557
  H  1.63362902  0.10205579 -1.41484602
  H  3.90302737  0.87840954 -0.85758075
  H  4.30223614  2.14381938  1.22155829
  H  2.42584807  2.63005353  2.74575600
  H  0.16392507  1.83612201  2.21024323
