17
opt_min/./Reactant_1433_1_opt.xyz
  N  4.87236547  1.09520965 -1.16217371
  C  3.80283377  0.69439305 -1.32478427
  N  2.65483780  0.19447048 -1.65990950
  N  1.60409504  0.27698587 -0.93461457
  N  0.50610812 -0.21435269 -1.30764248
  C -0.59993819 -0.14361571 -0.49261278
  C -0.55655526  0.02425864  0.89645573
  C -1.73094320  0.05967669  1.62052107
  C -2.95575506 -0.06899218  0.98659260
  C -3.00180420 -0.25163290 -0.38775582
  C -1.83806685 -0.29672247 -1.12515936
  H  1.65761901  0.78535431 -0.01696917
  H  0.38694989  0.08927037  1.42356826
  H -1.69015960  0.18293319  2.69408132
  H -3.86903608 -0.03850560  1.56290818
  H -3.95409758 -0.36353897 -0.88393206
  H -1.85074920 -0.43577123 -2.19491176
