21
opt_min/./Reactant_1510_0_opt.xyz
  N -2.70148693  1.91690579 -1.18772050
  C -2.13729317  0.92331647 -1.17664492
  C -1.41754058 -0.32878787 -1.16356766
 Cl -2.32572139 -1.45234093 -2.27894893
  C -0.03981549 -0.14257658 -1.54198699
  C  1.15504699 -0.18982305 -1.41873498
  C  2.44737950 -0.08290597 -0.79635835
  C  2.12421059  0.27818459  0.67003773
  C  1.04666627 -0.59875919  1.34217844
  C -0.43875798 -0.16021514  1.23038940
  C -1.33920672 -0.94482056  0.25391759
  H  2.97698557 -1.03605188 -0.85472455
  H  3.06609707  0.68945007 -1.25613973
  H  1.80840434  1.32122330  0.71576155
  H  3.04861303  0.18365983  1.24381959
  H  1.14845590 -1.62900114  0.99530756
  H  1.28311657 -0.59968117  2.40838559
  H -0.87851767 -0.30607967  2.22049780
  H -0.49250269  0.90917470  1.00859168
  H -0.94751151 -1.95728830  0.13184028
  H -2.35039175 -1.02125194  0.65728866
