29
opt_min/./Reactant_5554_0_opt.xyz
  C -2.69226000 -3.35046800 -1.20731700
  N -2.01266372 -2.11713869 -0.88564805
  C -2.67144935 -0.93727743 -0.97925414
  O -3.82711367 -0.84832914 -1.33794553
  C -1.84970733  0.24927105 -0.60721098
  O -0.61410357  0.25116633 -0.20155900
  N  0.13199889 -0.83542688 -0.05884483
  C  1.39538729 -0.60025234  0.41599536
  C  2.21473714 -1.73069184  0.54573724
  C  3.49942094 -1.60023214  1.02694078
  C  3.98984465 -0.35193733  1.38014636
  C  3.18570327  0.77190991  1.25077757
  C  1.89819895  0.65897144  0.77382205
  C -2.42583702  1.61439536 -0.67371581
  O -3.52330584  1.90292752 -1.06203535
  O -1.50796784  2.52231015 -0.26702569
  C -1.90437711  3.88680868 -0.29724278
  H -1.95825586 -4.12188300 -1.42742308
  H -3.33546543 -3.18930222 -2.07331764
  H -3.32615165 -3.67607101 -0.37730161
  H -1.05071797 -2.15537105 -0.56330279
  H  1.81989903 -2.69437217  0.26529228
  H  4.12528913 -2.47383887  1.12892284
  H  4.99837389 -0.25409027  1.75530462
  H  3.56992408  1.74333581  1.52619284
  H  1.26937983  1.53092184  0.67310844
  H -2.73254918  4.01926442 -0.99590218
  H -2.21805869  4.19536310  0.70204553
  H -1.03716308  4.46617764 -0.61165008
