25
opt_min/./Reactant_4091_1_opt.xyz
  C  2.66955900 -1.71023000  2.72086900
  C  1.52955482 -1.74607616  1.71951794
  O  1.25750241 -2.77316139  1.10810950
  C  0.86134936 -0.49061812  1.57131218
  N -0.15289709 -0.23066686  0.74641412
  C -0.71838006 -1.32339088 -0.03355651
  N -0.65334662  0.94383277  0.74811148
  C -1.53328883  1.41025953 -0.20012193
  C -2.60862713  2.19485597  0.22601250
  C -3.44817976  2.78196757 -0.69801415
  C -3.22393570  2.61904790 -2.05614436
  C -2.14470539  1.86483188 -2.48681498
  C -1.30597629  1.25819384 -1.57337557
  H  2.39581278 -1.14537796  3.60736583
  H  3.53333704 -1.23457594  2.25977331
  H  2.93913534 -2.72628871  2.99573179
  H  1.20303710  0.35961321  2.14004571
  H -0.90472022 -2.17120554  0.62405553
  H -0.00163231 -1.65430665 -0.78492132
  H -1.64343114 -0.99786411 -0.50586080
  H -2.77220961  2.31671081  1.28536845
  H -4.28361939  3.37441821 -0.35433209
  H -3.87982231  3.08539466 -2.77540598
  H -1.95487065  1.75039654 -3.54420110
  H -0.44647928  0.69683641 -1.91238980
