30
opt_min/./Reactant_4677_1_opt.xyz
  C -3.58476398 -2.40638105  0.50724594
  N -2.34393100 -1.68980721  0.32780316
  C -2.31923359 -0.39308453 -0.05802160
  O -3.30705584  0.23938182 -0.35357354
  C -0.92187106  0.16805969 -0.08874686
  C -0.67039786  1.32694869  0.78525642
  O  0.13447351  2.19865160  0.55745393
  O -1.50586336  1.32412888  1.82743138
  C -1.42281235  2.45475393  2.68415386
  N -0.03896755 -0.24017298 -0.99378018
  C -0.51126154 -0.96783980 -2.15290715
  C  1.29440431 -0.02150966 -0.86250530
  C  1.80011810  0.21803934  0.42347374
  N  2.24481364  0.27889707  1.48230902
  C  2.24072853  0.00779808 -1.97133360
  C  3.64512872  0.38323671 -1.57360027
  O  1.94240238 -0.21959110 -3.13255005
  H -3.64083174 -3.25044125 -0.18336409
  H -3.67496148 -2.77162327  1.53045720
  H -4.39818014 -1.71456466  0.29464288
  H -1.50236270 -2.12131723  0.67413012
  H -2.04790298  2.22871425  3.54421690
  H -1.78939916  3.34455799  2.16863671
  H -0.38679310  2.62033355  2.98609776
  H -0.18594480 -2.00712579 -2.10506395
  H -0.06937838 -0.52355776 -3.04735031
  H -1.59576645 -0.91376467 -2.21542278
  H  3.65177400  1.35968629 -1.09196708
  H  4.27289552  0.41130982 -2.46104474
  H  4.04358189 -0.34291425 -0.86628564
