30
opt_min/./Reactant_2609_1_opt.xyz
  C -3.21100471 -0.84248573 -0.29445561
  C -1.93937960 -0.95744751 -1.08754471
  O -1.82785505 -1.65393272 -2.05850310
  C -0.77041639 -0.10379852 -0.55793022
  C -1.11120058  1.36481479 -0.85883449
  C -1.27387706  1.67615704 -2.31595348
  O -1.24784885  2.17258990  0.02148689
  C  0.48189174 -0.42593730 -1.18112074
  C  1.62705145 -0.76032891 -1.30539831
  C  2.98807028 -0.97167190 -0.91466947
  F  3.91093499 -0.56584295 -1.83892484
 Cl  3.27180422 -2.73047981 -0.63412598
  C  3.16739655 -0.17288296  0.37996042
  C  2.15703977 -0.42068135  1.51728681
  C  0.76022781  0.24611246  1.57917529
  C -0.50772875 -0.36789533  0.94327656
  H -3.24530012 -1.65996994  0.42566428
  H -3.27675191  0.10055769  0.24103353
  H -4.06304211 -0.96031450 -0.96165748
  H -2.34113079  1.70875475 -2.53933815
  H -0.80519212  0.92416750 -2.94488845
  H -0.86477951  2.66098631 -2.53357521
  H  4.15877299 -0.41677984  0.77434763
  H  3.17256729  0.88752473  0.11557158
  H  2.06115007 -1.49269899  1.69732907
  H  2.66880026  0.01021354  2.38488339
  H  0.52375551  0.19772697  2.64827479
  H  0.83641374  1.30097010  1.31529751
  H -1.34535153  0.06833276  1.49454613
  H -0.50797269 -1.44507900  1.12060160
