29
opt_min/./Reactant_5112_0_opt.xyz
  C  4.38071100  1.11779700 -1.14261600
  N  2.96134276  1.12835496 -0.88872755
  C  2.25698880 -0.02073152 -0.69202093
  O  2.76020682 -1.12992793 -0.75461120
  C  0.83547810  0.19496973 -0.41592157
  O  0.12510556 -0.86889172 -0.22913297
  C -1.12625797 -0.99480703  0.10531061
  C -1.57612803 -2.37066265  0.35420253
  C -0.54443744 -3.45346103  0.16367548
  O -2.71847767 -2.61047441  0.69643773
  C -2.05566547  0.13473295  0.21732159
  C -2.91058452  0.22874393  1.31773048
  C -3.80405248  1.27834563  1.41561983
  C -3.86163109  2.24732754  0.42638865
  C -3.03136960  2.15226802 -0.67737154
  C -2.13467523  1.10335178 -0.78398664
  H  4.66044919  0.08835086 -1.35595397
  H  4.94156230  1.46468127 -0.27188964
  H  4.62333294  1.75409986 -1.99344394
  H  2.50436142  2.02016041 -0.81071401
  H  0.41380762  1.18872819 -0.32288757
  H -0.68413781 -3.87227150 -0.83297690
  H -0.72927897 -4.25055808  0.87846546
  H  0.47376947 -3.09213316  0.24217096
  H -2.86838887 -0.52550396  2.08550030
  H -4.46020362  1.33918524  2.26996452
  H -4.55800231  3.06838735  0.51157011
  H -3.08009262  2.89111607 -1.46256657
  H -1.52497763  1.01861633 -1.67169426
