26
opt_min/./Reactant_5424_0_opt.xyz
  C -4.31626918  0.83090054 -0.31261199
  O -2.92899167  1.05687816 -0.10611316
  C -2.11758051 -0.03191057 -0.17959190
  O -2.52321393 -1.14997479 -0.38038369
  C -0.71654617  0.33022527  0.03927395
  N -0.45163218  1.61097739  0.26438416
  C  0.68780576  2.23190046  0.62337563
  C  1.88795102  1.58607979  0.93940982
  N  2.89761672  1.13273730  1.25117396
  C  0.67723799  3.62712211  0.74571256
  N  0.66701005  4.77370382  0.82930851
  C  0.31552073 -0.70385554 -0.03823203
  C  1.44114451 -0.50932546 -0.84145448
  C  2.39840439 -1.49905550 -0.94376312
  C  2.24843490 -2.68701362 -0.24724954
  C  1.12844124 -2.89177578  0.54158691
  C  0.16159490 -1.90991010  0.64418325
  H -4.84888032  1.56856537  0.28297969
  H -4.58103808 -0.18088526  0.00004556
  H -4.55664258  0.95435448 -1.36980918
  H -1.26233078  2.22675569  0.18235549
  H  1.55190362  0.40472825 -1.40730690
  H  3.26379558 -1.34188029 -1.56893235
  H  3.00312803 -3.45530441 -0.32270636
  H  1.00831293 -3.81876589  1.08106012
  H -0.71046600 -2.06465422  1.25856396
