21
opt_min/./Reactant_1447_0_opt.xyz
  C -2.08124200 -1.23584600 -0.15158900
  C -0.85220488 -1.70991056 -0.80070692
  N  0.30125009 -1.12329637 -0.67549033
  C  0.52224264  0.12186225 -0.08574051
  C  1.59394993  0.26131251  0.86114776
  C  2.37366872 -1.00375127  1.20941541
  O  1.86269191  1.30159122  1.44491068
  C -0.34223688  1.18809055 -0.53905802
  C -0.12763046  2.55731539  0.04266459
  O -1.18938042  0.99451850 -1.41268064
  H -2.54808728 -0.47442898 -0.78898401
  H -1.84450424 -0.75292252  0.79696102
  H -2.78348545 -2.05355370 -0.00245968
  H -0.90505978 -2.58768842 -1.42919900
  H  1.09873140 -1.54585070 -1.14651407
  H  2.45039229 -1.71659443  0.39295955
  H  1.88281404 -1.49641172  2.04878088
  H  3.36985982 -0.71062995  1.53357148
  H -0.28959911  2.54049738  1.11835100
  H -0.81861170  3.25362412 -0.43168128
  H  0.89672775  2.88365152 -0.12019064
