26
opt_min/./Reactant_2860_1_opt.xyz
  C  3.63783461 -0.28782928  0.22222572
  O  2.34047015  0.02586240 -0.27292208
  C  1.71458307  1.03931860  0.31585220
  O  2.15390893  1.68430557  1.22534630
  C  0.32973041  1.28995613 -0.31429185
  F  0.42615709  2.47710057 -1.01794597
  C -0.71115661  1.34635006  0.69877411
  C -1.78138855  1.03087244  1.14835476
  C -2.95846460  0.25000044  1.32289993
 Br -4.57498286  1.37239418  1.59124068
 Br -2.80957275 -0.97142607  2.87850272
  C -3.10766063 -0.54457560  0.01483466
  C -1.98829037 -1.54887181 -0.31166405
  C -0.51552088 -1.11283721 -0.45676046
  C -0.19861288  0.18203436 -1.24664397
  H  4.36382030  0.44044407 -0.14370294
  H  3.87631916 -1.27972973 -0.15299849
  H  3.64036221 -0.27307087  1.31344895
  H -3.21245127  0.18738029 -0.79057265
  H -4.04102188 -1.11399768  0.06629815
  H -2.29809945 -2.02370543 -1.24587702
  H -2.00552487 -2.32462108  0.45832017
  H  0.01341687 -1.91140637 -0.97917414
  H -0.07153944 -1.03284197  0.53606546
  H -1.10708836  0.54895144 -1.72798268
  H  0.52757170 -0.02635542 -2.03132160
