24
opt_min/./Reactant_1412_0_opt.xyz
  C -2.42280600 -2.25284999  0.06352302
  N -1.10480968 -1.71790112 -0.18308961
  C -0.85403561 -1.02156438 -1.31914637
  O -1.61641476 -1.00130181 -2.26389815
  C  0.53744907 -0.50338237 -1.46707347
  C  1.08733198 -0.53870010 -2.84894830
  N  1.28382140  0.00092950 -0.51498287
  C  0.96857353  0.40944181  0.76326760
  C  2.05311247  0.59004943  1.62227012
  N  2.96300540  0.70885415  2.31972734
  C -0.34252472  0.92770724  1.06980143
  C -0.54198236  1.46417101  2.46630931
  O -1.24295802  0.92819080  0.23938468
  H -3.08994831 -1.47874610  0.45188797
  H -2.35289962 -3.07156691  0.77723147
  H -2.83088492 -2.61291647 -0.87992544
  H -0.47093079 -1.66665960  0.59846701
  H  2.17545434 -0.60251352 -2.84718612
  H  0.79235883  0.36892343 -3.38040815
  H  0.66236614 -1.37635767 -3.39632852
  H  2.24324723  0.22051267 -0.78990367
  H -0.99878261  0.68457678  3.07604103
  H  0.39757298  1.76296347  2.92385929
  H -1.22964942  2.30640515  2.43281636
