35
opt_min/./Reactant_2759_0_opt.xyz
  C  4.91778700 -1.54020000  1.60967800
  N  3.73848875 -0.91417367  1.05982859
  C  3.76671332 -0.35906637 -0.19927056
  O  4.74548077 -0.44537086 -0.92046380
  C  2.51878894  0.28712566 -0.61344602
  C  2.56022579  1.27194146 -1.71351057
  N  1.38156229 -0.13249111 -0.06341855
  C  0.11581717  0.31738524 -0.21766147
  C -0.14322437  1.73652883 -0.37745055
  O  0.72475136  2.58593920 -0.18944300
  N -1.42288940  2.09484623 -0.70407270
  C -1.83337669  3.47518429 -0.64751393
  C -0.94280663 -0.64514249  0.11782406
  C -1.98684401 -0.91285280 -0.77050870
  C -2.97981673 -1.81776267 -0.44342027
  C -2.94798778 -2.48515606  0.76983700
  C -1.90550509 -2.24678951  1.65104793
  C -0.91367946 -1.34107732  1.32944423
  H  4.62951905 -2.41462384  2.19399192
  H  5.54618823 -1.84707805  0.77637224
  H  5.48621844 -0.85302450  2.24184274
  H  3.09172311 -0.53785268  1.73451687
  H  3.53689646  1.22036627 -2.18648355
  H  1.77093878  1.05314907 -2.43539279
  H  2.37906461  2.28553392 -1.34501111
  H  1.44822675 -1.00857588  0.45338323
  H -2.14916985  1.40159401 -0.64984267
  H -0.94660248  4.09148288 -0.77823426
  H -2.29278211  3.72450854  0.31549359
  H -2.54692756  3.68132749 -1.44459410
  H -1.99707669 -0.43753681 -1.74115452
  H -3.77821228 -2.01195497 -1.14469908
  H -3.72493727 -3.18960178  1.02334824
  H -1.87068434 -2.76551422  2.59815014
  H -0.12173775 -1.14668015  2.04023306
