34
opt_min/./Reactant_1690_1_opt.xyz
  C -3.46399461 -2.24850659 -1.37806720
  N -2.46296959 -1.39342561 -0.78514209
  C -1.14391126 -1.60903980 -0.95589542
  O -0.69590280 -2.49683160 -1.64511370
  C -0.21704348 -0.59101306 -0.25726545
  C -0.92353677  0.21540783  0.83956478
  O -0.93295815 -0.11838233  2.00345885
  N -1.59479646  1.29913964  0.37519022
  C -2.21206461  2.24634023  1.27466811
  C  0.37042228  0.31246485 -1.22104929
  C  1.23394463  0.93898168 -1.77630318
  C  2.41673791  1.75943414 -1.85793687
  F  2.12393990  3.09274378 -2.08989651
  C  3.02770764  1.60453010 -0.45036476
  C  3.21896822  0.13994846  0.00261803
  C  2.16405976 -0.52809731  0.91036050
  C  0.99175719 -1.34917046  0.34295223
  H -4.21656338 -1.64677579 -1.88843329
  H -3.95125313 -2.86512972 -0.61961708
  H -2.96189948 -2.89484835 -2.09565175
  H -2.78022910 -0.68223695 -0.14566291
  H -1.40530182  1.60697760 -0.56816060
  H -2.57923860  1.70135234  2.14344938
  H -3.04101927  2.74052113  0.77152867
  H -1.49854971  3.00062905  1.61668859
  H  3.10797467  1.45153716 -2.65110352
  H  2.37385236  2.12565001  0.25134729
  H  3.99560623  2.11236908 -0.45080314
  H  3.43234704 -0.49547330 -0.85709034
  H  4.12006608  0.17566219  0.62169407
  H  1.78769085  0.19591411  1.63497586
  H  2.72709390 -1.27646553  1.47654031
  H  0.58643174 -1.93254127  1.17455425
  H  1.35455864 -2.04328238 -0.41816627
