32
opt_min/./Reactant_5594_0_opt.xyz
  C -0.02762200  2.15909100 -1.95983400
  C -1.23774603  1.46811067 -1.39250424
  O -2.36957642  1.77653855 -1.72236711
  C -0.99120698  0.41059315 -0.41202688
  N  0.20934971  0.03598607  0.01546760
  N  1.36189844  0.46997214 -0.35278556
  C  2.49001574 -0.02477544  0.25197025
  C  2.53098784 -0.74402609  1.45433034
  C  3.74040942 -1.16930288  1.96731750
  C  4.92603555 -0.89055529  1.30710579
  C  4.89713843 -0.16442057  0.12545379
  C  3.69843024  0.26929244 -0.39597158
  C -2.13307259 -0.28339519  0.20383003
  C -2.14690016 -0.54254684  1.57720350
  C -3.21580141 -1.19956683  2.15532693
  C -4.28710436 -1.60535015  1.37758695
  C -4.28660543 -1.34493138  0.01726197
  C -3.21996911 -0.68979407 -0.56801769
  H  0.56446087  2.59242205 -1.15664356
  H  0.60674428  1.43749755 -2.46996358
  H -0.34997435  2.93391370 -2.65100817
  H  0.16105765 -0.71838222  0.72161128
  H  1.62911711 -0.95495697  2.01590364
  H  3.75581153 -1.71963888  2.89728014
  H  5.86437025 -1.22987781  1.71780874
  H  5.81985814  0.06420225 -0.38798282
  H  3.65790932  0.83442037 -1.31356951
  H -1.33571486 -0.19389036  2.20301096
  H -3.21810698 -1.38621735  3.21996643
  H -5.12243094 -2.11574040  1.83378785
  H -5.12253906 -1.65836729 -0.59021939
  H -3.22209483 -0.48967939 -1.62724867
