27
opt_min/./Reactant_1267_0_opt.xyz
  C -3.80333940 -2.23777320  0.63052794
  N -2.94036293 -1.09001867  0.49424747
  C -1.60923565 -1.22367378  0.41085897
  O -1.02139128 -2.29395331  0.37098567
  C -0.82532490  0.05083855  0.40423075
  N  0.45818031 -0.01597959  0.03544434
  C  1.11958262 -0.92849671 -0.67460181
  C  0.53507610 -1.96842417 -1.42056425
  N  0.16348704 -2.73919065 -2.18708650
  C  2.57035680 -0.75412203 -0.81308354
  O  3.29623108 -1.44427693 -1.48035251
  O  3.00470597  0.30881080 -0.08347668
  C  4.39560553  0.60183501 -0.12154335
  C -1.34069089  1.29764518  0.93662662
  C -0.38510161  2.47874584  0.97461995
  O -2.49900286  1.43579849  1.30326889
  H -4.12658129 -2.36640371  1.66557040
  H -3.24934511 -3.12122995  0.31841854
  H -4.67945004 -2.10912790 -0.00419757
  H -3.31549704 -0.17947598  0.73511722
  H  1.06602919  0.74542423  0.34221126
  H  4.89168346 -0.05486721 -0.83902675
  H  4.51350572  1.64315255 -0.41889655
  H  4.81089877  0.44486461  0.87392437
  H  0.03516043  2.67508123 -0.00900899
  H  0.41884743  2.30112465  1.68921608
  H -0.93793209  3.35462051  1.30158181
