30
opt_min/./Reactant_5330_0_opt.xyz
  C  0.04559400  3.75832300  0.40458500
  N -0.13584492  2.34831538  0.62926786
  C  0.58608465  1.41832254 -0.02414253
  O  1.49636461  1.71388277 -0.78888990
  C  0.21257685  0.01431476  0.30352331
  C -1.20792556 -0.22983750  0.63619593
  O -1.84319184  0.45620630  1.42693835
  N -1.79265040 -1.24525901 -0.04790889
  C -3.18405294 -1.58885852  0.11608859
  N  1.08894961 -1.00186044  0.19775631
  C  0.75653173 -2.25145582  0.87102453
  C  2.29132676 -0.91051130 -0.36487998
  C  3.30508021 -1.92865274 -0.39401199
  C  4.57580327 -1.47083123 -1.07743116
  O  3.20016668 -3.06531417  0.05459946
  H  0.89483501  3.88517908 -0.26508831
  H  0.24638843  4.26684960  1.34870637
  H -0.84474516  4.19555485 -0.05325766
  H -0.89079071  2.03987189  1.23223722
  H -1.28694818 -1.73268584 -0.76927004
  H -3.58116804 -0.98099682  0.92673208
  H -3.74575080 -1.38016163 -0.79648611
  H -3.28515463 -2.64597083  0.36604424
  H  1.60766382 -2.55751163  1.47785613
  H -0.11902308 -2.12713738  1.50230870
  H  0.58897201 -3.04861690  0.14668051
  H  2.51903719  0.02694055 -0.84675992
  H  5.01787717 -0.65103170 -0.51503615
  H  5.28154165 -2.29530628 -1.12622045
  H  4.35753733 -1.11422220 -2.08074211
