33
opt_min/./Reactant_5220_1_opt.xyz
  C -2.13052222 -3.89884314  0.64379705
  N -1.53789670 -2.60153596  0.42749459
  C -2.29925235 -1.52539840  0.06874826
  O -3.50545073 -1.62156325 -0.07047905
  C -1.54786220 -0.27301121 -0.10809644
  N -0.25441475 -0.30370257 -0.04285261
  C  0.92150270 -0.30097571  0.04420080
  C  2.29767675 -0.31042235  0.12701211
  C  3.02813599 -1.47614073 -0.17252987
  C  4.40192615 -1.46754062 -0.07961591
  C  5.07999668 -0.31858411  0.29991786
  C  4.36686894  0.83592009  0.59250438
  C  2.99204338  0.85074943  0.51448424
  C -2.18770496  1.01234311 -0.37270982
  C -3.52702333  1.24594415 -0.05785598
  C -4.10585205  2.46893001 -0.33430305
  C -3.36830574  3.48774676 -0.91440293
  C -2.03538132  3.26877611 -1.22147463
  C -1.44814837  2.04870169 -0.95638623
  H -2.19065156 -4.46859123 -0.28909169
  H -3.14454373 -3.75556183  1.01852026
  H -1.54165039 -4.45611657  1.36928680
  H -0.54154024 -2.51076320  0.52950619
  H  2.50025441 -2.36875851 -0.47461044
  H  4.95475382 -2.36537598 -0.31589396
  H  6.15661519 -0.32154850  0.36687558
  H  4.89021933  1.73074587  0.89447037
  H  2.43270167  1.74531752  0.74428091
  H -4.11119663  0.45875110  0.38837756
  H -5.14538034  2.63128542 -0.08953396
  H -3.82689360  4.44133273 -1.12762038
  H -1.45002800  4.05469945 -1.67839375
  H -0.41099883  1.88522674 -1.21570697
