25
opt_min/./Reactant_1771_1_opt.xyz
  C  5.50936300  0.42650100 -0.67965200
  O  4.30207585 -0.00558084 -0.06591410
  C  3.17898514  0.37269764 -0.67981605
  O  3.12200471  1.05477300 -1.68552694
  C  1.97655467 -0.06660520 -0.00487971
  N  0.74974116  0.23029119 -0.45366469
  C -0.19785462 -0.29301818  0.34793147
  C -1.61824164 -0.17276051  0.16688585
  C -2.48647422 -0.77313348  1.08648971
  C -3.85390598 -0.66584142  0.92543970
  C -4.38142160  0.03593922 -0.14623613
  C -3.52967401  0.63441447 -1.06293208
  C -2.16224986  0.53484791 -0.91365445
  C  0.52253690 -0.98289754  1.40122385
  O  0.15742761 -1.61049456  2.36111216
  O  1.87741913 -0.79415561  1.10906919
  H  5.55668435  1.51720865 -0.69711735
  H  6.31645409  0.01849515 -0.07740446
  H  5.56801278  0.05687272 -1.70505573
  H  0.61014085  0.77918715 -1.29244963
  H -2.07140474 -1.31802631  1.91858746
  H -4.50892824 -1.13489215  1.64386654
  H -5.45049437  0.11823824 -0.26978105
  H -3.94000810  1.18175207 -1.89877438
  H -1.51613527  1.00838346 -1.63894263
