36
opt_min/./Reactant_5047_1_opt.xyz
  C  3.18216300 -0.40815300 -3.24502100
  N  2.87149141 -0.21957672 -1.85053723
  C  1.61021615 -0.29879558 -1.38834515
  O  0.64942247 -0.48822745 -2.14349790
  C  1.39947064 -0.22487348  0.05127187
  O  0.15415257 -0.45329004  0.51388388
  C -0.95630943 -0.25598797 -0.11295423
  C -1.06542252  0.65082911 -1.30789901
  O -1.88040767  0.56036186 -2.18743037
  O -0.28179225  1.73111884 -1.11127383
  C -0.29738407  2.70177915 -2.14688912
  C -2.13206092 -0.86595620  0.46734219
  C -3.42216609 -0.61611320 -0.02214458
  C -4.51487570 -1.22968253  0.55669076
  C -4.35379310 -2.08797654  1.63385594
  C -3.08275375 -2.33802442  2.13216424
  C -1.98197641 -1.74166987  1.55690132
  C  2.35812002 -0.25528646  1.13505861
  O  2.04576447 -0.31103764  2.30369644
  O  3.66192445 -0.16833876  0.72972426
  C  4.64580673 -0.11725163  1.75568365
  H  2.24924014 -0.36183717 -3.80428549
  H  3.85664111  0.37910568 -3.58304366
  H  3.65146434 -1.37956968 -3.41839116
  H  3.62599155 -0.16353846 -1.18472046
  H  0.66025275  3.21648731 -2.10644577
  H -1.11319738  3.40901500 -1.98232091
  H -0.43513553  2.21238939 -3.11224288
  H -3.55697557  0.04586985 -0.86084674
  H -5.50297898 -1.03477568  0.16774828
  H -5.21429256 -2.56132633  2.08240269
  H -2.95338998 -3.00668276  2.97021566
  H -0.99285796 -1.93828062  1.94005373
  H  4.17231476 -0.28122000  2.72506720
  H  5.12319887  0.86322669  1.73534287
  H  5.38225975 -0.89595206  1.55847661
