36
opt_min/./Reactant_3002_1_opt.xyz
  C -2.92901962  0.38598381 -1.94013095
  O -2.60369127 -0.50182587 -0.89096861
  C -1.79084298  0.05351939  0.11532696
  O -2.44258415  1.07888481  0.81526581
  C -3.68117366  0.74042551  1.40009999
  C -0.53911960  0.62133051 -0.45641968
  C  0.65659186  0.46799617 -0.62206121
  C  2.05157475 -0.02491643 -0.49990685
  C  2.79136545  0.24023571 -1.81829687
  C  2.68491417  0.69878263  0.70579694
  C  4.19115203  0.70412467  0.80649593
  O  2.00678969  1.19360548  1.56877263
  C  2.18869439 -1.59065159 -0.17711791
  C  1.31547554 -2.27272640  0.93271549
  C  0.02553009 -1.49254689  0.72927016
  C -1.42972410 -1.22296375  1.06774757
  H -2.02441431  0.70233414 -2.47104489
  H -3.58075491 -0.16685106 -2.61380625
  H -3.44750109  1.27405947 -1.56603889
  H -3.54786695  0.18396477  2.33351315
  H -4.29554912  0.14624866  0.71806795
  H -4.17810016  1.68548414  1.61316513
  H  3.73931722 -0.29036351 -1.86995614
  H  2.96869554  1.30541280 -1.94539322
  H  2.17568470 -0.10454546 -2.64732191
  H  4.69638471  0.36792188 -0.09028839
  H  4.47133401  0.06352258  1.64221237
  H  4.51623029  1.71218272  1.05465588
  H  1.97697579 -2.10049930 -1.11835287
  H  3.24621492 -1.74433503  0.05334717
  H  1.25661594 -3.34358340  0.72782666
  H  1.75249602 -2.12891728  1.92068491
  H -0.06411416 -1.57095187 -0.35805989
  H  0.41902903 -0.53188980  1.05194632
  H -2.12164957 -2.00843056  0.76694523
  H -1.59346793 -0.94163588  2.10548100
