41
opt_min/./Reactant_2205_0_opt.xyz
  C -3.14563504  2.76211164  1.46395319
  O -3.12800118  1.39493750  1.09938467
  C -2.71451203  1.12529415 -0.20236578
  O -3.59543686  1.76780307 -1.10280708
  C -3.08532442  2.00637386 -2.38927125
  C -1.28583303  1.55678523 -0.35813653
  C -0.09324009  1.38347344 -0.16343831
  C  0.79909746  0.27653608  0.32361285
  C  1.85266034 -0.17698521 -0.64946868
  C  2.38091521  0.70560166 -1.58067321
  C  3.36567894  0.28108059 -2.45508612
  C  3.82653441 -1.02296237 -2.40170784
  C  3.30173263 -1.90419474 -1.47089922
  C  2.31640845 -1.48548356 -0.59585362
  C  1.45108388  0.62459284  1.66002213
  F  2.63579794  1.24179826  1.52232549
  F  1.68176574 -0.47559010  2.39681086
  F  0.69641139  1.43178133  2.42208945
  C -0.44845253 -0.66754156  0.48508269
  C -1.06966948 -2.01783508  0.80942385
  C -2.56251748 -1.54381021  0.68914982
  C -2.94587670 -0.46097310 -0.37601116
  H -2.13957590  3.19047090  1.39469541
  H -3.83035564  3.32701220  0.82684653
  H -3.48881096  2.78812492  2.49517392
  H -3.85070284  2.57477830 -2.91379511
  H -2.88833948  1.07515754 -2.93167241
  H -2.15636991  2.58884873 -2.34199307
  H  2.01861081  1.72278862 -1.61858063
  H  3.77440774  0.97170396 -3.17732614
  H  4.59586496 -1.35280438 -3.08384580
  H  3.66197075 -2.92118220 -1.42568659
  H  1.90730555 -2.16303067  0.13816757
  H -1.04148319 -0.04144455  1.15036340
  H -0.79339089 -0.59169654 -0.54150690
  H -0.88253291 -2.40492633  1.80907223
  H -0.82860795 -2.78519114  0.07374987
  H -2.85984346 -1.14210388  1.65879929
  H -3.19172167 -2.40922165  0.47808696
  H -2.57893300 -0.74245583 -1.36542658
  H -4.03797080 -0.48025553 -0.41999174
