18
opt_min/./Reactant_1748_1_opt.xyz
  N  3.80926600  0.13950800  0.30283000
  C  2.66652953  0.25294796  0.29701498
  C  1.27591249  0.37724261  0.27666239
  C  0.45586499  0.54216895  1.32467212
  C -0.95140260  0.48450282  0.80040211
  C -1.17148362 -1.00607311  0.42979969
  C -0.24110296 -1.19499436 -0.78953512
  C  0.40819412  0.19710483 -0.95118480
  C -0.76749008  1.11363001 -0.58595957
  H  0.73266119  0.62997580  2.35784459
  H -1.72302658  0.91249734  1.44024122
  H -0.90212356 -1.65998294  1.25350935
  H -2.21127590 -1.19330654  0.17340926
  H  0.50078611 -1.97450553 -0.63055902
  H -0.80948041 -1.44262610 -1.68412796
  H  0.90233710  0.37394014 -1.90731128
  H -0.48590432  2.16348992 -0.53530761
  H -1.63054368  0.98165386 -1.23275826
