10
opt_min/./Reactant_4205_1_opt.xyz
  O  2.88813886 -0.84774211  0.48997442
  C  2.68168424 -0.14624264 -0.38986376
  O  2.49208182  0.54764875 -1.27844383
  C -0.31413785 -0.29709990  0.46454335
  C -0.73310309  0.41968892 -0.39372496
  C -3.79772233  0.43158280  0.24994151
  O -3.66462852 -0.25930557  1.15124716
  O -3.94723710  1.13751483 -0.63824282
  H  0.04780268 -0.92551819  1.22419397
  H -1.09294272  1.05056629 -1.15241565
