35
opt_min/./Reactant_1906_1_opt.xyz
  C  1.67251298  1.61730834  1.36899361
  C  0.77519151  0.60922925  0.63734564
  C  1.56143335 -0.25627151 -0.33506945
  C  2.81266646 -0.74882909  0.01745931
  C  3.50004530 -1.60529478 -0.82358258
  C  2.94685920 -1.99050794 -2.03291902
  C  1.70395564 -1.50481872 -2.39377553
  C  1.01761166 -0.64820282 -1.55267302
  C -0.29028502  1.30481275 -0.04022355
  C -1.37842536  1.62978487 -0.41895553
  C -2.79740195  1.47749425 -0.67577326
  C -3.55093305  2.29503271  0.25957517
  N -4.12107281  2.92168434  1.02480290
  C -3.15040482  1.83688889 -2.03548914
  N -3.40865187  2.09606550 -3.11712396
  C -3.06746509 -0.03697988 -0.43562156
  C -2.58912194 -0.64324805  0.89832244
  C -1.15021546 -1.16210923  1.15612427
  C  0.00873663 -0.27412219  1.65243827
  H  2.30718012  1.12524883  2.10202641
  H  2.30308815  2.14220852  0.65363444
  H  1.05571899  2.34970701  1.88854940
  H  3.26565683 -0.46879869  0.95685859
  H  4.47243599 -1.97324864 -0.53127649
  H  3.47950163 -2.66429556 -2.68618031
  H  1.26146381 -1.79490363 -3.33693271
  H  0.05401974 -0.26429068 -1.85355451
  H -2.64190316 -0.60509563 -1.26694393
  H -4.15393177 -0.17649591 -0.46794580
  H -3.18362847 -1.56346317  0.95570778
  H -2.90213887 -0.00460981  1.72873737
  H -0.82038700 -1.76842372  0.30842925
  H -1.30178681 -1.84546780  2.00017666
  H  0.74399120 -0.96271410  2.08323555
  H -0.35967659  0.35093855  2.47008200
