34
opt_min/./Reactant_1196_1_opt.xyz
  C -1.01007200  2.71136800 -0.12900700
  C  0.15541049  1.76833490 -0.34189293
  O  1.24991711  2.20258193 -0.66475497
  C -0.14454923  0.34837765 -0.23736054
  C -1.54098932 -0.09323312 -0.04654864
  C -1.92324897 -0.66982248  1.16140255
  C -3.23186635 -1.07102331  1.35919510
  C -4.17102038 -0.90543599  0.35473367
  C -3.79842054 -0.33568951 -0.85084600
  C -2.49124246  0.06865854 -1.05325555
  N  0.80770161 -0.57241067 -0.45104478
  C  0.41924602 -1.91805419 -0.85773941
  C  2.11234213 -0.32116451 -0.19908438
  C  3.17075542 -0.96314899 -1.04186967
  C  2.43321424  0.39684584  1.01152378
  C  3.90319076  0.54471085  1.34542481
  O  1.58194556  0.79430734  1.79702664
  H -0.62428485  3.62305865  0.32485312
  H -1.78160139  2.28291671  0.50240893
  H -1.44201529  2.97641634 -1.09320100
  H -1.18642317 -0.78465717  1.94260391
  H -3.52055790 -1.51013964  2.30279521
  H -5.19204691 -1.21922267  0.51465092
  H -4.52718279 -0.20723745 -1.63757318
  H -2.20074122  0.51107252 -1.99495735
  H  0.63943665 -2.61296660 -0.04571389
  H  0.97169974 -2.23352435 -1.74036304
  H -0.64412684 -1.95287645 -1.08056594
  H  3.63209070 -1.83190182 -0.56624121
  H  3.95405624 -0.23081756 -1.23666020
  H  2.76641140 -1.27370499 -2.00120628
  H  4.27715405  1.41933041  0.81543772
  H  4.00146737  0.72113287  2.41580364
  H  4.49133915 -0.32157139  1.05954218
