35
opt_min/./Reactant_2715_0_opt.xyz
  C -3.02874061  3.13582171 -0.11592706
  N -2.16454977  1.98405208  0.01027056
  C -1.23149022  1.69812848 -0.91895896
  O -1.04841505  2.36970456 -1.90502055
  C -0.39075454  0.43354682 -0.61932262
  C -1.28750181 -0.81290043 -0.63872258
  O -1.36962371 -1.54394845 -1.59607343
  N -1.97737452 -1.01184928  0.50968634
  C -2.88047500 -2.13033032  0.66654236
  C  0.34288965  0.55354993  0.61307791
  C  1.25312183  0.59484706  1.39962048
  C  2.62416985  0.31210345  1.78634460
  F  2.69071138 -0.62346054  2.81387327
  C  3.29944979  1.52922694  2.21095095
  N  3.81645517  2.49653709  2.52809885
  C  3.28754765 -0.28037370  0.51163815
  C  2.39060690 -1.28291342 -0.24084835
  C  1.72326361 -0.84895618 -1.56176436
  C  0.72488533  0.32091103 -1.68727532
  H -2.57243071  3.82489801 -0.82448818
  H -3.14478124  3.62487324  0.84944477
  H -4.01090988  2.84323960 -0.49421932
  H -2.23143034  1.44607443  0.85754730
  H -1.70340470 -0.51843689  1.34492441
  H -2.72264516 -2.61401568  1.62916112
  H -3.91810320 -1.79709365  0.59541979
  H -2.68425442 -2.83984915 -0.13581099
  H  3.58931573  0.54247066 -0.13807871
  H  4.19192910 -0.79241299  0.85136449
  H  3.02883201 -2.12509099 -0.52279397
  H  1.64237562 -1.68641596  0.44203837
  H  2.52051255 -0.63508004 -2.27650296
  H  1.20190241 -1.74215517 -1.91310372
  H  0.22834622  0.19085337 -2.64927709
  H  1.25230206  1.27547844 -1.70818591
