17
opt_min/./Reactant_17_1_opt.xyz
  C -3.06630800  0.51123700  0.41348700
  C -2.37855907  0.09881880 -0.86486612
  O -2.98077094 -0.13722958 -1.89294293
  C -0.92408221  0.01186147 -0.81933021
  O -0.31618912  0.24930017  0.29315559
  C  0.96012781  0.22551708  0.55917875
  C  2.02500957 -0.06251781 -0.36811411
  C  3.41861495 -0.02113443  0.22024671
  O  1.83160083 -0.30986518 -1.54925359
  H -4.11145578  0.21656573  0.37535383
  H -2.58267664  0.07369877  1.28208967
  H -3.01758758  1.59627753  0.50002178
  H -0.38717333 -0.24973388 -1.72207806
  H  1.17085452  0.46235670  1.59238989
  H  3.99008056 -0.86216287 -0.16617052
  H  3.40559838 -0.04772772  1.30473591
  H  3.91217077  0.89041001 -0.11296411
