41
opt_min/./Reactant_2625_0_opt.xyz
  C  0.70964100 -1.72945100 -0.50122000
  N  0.45676097 -0.34005763 -0.15577192
  C  1.48129333  0.50180889  0.04099775
  C  2.85861234  0.37173962 -0.29819968
  C  3.75581223  1.23617032  0.36468718
  C  5.10812819  1.19935978  0.12324391
  C  5.63097766  0.31098672 -0.80765434
  C  4.76701453 -0.51995186 -1.50183463
  C  3.40883520 -0.49651304 -1.25958518
  C -0.82809057  0.07569310 -0.06163675
  C -1.16578956  1.47130557 -0.32095471
  C -2.18294673  2.09841636  0.40584632
  C -2.55986103  3.39660212  0.12007504
  C -1.93712933  4.09773774 -0.89918426
  C -0.93160679  3.48788850 -1.63296173
  C -0.54434158  2.19589864 -1.34776488
  C -1.88865607 -0.81261313  0.38503127
  C -3.15598045 -0.75202868 -0.21175168
  C -4.18613889 -1.55708726  0.22710020
  C -3.98890521 -2.44452151  1.27465407
  C -2.74747840 -2.50412281  1.88785441
  C -1.71262440 -1.69898569  1.45543668
  H  0.79787283 -1.83223693 -1.58380375
  H -0.12226363 -2.34825306 -0.18319355
  H  1.62670048 -2.07431405 -0.02643290
  H  1.20310031  1.43106262  0.51761158
  H  3.35935622  1.93536655  1.08807824
  H  5.76662704  1.86765722  0.65948631
  H  6.69147637  0.28054525 -0.99922790
  H  5.15643808 -1.19352246 -2.25187750
  H  2.77496792 -1.12629125 -1.86236116
  H -2.66719964  1.55908755  1.20523575
  H -3.34106354  3.86640366  0.69896370
  H -2.23111706  5.11356755 -1.12069882
  H -0.44847384  4.02562975 -2.43571659
  H  0.23590928  1.73018428 -1.93205005
  H -3.31611311 -0.06946498 -1.03119401
  H -5.15163107 -1.49817162 -0.25397749
  H -4.79516526 -3.07260999  1.61686267
  H -2.58837859 -3.17418428  2.72039762
  H -0.76570294 -1.72682850  1.97816014
