14
opt_min/./Reactant_916_0_opt.xyz
  C -2.16610997  0.29284505  2.61271101
  C -1.17747426 -0.00943140  1.60769456
  C -0.35748981 -0.28351324  0.77291228
  C  0.65817462 -0.65015054 -0.18505712
  O  1.40420429 -1.59588974 -0.03305324
  N  0.70771694  0.19171490 -1.24494396
  C  1.64811226  0.00896115 -2.32562250
  H -3.16524607  0.22642944  2.18700743
  H -2.07565040 -0.40654006  3.44049942
  H -2.01477252  1.30219693  2.98942404
  H  0.06697051  0.96272382 -1.30663005
  H  1.14221946 -0.33030713 -3.23160255
  H  2.36259957 -0.74644486 -2.01004637
  H  2.16897604  0.94241602 -2.53384344
