22
opt_min/./Reactant_4389_0_opt.xyz
  C  1.92876826 -2.27598236  0.58247452
  N  1.21281040 -1.14888025  0.03062105
  C  1.54196450  0.13644266  0.42081451
  O  2.31998921  0.34875147  1.33041482
  C  0.91138501  1.19247806 -0.36791303
  C  1.66536008  2.33851654 -0.61299499
  N  2.24228571  3.30342109 -0.86883845
  N -0.30105233  1.17202749 -1.00361930
  C -1.41976219  0.50483115 -0.84053204
  C -2.54493579  0.77694270 -1.78329475
  C -1.69296760 -0.41390919  0.29844282
  H  1.23653122 -3.09546234  0.77899615
  H  2.38239481 -1.94514910  1.51510769
  H  2.71764982 -2.62544588 -0.08875834
  H  0.83889462 -1.27818775 -0.89736763
  H -0.34642323  1.89135542 -1.72510550
  H -3.41978734  1.12489148 -1.23352727
  H -2.28096269  1.52812048 -2.52513517
  H -2.83621209 -0.13417658 -2.30698217
  H -0.79377979 -0.88397828  0.68399956
  H -2.14323873  0.15323822  1.11655743
  H -2.40259475 -1.18167033 -0.00188126
