24
opt_min/./Reactant_1655_1_opt.xyz
  C -2.43550619  0.27528266 -0.53740148
  C -1.57646556  0.28444728  0.73882214
  C -2.43031787  0.47023030  1.89546111
  N -3.10373318  0.66937470  2.79746053
  C -0.54449669  1.30917520  0.72619045
  C  0.55433246  1.79540132  0.69327793
  C  1.97264228  1.74930542  0.40616262
  C  2.23514178  0.23576483  0.20915439
  C  1.24973398 -0.41332698 -0.78326502
  C  0.22012745 -1.40910681 -0.20963771
  C -0.74445186 -1.01773068  0.92688224
  H -1.90004208  0.74670549 -1.35820537
  H -2.67577728 -0.74698517 -0.81953663
  H -3.36721995  0.81537417 -0.37906184
  H  2.57581338  2.13794075  1.22721820
  H  2.21029584  2.30584742 -0.50220750
  H  2.14026339 -0.25161685  1.18127512
  H  3.26363347  0.10213566 -0.13488967
  H  1.82227190 -0.98811477 -1.51534490
  H  0.72631762  0.37038693 -1.33074800
  H -0.37115502 -1.76872635 -1.05590520
  H  0.78045024 -2.27140438  0.16486189
  H -1.43576469 -1.85231991  1.06998549
  H -0.17146373 -0.89923976  1.85080571
