23
opt_min/./Reactant_2135_0_opt.xyz
  C -3.71141500 -0.97459200  0.07463400
  C -2.62004195  0.02698853 -0.19497337
  O -2.83507669  1.16685658 -0.56981708
  C -1.25739663 -0.42662604  0.04070896
  N -0.31593878  0.46015563 -0.16261161
  C  1.01025867  0.55429015 -0.05071935
  C  1.93192171 -0.53121637  0.26329943
  C  1.42200930 -1.95138765  0.13883725
  O  3.09038622 -0.32621055  0.57406273
  C  1.45366545  1.93832798 -0.34428472
  C  2.89938101  2.28933531 -0.23531569
  O  0.60301924  2.75165712 -0.67319258
  H -3.97448730 -0.92193870  1.13060420
  H -4.59519417 -0.72302202 -0.50363127
  H -3.38902686 -1.98605212 -0.15268274
  H -1.05164638 -1.42167344  0.38859555
  H -0.70787128  1.38996586 -0.46904666
  H  0.85719183 -2.22578311  1.02792090
  H  2.28348176 -2.61208715  0.07452754
  H  0.79980813 -2.07620813 -0.74370776
  H  3.49179246  1.64489105 -0.88015543
  H  3.03866001  3.32995815 -0.51530705
  H  3.24591193  2.12408446  0.78185075
