27
opt_min/./Reactant_1932_1_opt.xyz
  C  2.90751043 -1.24781961  2.94753683
  N  1.89770063 -1.29543545  1.92210878
  C  1.96369913 -2.14041599  0.87454694
  O  2.85538896 -2.94252957  0.70736539
  C  0.76962836 -2.02560931 -0.07672491
  C  0.12010563 -0.74699595 -0.12656568
  C -0.39414868  0.20687539 -0.64510166
  C -1.05089343  0.94670556 -1.69010809
  F -0.17755636  1.77755209 -2.33890133
  F -2.05753070  1.76731530 -1.26566529
  C -1.60488178 -0.10007523 -2.67138454
  C -0.81443655 -1.33679670 -3.05467188
  C  0.15763084 -2.15184838 -2.63191464
  C  1.21129719 -2.22876911 -1.54611125
  H  3.45603930 -0.30454354  2.91293122
  H  2.45416858 -1.36684634  3.93233087
  H  3.59762308 -2.07008247  2.76615030
  H  1.14522878 -0.62405850  1.96661942
  H  0.04941239 -2.80331552  0.20703013
  H -1.78913734  0.43204161 -3.60977630
  H -2.57461795 -0.41742720 -2.27379197
  H -1.29145525 -1.71811126 -3.95579324
  H -1.00690025 -5.33016787 -2.50361852
  H  0.39731526 -2.90187438 -3.38198964
  H -0.77333688 -4.59638033 -2.62216232
  H  1.66583847 -3.22105356 -1.59589006
  H  1.99141358 -1.49631049 -1.77305291
