26
opt_min/./Reactant_5745_0_opt.xyz
  C  0.71601900  1.41228200  0.33446500
  O  1.02052063  2.54485557  0.65430510
  C -0.56689778  1.13148724 -0.35591294
  O -1.23225654  2.28027051 -0.59905463
  C -2.61646206  2.29154050 -0.87806554
  C -0.94146115 -0.14047578 -0.69271508
  O -2.09982346 -0.30674581 -1.40030593
  C -2.70964064 -1.57459162 -1.54527673
  C -0.06130132 -1.28096871 -0.37987318
  O -0.34796982 -2.43040551 -0.68135685
  C  1.21615849 -0.99423178  0.31557953
  C  2.06957892 -2.17907125  0.62631708
  C  1.59750133  0.26016302  0.62066686
  C  2.90072876  0.57007400  1.27865565
  H -2.90236447  3.34174569 -0.84703222
  H -2.83276651  1.87975510 -1.86488008
  H -3.18085408  1.73885368 -0.12390323
  H -3.67989734 -1.36172749 -1.99286445
  H -2.13431773 -2.22469855 -2.20697995
  H -2.85007701 -2.07672685 -0.58659533
  H  2.35947383 -2.18085254  1.67408743
  H  1.52777598 -3.09153269  0.39506246
  H  2.97983558 -2.15317521  0.02939385
  H  2.96061217  0.09160104  2.25504153
  H  2.99617005  1.64413095  1.40461572
  H  3.72890429  0.20016147  0.67830325
