10
opt_min/./Reactant_528_0_opt.xyz
  C -1.57331548  0.42353535  1.38328934
  O -1.90389489 -2.03227552  1.50118093
  C -1.91001206 -0.78844407  1.15670701
  O -2.20805188  1.57385934  2.14225385
  C -1.14938127  1.72648127  1.02422031
  C -0.58838407  2.64246125  0.27331906
  F -0.57848694  3.94039847  0.61815800
  H -1.51013708 -2.21922185  2.36118518
  H -4.50827224  7.11303087  2.71298836
  H -0.31998655  2.44939945 -0.77220291
