20
opt_min/./Reactant_1431_0_opt.xyz
  C  2.20563500 -0.57440000 -1.01357600
  O  1.06929441 -0.95907186 -0.28386399
  C  0.11111974  0.00682064 -0.02575490
  C  0.45721037  1.45767222 -0.17272906
  C -1.08401383 -0.41255307  0.41471677
  C -1.43131836 -1.86097247  0.60106502
  O -2.00888550  0.54936713  0.79996408
  C -3.36260198  0.25078102  0.55835583
  H  2.77514205 -1.49017363 -1.16519453
  H  1.94456819 -0.15203763 -1.98886295
  H  2.82624056  0.14228930 -0.46618366
  H -0.38226765  2.04692517  0.17812475
  H  0.65930252  1.71305483 -1.21281391
  H  1.33282994  1.70576796  0.42434210
  H -0.54038523 -2.45622897  0.43943512
  H -2.20057629 -2.17934806 -0.10272364
  H -1.79616377 -2.03031078  1.61305565
  H -3.91620143  1.15061075  0.82143013
  H -3.54030870  0.01625011 -0.49670453
  H -3.71924042 -0.57856741  1.17710707
