15
opt_min/./Reactant_241_0_opt.xyz
  C -2.15858400 -0.35886300  0.32677300
  C -1.57569252  1.00287466  0.33450162
  N -0.41100913  1.25330456  0.87021413
  N  0.30986186  0.45357281  1.60575995
  C  1.20734610 -0.46107245  1.23662691
  C  1.42937953 -0.62663724 -0.27432443
  O  1.81761507 -1.14648792  2.02846636
  H -3.20970757 -0.32272276  0.60173554
  H -2.09291711 -0.80234841 -0.66780452
  H -1.61464191 -0.99029426  1.02529543
  H -2.12360048  1.82544219 -0.09626256
  H -0.10388788  2.23404701  0.85478129
  H  1.08794831  0.23239069 -0.84816139
  H  2.48992694 -0.78761722 -0.44471576
  H  0.89866340 -1.51430485 -0.60888909
