28
opt_min/./Reactant_1434_0_opt.xyz
  C  3.12098500 -2.11410600 -0.30059800
  N  1.91094830 -1.32850842 -0.26895999
  C  1.94053581  0.00759682  0.01225512
  O  2.98456187  0.57922595  0.26693068
  C  0.60895122  0.66150420  0.01291061
  N -0.44974122 -0.13012384  0.24338205
  C -1.75941738  0.00729773  0.05691296
  C -2.35398146  1.16472000 -0.64230179
  C -2.48665019 -1.17338924  0.50245610
  C -3.98242122 -1.19115678  0.36631467
  O -1.85927775 -2.12667002  0.96015418
  C  0.47859651  2.11802573  0.01609162
  C  1.56490390  2.89754201 -0.67069251
  O -0.45043515  2.66534654  0.59154354
  H  3.47998558 -2.26075571 -1.32307749
  H  2.93784987 -3.08512455  0.15994777
  H  3.88004460 -1.57389860  0.26296755
  H  1.09554314 -1.74641454 -0.68964385
  H -0.26399180 -1.06334754  0.64996799
  H -3.39007300  0.98389969 -0.90731854
  H -1.77452185  1.37915227 -1.54394951
  H -2.28393437  2.06513766 -0.02091441
  H -4.41451267 -0.31408082  0.84276383
  H -4.37022425 -2.09190916  0.83582649
  H -4.26458578 -1.19250333 -0.68565418
  H  1.66364688  2.58015901 -1.70671453
  H  2.51067887  2.70183981 -0.16951081
  H  1.33503117  3.95931492 -0.62541415
