37
opt_min/./Reactant_5833_1_opt.xyz
  C  4.96207800 -1.20174800  1.23500700
  O  3.67259973 -0.78266936  0.82867704
  C  2.79869818 -1.78314232  0.46795603
  O  3.12525998 -2.95719878  0.50366472
  C  1.49501636 -1.36470756  0.09512853
  N  0.99083393 -0.11953085 -0.03260017
  C  1.91996649  0.99584610 -0.09889491
  C -0.30501620  0.13340559 -0.15332279
  C -1.34856709 -0.85972637  0.09335314
  C -1.30418829 -1.71008011  1.20348999
  C -2.33786497 -2.58818516  1.45507464
  C -3.43494744 -2.64136947  0.60877603
  C -3.49858686 -1.79300735 -0.48301226
  C -2.47224054 -0.90209205 -0.73447934
  C -0.80251561  1.47217723 -0.54173171
  C -0.74157511  1.90432485 -1.86452149
  C -1.26692040  3.13277680 -2.22415207
  C -1.86103911  3.94032899 -1.26916554
  C -1.93066946  3.51452629  0.04717482
  C -1.40834720  2.28701511  0.40975786
  H  4.92580524 -2.24158262  1.56602575
  H  5.66028492 -1.11749646  0.39826450
  H  5.27615474 -0.54729399  2.04681349
  H  0.80214337 -2.17689049 -0.05799173
  H  2.77181931  0.72846038 -0.71981702
  H  2.29071926  1.22744713  0.89966787
  H  1.42586169  1.87377417 -0.50884740
  H -0.46205314 -1.66845283  1.87791927
  H -2.29544550 -3.23618556  2.31790261
  H -4.23882502 -3.33583651  0.80154767
  H -4.35087031 -1.82027578 -1.14576418
  H -2.53166434 -0.23935031 -1.58487153
  H -0.27793506  1.27489985 -2.61100032
  H -1.21502839  3.45341029 -3.25407581
  H -2.27227448  4.89820118 -1.54980305
  H -2.39651401  4.14522725  0.78955011
  H -1.46982453  1.94908862  1.43397051
