31
opt_min/./Reactant_4611_1_opt.xyz
  C -4.06341200  2.71593700 -0.32409100
  N -3.33657614  1.49800638 -0.08071331
  C -1.98952920  1.45989903 -0.07977842
  O -1.30674428  2.44701992 -0.34066860
  C -1.38880289  0.15061653  0.22965108
  N -0.03628631 -0.00552922  0.21776335
  C  0.92351250  0.83727187 -0.05175909
  C  2.31473359  0.48329733 -0.02458670
  C  2.78779803 -0.78911830  0.32739093
  C  4.14055330 -1.06076658  0.33201107
  C  5.05647666 -0.07861918 -0.01242152
  C  4.60660143  1.18573848 -0.36199504
  C  3.25602925  1.46458068 -0.36753685
  C -2.15170231 -1.01171607  0.56905141
  O -3.36832646 -1.09949347  0.62351104
  O -1.34844053 -2.09472741  0.84288347
  C -1.99157849 -3.31030179  1.18235825
  H -4.89757932  2.52062556 -0.99734666
  H -4.44815955  3.13795807  0.60953944
  H -3.38149607  3.43457254 -0.77775509
  H -3.85341016  0.66029417  0.15565607
  H  0.23824231 -0.96105699  0.45534358
  H  0.63673883  1.84800296 -0.30498301
  H  2.09915187 -1.57624866  0.60419234
  H  4.48747614 -2.04668933  0.60692371
  H  6.11356572 -0.29730535 -0.00810752
  H  5.31503373  1.95514361 -0.62985732
  H  2.90470204  2.44881829 -0.64011859
  H -3.07022767 -3.15054146  1.23892062
  H -1.60826233 -3.63987424  2.14863043
  H -1.76437794 -4.05365998  0.41646028
