18
opt_min/./Reactant_2434_1_opt.xyz
  C  3.76303000  0.56189200 -0.39228700
  O  2.74846696 -0.28353390  0.12597289
  C  1.48477553  0.08778729 -0.08165682
  O  1.16179876  1.06373800 -0.69451970
  C  0.56393027 -0.89900423  0.56278317
 Br  1.48035274 -2.28684071  1.43669835
  C -0.78363197 -0.89245067  0.58173506
 Br -1.68614998 -2.27419735  1.48497075
  C -1.71666709  0.09717232 -0.04024606
  O -1.39994744  1.05589489 -0.68338019
  O -2.97485137 -0.25916535  0.21820905
  C -4.01334705  0.56084467 -0.29458954
  H  4.03486839  1.30903590  0.35584189
  H  4.61735229 -0.07464250 -0.61157099
  H  3.41028983  1.06584689 -1.29407996
  H -3.60474117  1.28641520 -1.00056919
  H -4.49360915  1.08010263  0.53548962
  H -4.73262242 -0.09139842 -0.78846547
