17
opt_min/./Reactant_4346_1_opt.xyz
  C -4.01992953 -0.60483765 -0.44670217
  N -2.75872315 -0.06428837 -0.00562181
  C -1.58144625 -0.62231772 -0.35792773
  O -1.43629439 -1.56528537 -1.09732294
  N -0.53198260  0.08529436  0.25581012
  N  0.63668195 -0.15649122  0.02670146
  C  1.79022470 -0.28275134 -0.12410371
  C  3.20161691 -0.37361133 -0.24533340
  C  3.92840067  0.61420509  0.63968703
  O  3.75119683 -1.15565009 -0.98462577
  H -4.44749060 -1.27822566  0.30188708
  H -3.84300872 -1.17168101 -1.36014420
  H -4.72134898  0.20431533 -0.64367606
  H -2.74998508  0.71074968  0.63669034
  H  3.52729343  0.59770215  1.65038383
  H  4.98714595  0.36741837  0.65242323
  H  3.80084800  1.61753467  0.23586498
