27
opt_min/./Reactant_3841_1_opt.xyz
  N  0.56273109  2.89975162  3.27373941
  C  0.14553523  2.28303876  2.39539056
  C -0.34919440  1.57224590  1.29914256
  N  0.32017634  0.51611633  0.92830227
  C  0.94601250 -0.41193729  0.57155570
  C  1.68114634 -1.50888495  0.14600365
  C  2.01672932 -2.52756842  1.05539119
  C  2.75458787 -3.60836913  0.62171426
  C  3.16144110 -3.69684399 -0.70136837
  C  2.83123941 -2.69594643 -1.60469913
  C  2.09708640 -1.60417384 -1.19243462
  C -1.56479725  1.96958908  0.60780110
  C -2.22907659  3.13723184  0.98588771
  C -3.41731376  3.48707489  0.37405718
  C -3.95498731  2.68601970 -0.62045406
  C -3.29458019  1.53157811 -1.00533907
  C -2.10712051  1.16734398 -0.40047082
  H  1.69298334 -2.44891413  2.08163220
  H  3.00492305 -4.39761757  1.31506416
  H  3.73829651 -4.55003918 -1.02564335
  H  3.16457299 -2.76811762 -2.62847205
  H  1.84295797 -0.82120259 -1.89018343
  H -1.81602977  3.76279595  1.76344956
  H -3.92807453  4.38863999  0.67793309
  H -4.88822515  2.96380771 -1.08804326
  H -3.70773630  0.89916189 -1.77930292
  H -1.60716739  0.25805708 -0.70176524
