40
opt_min/./Reactant_2383_0_opt.xyz
  C  0.56583000  2.50682700 -2.99926000
  N  0.56061860  1.31752661 -2.18072444
  C  1.44373149  1.17219109 -1.15854063
  O  2.37269671  1.93153306 -0.98649104
  C  1.27331540 -0.10849731 -0.39907184
  O  0.12880662 -0.62364236 -0.04191427
  C -1.09910863 -0.10499491  0.04045581
  C -1.26273334  1.33159459  0.16138647
  O -0.33794205  2.09957231  0.35532479
  O -2.54152399  1.75950328  0.05795901
  C -2.72693051  3.15256711  0.24896418
  C -2.12975817 -1.11106254  0.21970043
  C -3.38270180 -0.84020964  0.77914460
  C -4.31536322 -1.84648546  0.93271079
  C -4.02770580 -3.14502394  0.54407587
  C -2.78812805 -3.43019846 -0.00585176
  C -1.85324182 -2.42971780 -0.17154335
  C  2.42230999 -0.94370544 -0.12244643
  C  2.27818298 -2.07759807  0.69480899
  C  3.35638406 -2.89301891  0.96347305
  C  4.60554026 -2.59875592  0.43790230
  C  4.76464580 -1.47758851 -0.36190212
  C  3.69103513 -0.65894874 -0.64746279
  H  0.10453169  2.29039100 -3.95988495
  H  1.59964253  2.81891081 -3.14236438
  H  0.02881864  3.32276749 -2.50762202
  H -0.21369426  0.68277901 -2.28717212
  H -2.48148945  3.43405180  1.27536173
  H -2.08452036  3.72008691 -0.42805565
  H -3.77541272  3.34884614  0.03917787
  H -3.62093897  0.15828812  1.10311275
  H -5.27664713 -1.61582212  1.36826838
  H -4.76135569 -3.92723753  0.66826207
  H -2.55166140 -4.43806901 -0.31458488
  H -0.89588430 -2.66330210 -0.61422881
  H  1.31418918 -2.30481380  1.12417676
  H  3.22615849 -3.76007177  1.59461680
  H  5.44957795 -3.23607495  0.65547805
  H  5.73605443 -1.24143429 -0.77017187
  H  3.82809076  0.21179635 -1.26609292
