18
opt_min/./Reactant_2977_1_opt.xyz
  C -3.13289800  1.01184442  1.40865048
  O -1.92915273  0.52980803  0.82826006
  C -2.03761699 -0.24613494 -0.26100882
  O -3.07047772 -0.58069726 -0.77806057
  C -0.70174865 -0.66347915 -0.72755395
  C -0.57330131 -1.56745305 -1.79471241
  N -0.45748639 -2.32242357 -2.65004021
  N  0.35989693 -0.20791487 -0.15424726
  C  1.32293957  0.22839378  0.35737771
  C  2.49432999  0.71255359  0.97591437
  C  3.74209494  0.16937951  0.31990722
  O  2.47401546  1.48043872  1.91224348
  H -3.98765525  0.46113016  1.01275440
  H -3.05294445  0.87305510  2.48612351
  H -3.23613807  2.07340488  1.17624952
  H  3.63872254 -0.88848183  0.08829408
  H  4.58799645  0.32928882  0.98410337
  H  3.91885070  0.70931658 -0.61084399
