39
opt_min/./Reactant_2999_0_opt.xyz
  C  4.08372358 -1.03704862 -0.11557666
  O  2.98195424 -0.53012636  0.60326749
  C  2.04320077  0.22658991 -0.11753703
  O  2.56349831  1.47884120 -0.51705276
  C  3.06567448  2.26233751  0.54417023
  C  0.85179562  0.32615249  0.70865767
  C -0.28970498  0.14695433  1.02880422
  C -1.61645154 -0.41355896  1.07895395
  C -2.03207214 -0.65681584  2.44780830
  N -2.35609782 -0.88263165  3.52017349
  C -2.65297289  0.41687868  0.34429296
  C -4.00067597  0.22684775  0.62335289
  C -4.96271184  0.92930653 -0.08022227
  C -4.58762070  1.82387277 -1.06751816
  C -3.24522327  2.01843825 -1.34427793
  C -2.27938606  1.32021186 -0.64031765
  C -1.41832895 -1.79647984  0.38590267
  C -0.81668833 -1.82216042 -1.02939193
  C  0.69451167 -1.72457024 -1.35870560
  C  1.51201982 -0.42183720 -1.42048030
  H  3.79273638 -1.85328003 -0.78355356
  H  4.76975478 -1.42232509  0.63889123
  H  4.57895366 -0.25067295 -0.69585412
  H  3.85377594  1.73792544  1.09242134
  H  2.26191642  2.52443681  1.24283669
  H  3.46750517  3.16312491  0.08439565
  H -4.29891337 -0.47060955  1.39420648
  H -6.00853950  0.77694998  0.14568900
  H -5.33994238  2.37058046 -1.61709107
  H -2.94566580  2.71835856 -2.11051889
  H -1.23184604  1.48036664 -0.84640539
  H -2.41531389 -2.24431112  0.30263057
  H -0.82065143 -2.43024127  1.04636006
  H -1.05971716 -2.83736035 -1.36873357
  H -1.37250843 -1.13693680 -1.67619392
  H  0.71819305 -2.06493179 -2.40193138
  H  1.23467654 -2.47211759 -0.77072307
  H  2.38931644 -0.62623772 -2.03906835
  H  0.93792471  0.35260637 -1.93356138
