20
opt_min/./Reactant_1112_0_opt.xyz
  C  4.34879000 -0.24618700 -0.01005600
  O  3.02048856  0.14757339  0.31524961
  C  2.04640003 -0.45004117 -0.36768867
  O  2.19980051 -1.29325676 -1.22285545
  C  0.72313854  0.01481126  0.03854524
  N -0.39209082 -0.48096827 -0.54107480
  C -1.48092222  0.07656202 -0.02843223
  C -2.85095665 -0.23391268 -0.43718584
  C -3.91166745  0.51547655  0.30889366
  O -3.04615618 -1.05656310 -1.30828814
  O -1.13194314  0.95755172  0.90429052
  C  0.28124468  0.98300962  1.01537905
  O  0.83254595  1.70164838  1.79225570
  H  4.64251185  0.19510312 -0.96574004
  H  4.41255530 -1.33262194 -0.09166077
  H  4.98041771  0.12794020  0.79122951
  H -0.40109992 -1.18624080 -1.27330355
  H -4.87371340  0.36267417 -0.17329801
  H -3.66704733  1.57403001  0.34823863
  H -3.95493051  0.14736771  1.33315067
