29
opt_min/./Reactant_1290_0_opt.xyz
  C  5.03418700 -0.02969300  0.17838800
  O  3.61804525  0.08913973  0.18815079
  C  2.96772292 -0.42431589 -0.87602962
  O  3.54004783 -0.94409988 -1.80625114
  C  1.51234664 -0.29859729 -0.85688584
  N  0.73775939  0.31737507  0.00420651
  C  1.31851499  1.08649672  1.08654325
  C -0.62621543  0.19068467 -0.05108843
  C -1.44354331  1.33559094  0.33045760
  O -1.00190004  2.45669583  0.50604122
  O -2.75385920  1.06547244  0.43701783
  C -3.58353175  2.17830386  0.72533763
  C -1.16416640 -1.09485066 -0.49254857
  O -0.47595003 -2.07109432 -0.71958124
  O -2.50182318 -1.13911132 -0.53557819
  C -3.06583982 -2.39893903 -0.86395284
  H  5.42022979  0.79792495  0.76969893
  H  5.40894939  0.01595033 -0.84555208
  H  5.32855160 -0.98169965  0.62453527
  H  1.04769038 -0.80328270 -1.68938935
  H  1.92241893  1.90219760  0.69189647
  H  0.53827816  1.50080614  1.71534582
  H  1.96112429  0.43583293  1.67875530
  H -3.54172654  2.90629419 -0.08797797
  H -3.26264718  2.66887908  1.64742378
  H -4.58981901  1.78175311  0.83128433
  H -2.91574068 -2.61719439 -1.92403309
  H -4.12649176 -2.32021701 -0.63936368
  H -2.60125034 -3.19245047 -0.27510879
