47
opt_min/./Reactant_2888_0_opt.xyz
  C  5.51420267 -0.29774894 -0.53859758
  O  4.29005390  0.34160060 -0.19747613
  C  3.40760857 -0.40288508  0.46836593
  O  3.57260413 -1.55054514  0.76964447
  C  2.15817640  0.41849505  0.82066215
  C  2.41010993  0.98549416  2.12918437
  N  2.59809709  1.38581202  3.18297917
  C  0.94500337 -0.38285693  0.85141811
  C -0.14525611 -0.69120578  0.45358550
  C -1.42637160 -0.54633403 -0.22057805
  C -2.47741205  0.02139494  0.71027453
  C -2.31033088 -0.03155956  2.08738626
  C -3.26930160  0.49479422  2.93553026
  C -4.41126732  1.07972245  2.41820885
  C -4.59078068  1.12916161  1.04607913
  C -3.63292406  0.60359238  0.19829220
  C -1.84634011 -1.85547051 -0.87225523
  C -0.90791707 -2.56146487 -1.61801798
  C -1.24477838 -3.75081263 -2.23658432
  C -2.52651912 -4.25932919 -2.11381280
  C -3.45978946 -3.57508576 -1.35644059
  C -3.12247715 -2.38357629 -0.73649445
  C -1.04560062  0.48735691 -1.33372425
  C -0.71405276  1.92022780 -0.87873384
  C  0.46043921  2.20622414  0.07892644
  C  1.81609548  1.51946925 -0.22274818
  H  5.31958796 -1.20495065 -1.11382834
  H  6.07564751  0.42077055 -1.12977058
  H  6.06448968 -0.56473283  0.36546319
  H -1.42263500 -0.48961063  2.49854399
  H -3.12096347  0.44665189  4.00419593
  H -5.15928310  1.49236224  3.07870222
  H -5.48230004  1.57844486  0.63263065
  H -3.79283470  0.64281855 -0.86940918
  H  0.10310181 -2.18851969 -1.70105453
  H -0.50202566 -4.28379680 -2.81197156
  H -2.79277248 -5.18756519 -2.59721226
  H -4.45855174 -3.97025698 -1.24103028
  H -3.86253877 -1.87121083 -0.14044490
  H -1.88183416  0.56141430 -2.03258840
  H -0.19914844  0.07872204 -1.88748252
  H -0.53987824  2.48459782 -1.79965586
  H -1.60450561  2.34030322 -0.40462405
  H  0.65831865  3.28002618  0.04519970
  H  0.15703592  1.97108066  1.09939004
  H  1.78631590  1.05156270 -1.20756227
  H  2.61974266  2.25781043 -0.23661032
