26
opt_min/./Reactant_1234_0_opt.xyz
  C -0.32968507  2.60831737 -1.12043158
  C  0.72331730  1.53465301 -1.01221762
  O  1.83409384  1.66998831 -1.51919219
  C  0.40065798  0.32815203 -0.29212041
  O  1.32616534 -0.58034793 -0.01425600
  C  2.62213957 -0.52530672 -0.03285921
  C  3.31766141 -1.81630884  0.29086119
  C  3.44066696  0.60160732 -0.18567819
  N  4.24701510  1.42458437 -0.14151635
  C -0.96443441 -0.11627803  0.03410035
  C -1.26587736 -0.54456153  1.32453057
  C -2.53999909 -0.98177497  1.63726335
  C -3.52612930 -1.00047633  0.66470574
  C -3.23187923 -0.58789542 -0.62500043
  C -1.95940344 -0.15253648 -0.94359993
  H -0.05006738  3.41035351 -0.43814348
  H -1.31802920  2.24991313 -0.85596938
  H -0.32620124  3.02055978 -2.12629621
  H  3.76402999 -1.77435297  1.28484067
  H  2.59908692 -2.63149430  0.25909455
  H  4.11701667 -2.00333990 -0.42357905
  H -0.49608149 -0.52747468  2.08290033
  H -2.76533617 -1.30619498  2.64171506
  H -4.52108905 -1.34093037  0.90971108
  H -3.99556493 -0.61479942 -1.38778265
  H -1.72543957  0.15346913 -1.95229813
