31
opt_min/./Reactant_5630_1_opt.xyz
  C -0.87469200 -2.84570200 -1.96471400
  O -0.43808624 -1.72907618 -1.20864381
  C -1.42697656 -1.08856825 -0.50673833
  O -2.56476735 -1.48166995 -0.51232504
  C -0.92556529  0.10830124  0.15201611
  C -1.90861805  1.09838408  0.55820552
  O -3.03138177  1.19987362  0.13326571
  O -1.44055900  1.91951030  1.55074279
  C -2.38106015  2.86295636  2.03620613
  N  0.42522013  0.28500247  0.31703164
  C  0.97147507  1.60242828  0.04035607
  C  1.21831838 -0.68423045  0.73281960
  C  0.68362798 -1.88049506  1.43339434
  C  2.68175215 -0.70642184  0.49853600
  C  3.12626732 -0.36986135 -0.91069658
  O  3.46110067 -1.07645231  1.34780271
  H -0.03135274 -3.14296192 -2.58350542
  H -1.17046286 -3.66433907 -1.30451134
  H -1.73053850 -2.57320129 -2.58485660
  H -1.86037396  3.44844099  2.78994500
  H -2.73369198  3.50271600  1.22431820
  H -3.24020235  2.35148322  2.47397639
  H  0.85055871  1.84163618 -1.01657057
  H  2.02040421  1.64310462  0.31963136
  H  0.42678763  2.33809415  0.62786829
  H  0.60828488 -2.73736936  0.76337182
  H  1.38368848 -2.14696487  2.22657624
  H -0.30332348 -1.67367588  1.84528437
  H  3.80424208 -1.15516937 -1.23834525
  H  2.28478910 -0.30287209 -1.59247834
  H  3.69104988  0.56051279 -0.92556974
