14
opt_min/./Reactant_608_1_opt.xyz
  C  0.26860289  1.96581572 -1.81712489
  N  0.56121193  1.15273265 -0.99610194
  C  0.62046059  0.39921673  0.03507549
  C  1.49178080  0.78808604  1.19793848
  C -0.12315194 -0.85159672  0.09055077
  C -1.00060947 -1.15879888 -1.10498619
  O -0.03662920 -1.59658490  1.04874416
  H  0.68003638  2.19740397 -2.77387117
  H  0.90088500  1.29993761  1.96118888
  H  1.90357809 -0.11514111  1.64374538
  H  2.29954783  1.44564917  0.88003058
  H -1.78514780 -0.40580723 -1.18710827
  H -0.41764612 -1.14743049 -2.02427096
  H -1.45457679 -2.13750868 -0.97323150
