21
opt_min/./Reactant_1401_0_opt.xyz
  C  0.38327996  0.89928756  1.84216025
  C  0.92031904  0.67869861  0.45402317
  C  2.06616760  1.37611336  0.12871704
  N  3.01423224  2.00457881 -0.09424100
  N  0.41111381 -0.24029581 -0.41364154
  C  1.32662054 -0.70369993 -1.45015855
  C -0.79766119 -0.78603396 -0.37565514
  C -1.08645598 -2.02699457 -1.16269194
  C -1.96068872 -0.16538669  0.32971215
  H  1.21625091  1.14603204  2.49940127
  H -0.32925576  1.72197349  1.90916473
  H -0.08661154 -0.00937317  2.21209009
  H  2.16244345 -0.01100733 -1.52082195
  H  0.82408580 -0.75638332 -2.41266596
  H  1.71696482 -1.69006982 -1.19576823
  H -2.02353186 -2.45636033 -0.82183354
  H -0.30491960 -2.77668698 -1.03886973
  H -1.18449698 -1.82733176 -2.23386586
  H -2.19811527 -0.67010594  1.26894101
  H -2.83729994 -0.25185744 -0.31207704
  H -1.79580578  0.88664869  0.52656677
