16
opt_min/./Reactant_385_0_opt.xyz
  C  3.48252095  0.49093246  2.00183916
  O  2.58809712 -0.36992043  1.30915440
  C  1.76032808  0.19846777  0.43420101
  O  1.64943327  1.37750714  0.22054343
  N  1.09413066 -0.78891884 -0.26363222
  N -0.07830999 -0.78295752 -0.57265866
  C -1.19379751 -0.90817541 -0.90261389
  C -2.54247790 -1.17921915 -1.26215289
  C -3.53624714 -0.28146639 -0.56711612
  O -2.83137940 -2.04117899 -2.05850632
  H  4.45307323  0.48318302  1.50374387
  H  3.58163089  0.10031754  3.01200737
  H  3.08973820  1.50906960  2.01992304
  H -3.54740455 -0.50845613  0.49734698
  H -4.52583904 -0.45081588 -0.98025675
  H -3.25439344  0.76232532 -0.68888228
