23
opt_min/./Reactant_1453_0_opt.xyz
  C -3.00651391 -0.25399257  0.99895864
  N -1.60722201 -0.09678701  0.68280006
  C -1.20378423  0.47020440 -0.47719957
  O -1.97235720  1.02644671 -1.23895737
  C  0.27229356  0.54400198 -0.69937549
  C  0.70806953  1.77442551 -1.42276088
  N  1.14224946 -0.34424043 -0.25219600
  C  2.54358968  0.02625993 -0.13235719
  C  0.81952835 -1.62121112  0.11601749
  C -0.33050108 -2.25943636 -0.35684097
  N -1.22307996 -2.86803159 -0.75356421
  C  1.66120710 -2.38787033  0.91690588
  N  2.32272899 -3.02602082  1.61058621
  H -3.56633145  0.46361877  0.40241889
  H -3.34589519 -1.26272219  0.75099647
  H -3.16673189 -0.06822460  2.05970759
  H -0.94589247 -0.54409688  1.29806309
  H -0.17874180  2.20663027 -1.88317465
  H  1.43570631  1.55659555 -2.20382945
  H  1.13550776  2.51550364 -0.74405617
  H  2.71265438  0.53840901  0.81685394
  H  3.18486572 -0.85333304 -0.17632511
  H  2.83491340  0.69923420 -0.93653634
