27
opt_min/./Reactant_3949_1_opt.xyz
  C -4.85952300 -0.92926900  0.73479800
  N -3.81426983 -0.56414182 -0.18931150
  C -2.51865390 -0.45198992  0.22665853
  O -2.18819465 -0.69769144  1.37783107
  C -1.55429822 -0.03486136 -0.79130335
  C -1.91302366  0.41108386 -2.17739517
  O -0.31821112 -0.08597988 -0.36782784
  C  0.79171977  0.15764873 -0.98074230
  C  2.03014156  0.04562541 -0.27192463
  C  3.24064341  0.30420060 -0.92870041
  C  4.43909627  0.19744747 -0.25444276
  C  4.45918711 -0.16787013  1.08318497
  C  3.26665573 -0.42642463  1.74447222
  C  2.06302013 -0.32221080  1.08135705
  H -5.30247273 -0.04460561  1.20275695
  H -4.42044907 -1.54457745  1.51963056
  H -5.63551024 -1.48847653  0.21605846
  H -4.06342483 -0.38704784 -1.14494751
  H -2.01465836 -0.43204188 -2.86499891
  H -1.14123213  1.07281945 -2.56883173
  H -2.84728729  0.96908921 -2.17110668
  H  0.80568174  0.44761451 -2.02612389
  H  3.22686436  0.58874849 -1.97118958
  H  5.36614721  0.39944837 -0.77125333
  H  5.39934703 -0.25043745  1.60782557
  H  3.28165245 -0.71079940  2.78638833
  H  1.13330279 -0.52202255  1.59203915
