17
opt_min/./Reactant_355_1_opt.xyz
  C  2.85530600  0.19675600 -0.31796100
  O  1.80631797  0.85096110  0.36545440
  C  0.66016204  0.15988417  0.46180177
  C  0.25128804 -1.04098434  0.06111286
  C -1.21493904 -1.09396213  0.49608319
  C -1.94673190 -0.10524470 -0.41574414
  C -1.53552174  1.08787054 -0.01759093
  C -0.56914826  0.79926410  1.13355993
  O -1.16773427 -0.34790734  1.70509774
  H  3.69964333  0.88603650 -0.30952901
  H  3.13043084 -0.73419076  0.18372489
  H  2.56790029 -0.02433638 -1.35094161
  H  0.76696441 -1.81591053 -0.46371435
  H -1.65711967 -2.07388334  0.64049133
  H -2.61502710 -0.36961580 -1.21020245
  H -1.77051436  2.06126607 -0.39675544
  H -0.38192735  1.58226044  1.85813794
