33
opt_min/./Reactant_2898_0_opt.xyz
  C -2.33635500 -1.03486500  2.60315800
  C -1.15930303 -0.73610137  1.73094014
  O -0.04125412 -0.56523263  2.19137943
  C -1.36978246 -0.76526825  0.27547695
  N -0.28580629 -0.50319697 -0.49574759
  C  0.74415199  0.27921854 -0.19527564
  C  0.54774994  1.47015260  0.65122281
  C  1.77172880  2.26407715  1.02355427
  O -0.56632068  1.85128507  0.94970482
  C  1.97489112  0.04917509 -0.96744600
  C  3.17666971 -0.21163803 -0.30940495
  C  4.32553841 -0.47309847 -1.03204119
  C  4.29551442 -0.47430411 -2.41693494
  C  3.10471803 -0.22512910 -3.07854086
  C  1.94999632  0.02543621 -2.36035662
  C -2.54292120 -1.31924843 -0.36523605
  C -2.54693939 -1.25549259 -1.88606015
  O -3.50048153 -1.79181299  0.22608603
  H -2.75979005 -2.00631144  2.35729353
  H -2.02196890 -1.00879428  3.64382660
  H -3.10942439 -0.29128879  2.42334760
  H -0.18310023 -1.06465821 -1.34250368
  H  2.19643678  1.81674555  1.92153736
  H  1.46975247  3.28113442  1.26431376
  H  2.52245312  2.26819392  0.23986246
  H  3.19271953 -0.24016715  0.76838638
  H  5.24835531 -0.68104573 -0.51072331
  H  5.19429768 -0.67332344 -2.97947432
  H  3.07435720 -0.22478957 -4.15784272
  H  1.02926625  0.23793487 -2.88732968
  H -1.78519890 -1.90770024 -2.31472557
  H -3.51950380 -1.59256756 -2.23645259
  H -2.38003795 -0.23483110 -2.22540772
