15
opt_min/./Reactant_208_0_opt.xyz
  C -2.70245679  1.45115065 -1.02928173
  N -1.51697383  0.84077268 -0.48021911
  C -1.01718714 -0.32763336 -0.96456137
  O -1.51806593 -0.95299271 -1.87429494
  C  0.17421480 -0.74844989 -0.27207664
  C  1.15932446 -1.17371833  0.27730261
  O  2.20364584 -1.67213848  0.84777641
  C  2.74464419 -0.95251989  1.94812648
  H -2.45704600  2.33495604 -1.62428049
  H -3.38687216  1.73821094 -0.23038373
  H -3.17826236  0.71380737 -1.67413385
  H -1.04180526  1.31702197  0.26889730
  H  3.55919684 -0.31037440  1.60182651
  H  3.13494970 -1.68865407  2.65061747
  H  1.98790619 -0.34210274  2.44413255
