24
opt_min/./Reactant_5119_0_opt.xyz
  C  4.03524086 -1.47721614 -0.78670743
  O  2.65980248 -1.42503993 -0.44634303
  C  2.06616586 -2.60206183 -0.14595147
  O  2.64803970 -3.66105213 -0.11002999
  C  0.66793479 -2.40246744  0.22294600
  C -0.12430287 -3.47829056  0.64558835
  N -0.79012331 -4.33047625  1.03915256
  O  0.17652219 -1.17292481  0.08341176
  C -1.01740381 -0.79553575  0.36375331
  C -1.42061921  0.55869583  0.14430258
  C -2.73556116  0.94636179  0.43440472
  C -3.13750923  2.24978470  0.22867175
  C -2.24387760  3.18698254 -0.26759642
  C -0.93838473  2.81511303 -0.55628925
  C -0.52508173  1.51537999 -0.35516828
  H  4.47985238 -0.53822214 -0.45870234
  H  4.51224067 -2.32553438 -0.29146780
  H  4.14338664 -1.58625113 -1.86906997
  H -1.73801263 -1.52204277  0.72823484
  H -3.42787730  0.21294964  0.82174690
  H -4.15247325  2.54196432  0.45275313
  H -2.56480978  4.20590811 -0.42913970
  H -0.24434770  3.54658524 -0.94125796
  H  0.48870648  1.21732962 -0.57499707
