30
opt_min/./Reactant_5793_1_opt.xyz
  C  1.03137950  3.17206410 -0.38588930
  O  0.62917306  1.84366742 -0.69139079
  C  0.07349854  1.16263337  0.32463001
  O -0.21535040  1.63299557  1.39010106
  C -0.31677410 -0.20804792 -0.16013385
  O  0.43925872 -0.94375761 -0.90784464
  C  1.74005630 -0.82758597 -1.17170541
  C  2.23019989 -1.63328643 -2.20569768
  N  2.63764076 -2.26223839 -3.07696321
  C  2.66429360 -0.11370457 -0.31099689
  O  2.34296617  0.41655982  0.73608095
  O  3.92139579 -0.19108502 -0.76524563
  C  4.93638084  0.37608941  0.05137863
  C -1.64583773 -0.71783647  0.09519361
  C -2.61303862  0.04570400  0.76673401
  C -3.87202354 -0.47231031  0.99377879
  C -4.19935446 -1.74681856  0.55714360
  C -3.25307077 -2.51176069 -0.10929116
  C -1.98967625 -2.01082966 -0.33747247
  H  1.80157534  3.15560131  0.38685591
  H  1.41761215  3.59280156 -1.31038937
  H  0.17903531  3.74876064 -0.02181047
  H  5.66467318  0.82857007 -0.61895881
  H  4.50722656  1.12361460  0.72118702
  H  5.41056186 -0.40999602  0.64125366
  H -2.36802491  1.03482095  1.11524610
  H -4.60663575  0.12351016  1.51407616
  H -5.18635407 -2.14495030  0.73815410
  H -3.50334604 -3.50637241 -0.44629248
  H -1.25393817 -2.61200915 -0.84805484
