13
opt_min/./Reactant_3738_0_opt.xyz
  C  2.64462463  0.29271442  0.07663085
  O  1.26123087  0.00042045 -0.07175384
  C  0.41848227  1.05800503  0.04495786
  O  0.77096847  2.17991604  0.24776613
  N -0.90517665  0.68095196 -0.07203674
  N -1.18903843 -0.45239540 -0.57152333
  N -2.33482159 -0.96074521 -0.70786350
  C -3.47051861 -0.36772057 -0.45623210
  N -4.55465882  0.00340080 -0.35544894
  H  3.17503875 -0.58594496 -0.28234110
  H  2.90760228  1.17754524 -0.50462698
  H  2.87547133  0.47649503  1.12706318
  H -0.43443662 -1.07484385 -0.92584525
