23
opt_min/./Reactant_5718_1_opt.xyz
  C -1.27076310 -1.25759350 -2.15417873
  C -0.08074477 -0.34571571 -2.20694826
  O  0.49429147 -0.07126371 -3.25042812
  C  0.42643707  0.19893068 -0.94686081
  N  1.53511138  0.89900529 -1.09699998
  N  2.20461945  1.47385944 -0.16109581
  C  3.29882384  2.13719808 -0.36406075
  N  4.26255954  2.77189140 -0.38169045
  C -0.15052390 -0.02042028  0.38214892
  C -1.49668342  0.24109942  0.62916849
  C -2.02358277  0.03922835  1.89048477
  C -1.21911040 -0.42899024  2.91468298
  C  0.11988009 -0.68670352  2.67748529
  C  0.65705378 -0.47922457  1.42134372
  H -2.17874665 -0.65466040 -2.18440628
  H -1.26956827 -1.90392990 -3.02969569
  H -1.27590163 -1.84982584 -1.24233610
  H  1.82526303  0.98035507 -2.09297467
  H -2.11989773  0.62856628 -0.16359776
  H -3.06743358  0.25209778  2.07582328
  H -1.63549774 -0.58812925  3.89961897
  H  0.75222868 -1.04877835  3.47554952
  H  1.70162341 -0.68309578  1.23753479
