36
opt_min/./Reactant_2469_0_opt.xyz
  C -5.54960200  0.58247600  0.64389800
  O -4.31632867 -0.11278599  0.57999070
  C -3.22000096  0.64954350  0.30909174
  O -3.28364256  1.84834377  0.11635592
  C -2.00243744 -0.12968156  0.26941499
  C -1.96502063 -1.59023778  0.57085593
  O -0.94788894  0.61926450  0.02410174
  C  0.32182791  0.36121530 -0.06803890
  C  1.18042874  1.52626942 -0.16538740
  C  0.65164254  2.81010465  0.03331626
  C  1.46038450  3.92280964 -0.05750188
  C  2.81132310  3.78765137 -0.34198342
  C  3.34435322  2.52514775 -0.54934737
  C  2.54243858  1.40462657 -0.46830930
  C  0.89568809 -0.99311738 -0.14392031
  C  1.83704409 -1.42489332  0.79004325
  C  2.38868724 -2.68759001  0.69010647
  C  2.02096140 -3.53078314 -0.34657510
  C  1.10360432 -3.10266599 -1.28994159
  C  0.54291620 -1.84151263 -1.19333496
  H -5.69554964  0.99633007  1.64514600
  H -6.32947130 -0.14246757  0.41968366
  H -5.55955153  1.39999332 -0.08077504
  H -2.93943500 -1.88847350  0.94403652
  H -1.72804094 -2.18971173 -0.31073110
  H -1.20550817 -1.80335222  1.32608153
  H -0.39974964  2.91754634  0.25395865
  H  1.03736820  4.90436131  0.09840032
  H  3.44278405  4.66138566 -0.40611587
  H  4.39346399  2.41378299 -0.78208336
  H  2.96547181  0.42876891 -0.65122790
  H  2.11860320 -0.76762191  1.59970903
  H  3.10801278 -3.01725747  1.42561266
  H  2.45447644 -4.51716492 -0.42172304
  H  0.82360352 -3.75179886 -2.10732037
  H -0.15036521 -1.49559140 -1.94745777
