27
opt_min/./Reactant_4773_1_opt.xyz
  C  4.89521600  0.61154200  0.68628900
  N  3.52102989  1.02554815  0.54175737
  C  2.50996478  0.13193316  0.46171637
  O  2.66150558 -1.07688046  0.54918719
  C  1.17015502  0.71461921  0.29588289
  N  0.18859245 -0.13794468  0.23181964
  C -1.14107691 -0.00941593  0.08921019
  C -1.82473348 -1.30096322  0.08056837
  O -1.19544530 -2.33745614  0.20050385
  O -3.14643404 -1.24545205 -0.08050002
  C -3.84434340 -2.48247533 -0.09231323
  C -1.74341944  1.30625815 -0.03539901
  O -1.10558933  2.34357466 -0.02584043
  O -3.07728806  1.27731599 -0.17036919
  C -3.71946360  2.53471559 -0.30076086
  H  5.43854991  1.33405589  1.29192517
  H  4.90447334 -0.36287427  1.17301300
  H  5.38363905  0.51610546 -0.28751698
  H  3.32257537  2.00800471  0.44819269
  H  0.97895829  1.77228561  0.22733982
  H  0.48214039 -1.13644402  0.30821653
  H -4.66606794 -2.37722723 -0.79790316
  H -4.23509878 -2.68936837  0.90617568
  H -3.17442727 -3.29027851 -0.39388493
  H -3.62831771  2.89769245 -1.32761591
  H -4.76522041  2.37241636 -0.05203689
  H -3.26818473  3.26542367  0.37391179
