16
opt_min/./Reactant_384_0_opt.xyz
  C  3.48252095  0.49093246  2.00183916
  O  2.58809718 -0.36992039  1.30915428
  C  1.76032806  0.19846787  0.43420100
  O  1.64943314  1.37750727  0.22054359
  N  1.09413072 -0.78891871 -0.26363236
  N -0.07830995 -0.78295744 -0.57265874
  C -1.19379748 -0.90817539 -0.90261388
  C -2.54247789 -1.17921924 -1.26215276
  C -3.53624712 -0.28146633 -0.56711618
  O -2.83137940 -2.04117930 -2.05850595
  H  4.45307321  0.48318320  1.50374384
  H  3.58163096  0.10031738  3.01200730
  H  3.08973811  1.50906956  2.01992322
  H -3.54740447 -0.50845580  0.49734699
  H -4.52583902 -0.45081595 -0.98025672
  H -3.25439344  0.76232536 -0.68888261
