19
opt_min/./Reactant_1164_0_opt.xyz
  C  4.09412271  0.83076424 -1.32517318
  N  3.26948228  0.16045723 -0.35057680
  C  1.91522937  0.28051783 -0.37256831
  O  1.32537127  0.91262576 -1.22811022
  C  1.24865320 -0.40886421  0.73720029
  N -0.02235690 -0.44101825  0.81604763
  C -1.20062731 -0.41959139  0.83501597
  C -2.58975126 -0.47892532  1.03151185
  O -3.09100654 -1.05572331  1.97300645
  O -3.26259516  0.16134572  0.05747775
  C -4.67661200  0.16876402  0.16225859
  H  5.02232314  0.28002376 -1.46369008
  H  3.54715377  0.87512266 -2.26712195
  H  4.32344690  1.85574950 -1.01676424
  H  3.72557789 -0.33330342  0.39668289
  H  1.81250669 -0.91624409  1.50230128
  H -5.00172660 -0.55978676  0.90911658
  H -5.00446550  1.16716897  0.45852213
  H -5.08092436 -0.08178401 -0.81715620
