26
opt_min/./Reactant_349_1_opt.xyz
  C  4.76947100  1.26642100  0.69642500
  N  3.42288732  0.77104951  0.54378591
  C  3.17186288 -0.57382897  0.43028611
  O  4.07093621 -1.38757768  0.41667071
  C  1.77003489 -0.93719194  0.26602357
  N  0.69039064 -0.08834080  0.23955420
  C -0.44173787 -0.76649773  0.07556150
  C -1.77913082 -0.24865148 -0.00209881
  C -2.84049991 -1.14736335 -0.17915669
  C -4.13639830 -0.68282102 -0.25793787
  C -4.40335949  0.67470056 -0.16308729
  C -3.35837064  1.56906411  0.01207248
  C -2.05620848  1.11997928  0.09275048
  O -0.17503483 -2.05754006 -0.01364831
  C  1.24666308 -2.25680323  0.09895758
  O  1.69798216 -3.36118290  0.04340770
  H  5.00727071  1.99165643 -0.08236938
  H  5.43227817  0.40505757  0.61705328
  H  4.90950655  1.72623291  1.67869666
  H  2.68737470  1.45714223  0.55671150
  H  0.72783898  0.91586185  0.33068935
  H -2.62000489 -2.19977240 -0.25145098
  H -4.94714551 -1.38315026 -0.39442038
  H -5.41805899  1.03483304 -0.22504696
  H -3.56488801  2.62663147  0.08605162
  H -1.25776969  1.83494750  0.22925704
