26
opt_min/./Reactant_1603_0_opt.xyz
  C  3.16588500 -1.30678600  0.87005800
  C  2.92795839  0.17625767  0.69740957
  O  3.82303559  0.99096705  0.81063527
  C  1.56116530  0.60784133  0.37157511
  C  1.31451428  2.06948279  0.25651394
  N  0.64326794 -0.29516012  0.11070141
  C -0.66293257 -0.24300668 -0.25163560
  C -1.66363297  0.66320479  0.27687940
  C -1.34329120  1.36243421  1.58616542
  O -2.77303252  0.77881943 -0.21400110
  C -0.99304327 -1.41588924 -1.07303255
  C -2.37691881 -1.56567758 -1.61326109
  O -0.10788082 -2.24069306 -1.28532493
  H  4.17836805 -1.45436957  1.23756461
  H  2.46606247 -1.74906213  1.57575223
  H  3.07459469 -1.81224671 -0.09139741
  H  2.17004153  2.50549029 -0.25983116
  H  0.40212540  2.26329914 -0.30063979
  H  1.25864853  2.55698944  1.22929625
  H  0.98092768 -1.26201973 -0.04402620
  H -0.47355927  0.95078453  2.08769814
  H -1.20202993  2.42751420  1.41867307
  H -2.21688665  1.25564036  2.22735589
  H -3.09496205 -1.59917467 -0.79664347
  H -2.63341486 -0.70272292 -2.22308941
  H -2.43640152 -2.47637274 -2.20382980
