21
opt_min/./Reactant_2766_1_opt.xyz
  N  2.94837591  0.85058121 -1.86495703
  C  2.47505694  0.56515118 -0.86577123
  C  1.87861152  0.15840573  0.39224522
  C  0.75874770  1.00633119  0.69808425
  C -0.39140898  1.32849152  0.82064044
  C -1.79891027  1.24960016  0.67470157
 Br -2.61588561  0.58456823  2.35037505
 Br -2.64479321  2.99806657  0.24927662
  C -2.03469537  0.26106969 -0.47162633
  C -1.39909793 -1.13758910 -0.33868629
  C  0.07566632 -1.45673178 -0.68577364
  C  1.25708317 -1.25701940  0.28593687
  H  2.65516080  0.18582693  1.16732622
  H -3.11578991  0.10505947 -0.55685432
  H -1.70070182  0.72337775 -1.40375258
  H -1.64032024 -1.56081806  0.64233077
  H -1.95144979 -1.72118197 -1.08624436
  H  0.32355769 -1.02444531 -1.66106452
  H  0.05121757 -2.54690215 -0.81165394
  H  0.96547731 -1.59546178  1.28174400
  H  2.05329844 -1.92166786 -0.06631862
