27
opt_min/./Reactant_1812_1_opt.xyz
  C  3.62464100  0.97655500 -1.23160800
  O  2.36301448  0.83379837 -0.59917448
  C  1.79692282 -0.39113923 -0.61475844
  O  2.31429176 -1.35824407 -1.13396355
  C  0.51694457 -0.41129428  0.06021474
  C -0.24544555  0.60794516  0.51590031
  O  0.06265067  1.90646692  0.46811310
  C -0.85200360  2.83614950  1.00678320
  C -1.53411803  0.00260844  1.02779583
  C -2.29749352 -0.45775323 -0.24294475
  C -1.44552306 -1.63202149 -0.75335486
  C -0.28423706 -1.68035761  0.26244341
  C -1.01928842 -1.33722060  1.56000256
  H  3.56185209  1.82608635 -1.91055732
  H  3.86672597  0.06067898 -1.77511902
  H  4.37755828  1.16778387 -0.46485201
  H -0.42821088  3.81876818  0.80986919
  H -0.96387093  2.70041554  2.08727937
  H -1.83121084  2.76289884  0.52393820
  H -2.13103078  0.61370200  1.69788850
  H -2.37943300  0.34951147 -0.97180418
  H -3.30643996 -0.77614258  0.01973054
  H -2.00672998 -2.56596356 -0.72814242
  H -1.07438172 -1.48070177 -1.76532288
  H  0.31024326 -2.58625326  0.22202208
  H -1.81837267 -2.03543330  1.81070689
  H -0.35686203 -1.23465193  2.41961799
