27
opt_min/./Reactant_2373_1_opt.xyz
  C -4.12130300 -1.17344600  0.02338700
  N -2.77286820 -1.39608119 -0.43204170
  C -1.78132328 -0.53341023 -0.17295147
  O -1.92739499  0.50386497  0.44978082
  C -0.42120231 -0.89817376 -0.67627987
 Br -0.24818235 -2.41067949 -1.82201075
  C  0.65571760 -0.19925976 -0.32174907
  C  2.05385962 -0.57033969 -0.73960453
  O  2.38259553 -0.69264964 -1.90026094
  N  2.86178357 -0.75135117  0.31941618
  C  4.24880456 -1.11460913  0.17825972
  C  0.59059985  0.92758834  0.68025111
  O  0.91544021  0.70902702  1.83274108
  N  0.34995634  2.13998007  0.16560623
  C  0.22104580  3.30728572  1.00403601
  H -4.45673621 -2.01370030  0.63252365
  H -4.79700170 -1.05233231 -0.82498949
  H -4.12653463 -0.26404197  0.62245550
  H -2.58736691 -2.24178516 -0.95142263
  H  2.50324372 -0.55364534  1.24625239
  H  4.44235972 -1.28468861 -0.88007991
  H  4.46026294 -2.02750348  0.73693723
  H  4.89668555 -0.31451783  0.54141849
  H  0.03872122  2.22086498 -0.79021619
  H  0.79358382  4.13272847  0.58045398
  H  0.61385402  3.05178980  1.98640248
  H -0.82575868  3.59881330  1.10459849
