36
opt_min/./Reactant_2161_1_opt.xyz
  F  1.28135400  2.23474800  0.18566300
  C  0.90817817  0.94350888 -0.04723760
  C -0.39846467  0.63427355 -0.03205138
  C -0.85450022 -0.76850205 -0.10424084
  C -0.36282567 -1.72534732  0.77898561
  C -0.82448896 -3.02756147  0.72075112
  C -1.77853004 -3.38655099 -0.21698837
  C -2.27713011 -2.43783854 -1.09203023
  C -1.82425870 -1.13230448 -1.03349628
  C -1.46311232  1.63896907  0.10855596
  C -1.40475867  2.86867617 -0.54592525
  C -2.42843286  3.78510573 -0.40619870
  C -3.52458619  3.49535672  0.38900207
  C -3.59460103  2.27480412  1.04175117
  C -2.57717660  1.35226819  0.90001099
  C  2.04769981  0.05649250 -0.25942108
  C  3.23383208  0.29384730  0.43557996
  C  4.32927193 -0.52957036  0.25485618
  C  4.25988832 -1.59432931 -0.62536237
  C  3.09345968 -1.82118081 -1.33820724
  C  1.99382385 -1.00179000 -1.16483430
  H  0.37668000 -1.43705625  1.51176886
  H -0.44185825 -3.76438184  1.41209490
  H -2.13730453 -4.40488301 -0.26360570
  H -3.02415012 -2.71412905 -1.82077527
  H -2.21466932 -0.39022530 -1.71494604
  H -0.56186844  3.09859093 -1.18003664
  H -2.37165423  4.73307892 -0.92301681
  H -4.32170422  4.21353081  0.49996733
  H -4.44832776  2.04239825  1.66377176
  H -2.63346615  0.40377065  1.41533550
  H  3.28938788  1.12359105  1.12348710
  H  5.23979425 -0.33929888  0.80251213
  H  5.11602506 -2.24108477 -0.76278589
  H  3.03988979 -2.63925239 -2.04145776
  H  1.09903016 -1.16967774 -1.74190936
