21
opt_min/./Reactant_1288_1_opt.xyz
  N  3.46696853  1.01649233  2.30220757
  C  2.65613024  0.40361087  1.78233545
  C  1.63997386 -0.38524349  1.12469995
 Cl  2.01710028 -2.13133821  1.49954044
  C  0.29860803 -0.09192968  1.55434322
  C -0.88308073  0.12440659  1.53278154
  C -2.20027098  0.28004169  0.94648040
  F -3.18797282 -0.32916370  1.65449481
  F -2.56064424  1.59495935  0.88686431
  C -2.10651968 -0.31412458 -0.47131428
  C -0.85044551  0.12181863 -1.24961039
  C  0.40310923 -0.77665851 -1.11251667
  C  1.62494960 -0.15876733 -0.40682499
  H -2.14057752 -1.40007017 -0.36976517
  H -3.00246006  0.00712226 -1.00681970
  H -1.12946036  0.14116387 -2.30372579
  H -0.60639656  1.14848385 -0.96980876
  H  0.72934499 -1.04306322 -2.11868075
  H  0.14088080 -1.70773278 -0.60814659
  H  2.54113075 -0.58818608 -0.81604962
  H  1.65034581  0.91956473 -0.58332757
