15
opt_min/./Reactant_184_1_opt.xyz
  N  0.69631297  3.02723698 -1.80961204
  C  0.56925781  2.10400773 -1.13843036
  C  0.40428155  0.99284383 -0.31854524
  C  1.07173259 -0.18243208 -0.29409302
  C  2.12940784 -0.63060459 -1.07789748
  N  3.00552527 -1.00859538 -1.71687943
  C  0.36846221 -0.99183073  0.81909099
  C -0.99726410 -1.33255009  0.20969365
  C -1.64969317 -0.18072384  0.18453301
  C -0.67226632  0.83634076  0.78072221
  O  0.02774035  0.04412128  1.71510366
  H  0.94014203 -1.78375963  1.29253021
  H -1.28428549 -2.30504769 -0.12982305
  H -2.62675484  0.04428264 -0.18967339
  H -1.07114089  1.74636984  1.21737963
