24
opt_min/./Reactant_3740_1_opt.xyz
  C  3.85884783  0.71000186 -0.01511392
  N  2.42740624  0.88947458  0.09833591
  C  1.58963200 -0.17886621 -0.03081057
  O  2.04576070 -1.29567127 -0.25578496
  C  0.16101149  0.11204592  0.07691703
  N -0.22345236  1.24347819  0.68507978
  C -1.40450585  1.87730219  0.63739633
  C -2.37387810  1.70700794 -0.36852789
  N -3.12722903  1.77823463 -1.23328816
  C -1.62751385  2.90300305  1.56633427
  N -1.79657060  3.71117361  2.36623898
  C -0.89783446 -0.87187374 -0.26474637
  O -2.07356346 -0.62231791 -0.02738271
  N -0.46918931 -2.02871022 -0.79058252
  C -1.38516332 -3.08420298 -1.13515545
  H  4.05983207 -0.10355419 -0.71255723
  H  4.28506974  0.44339520  0.95514329
  H  4.31796421  1.62621517 -0.37602879
  H  2.08387076  1.83475120  0.09157521
  H  0.44863496  1.67175518  1.32244320
  H  0.53139892 -2.20899423 -0.77330560
  H -1.47811253 -3.81132799 -0.32372542
  H -1.02385993 -3.58920867 -2.03000750
  H -2.36433177 -2.64682658 -1.32489181
