36
opt_min/./Reactant_2269_0_opt.xyz
  C  4.91425400 -0.20601500 -0.72533800
  N  3.88261462 -0.87048727  0.03267556
  C  2.56363765 -0.57427978 -0.16003736
  O  2.21066892  0.19743297 -1.04257468
  C  1.63713944 -1.19781532  0.77919058
  C  2.13184435 -2.01053424  1.93975124
  N  0.35571572 -0.78359626  0.75709041
  C -0.38996496 -0.67606338  2.00471726
  C -0.26509085 -0.47598813 -0.39540355
  C -0.06878731 -1.18589159 -1.64824208
  C  0.69577563 -2.49951565 -1.64669221
  O -0.61072792 -0.80972528 -2.67396661
  C -1.27874843  0.59509633 -0.40599093
  C -2.55629830  0.39918289 -0.92132478
  C -3.45995190  1.44568568 -0.95349212
  C -3.10102471  2.69393335 -0.47396844
  C -1.82743391  2.90068754  0.03028882
  C -0.91938180  1.85985362  0.06444794
  H  4.43235375  0.29566758 -1.56185130
  H  5.63286733 -0.93840843 -1.09693315
  H  5.44261445  0.53711602 -0.12130123
  H  4.17518024 -1.38363707  0.84605177
  H  2.81259029 -2.79170543  1.60287154
  H  2.65867303 -1.39767861  2.67721596
  H  1.30402531 -2.50347384  2.44165743
  H -1.19997144  0.03733812  1.87411538
  H  0.25554696 -0.34824277  2.81577190
  H -0.82525924 -1.64643525  2.25771992
  H  0.20730263 -3.16170321 -2.35909399
  H  0.73066011 -2.96952720 -0.66763283
  H  1.71031654 -2.33094576 -1.99699778
  H -2.83524187 -0.57163070 -1.30046660
  H -4.44994447  1.28534942 -1.35468037
  H -3.80931140  3.50888057 -0.50329488
  H -1.53833866  3.87847565  0.38706108
  H  0.08799955  2.01773323  0.42232979
