29
opt_min/./Reactant_5268_0_opt.xyz
  C  5.08280600  0.23752800 -0.91451900
  N  3.67343697  0.04366575 -0.65497578
  C  3.28133771 -0.72508300  0.40771110
  O  4.06180505 -1.17574547  1.21831032
  C  1.82849101 -0.92120400  0.53341929
  O  1.36351684 -1.99592913  1.17235431
  C -0.03154256 -1.91483367  1.24113913
  O -0.69623566 -2.77315917  1.76837252
  C -0.36828968 -0.69587276  0.57639894
  C -1.70692622 -0.19539726  0.35901456
  C -2.69294525 -0.49861436  1.30529867
  C -3.98830859 -0.05645540  1.13406218
  C -4.33223094  0.69400197  0.02008502
  C -3.37152550  0.97801500 -0.93524995
  C -2.07145831  0.53634970 -0.77420075
  N  0.80593983 -0.13229921  0.17192040
  C  0.94595139  1.20449240 -0.34987610
  H  5.22947906  1.18870426 -1.42429581
  H  5.59931468  0.24377434  0.04362883
  H  5.49885645 -0.56876306 -1.52569621
  H  3.06177035  0.15161486 -1.44785385
  H -2.42366430 -1.09091230  2.16412633
  H -4.73702778 -0.29776507  1.87461833
  H -5.34441184  1.04438031 -0.11123086
  H -3.63857889  1.54015280 -1.81846133
  H -1.35383090  0.72624190 -1.55804417
  H  1.86353977  1.64936073  0.03351635
  H  0.97484264  1.20357002 -1.44135521
  H  0.09022552  1.79776239 -0.02553412
