21
opt_min/./Reactant_590_0_opt.xyz
  C -1.35233875 -0.36833194  2.57670560
  C -0.91461750  0.51309393  1.42676159
  O -1.34346029  1.65431794  1.34114862
  C -0.02109036 -0.10303578  0.45183440
  C  0.52455684 -1.47169481  0.69269448
  N  0.32413129  0.52826925 -0.67653994
  C  0.01898537  1.93699269 -0.84851192
  C  0.96970370 -0.06103618 -1.71554693
  C  1.04628385 -1.43495461 -1.98325235
  N  1.10714700 -2.53447265 -2.31721654
  C  1.55129500  0.70655560 -2.73803988
  N  2.07273180  1.30038272 -3.57370106
  H -0.51971771 -0.56041829  3.25173823
  H -1.74554375 -1.31881725  2.22285478
  H -2.12218784  0.16400168  3.13111277
  H  1.54376611 -1.53236686  0.30472797
  H -0.05631230 -2.24616825  0.18832303
  H  0.55399060 -1.70183534  1.75199862
  H  0.39914034  2.28651779 -1.80736350
  H  0.46209771  2.52078305 -0.04136987
  H -1.06174779  2.08721175 -0.80249750
