8
opt_min/./Reactant_547_0_opt.xyz
  C -1.44787800 -0.02595492 -0.27345508
  C -0.01325620 -0.00446275 -0.15343474
  N  1.13896762  0.08051055  0.00277435
  N  2.31447486  0.26817799  0.30361419
  H -1.76619412 -0.96077285 -0.73609950
  H -1.80974009  0.80384845 -0.88146076
  H -1.90690515  0.03578620  0.71313774
  H  2.97837437 -0.23620555 -0.26977482
