32
opt_min/./Reactant_2990_0_opt.xyz
  C -4.78763833  1.29235293 -0.25033364
  N -3.36790044  1.21813683 -0.48141067
  C -2.49991959  0.98483622  0.52087631
  O -2.85457127  0.91860615  1.68946535
  C -1.08454867  0.77581904  0.09641088
  C -0.70374506  0.81993272 -1.31226177
  O -1.46589669  0.75300909 -2.25757221
  O  0.60347709  1.11305357 -1.46957926
  C  1.07959531  1.23541092 -2.79950661
  N -0.15007298  0.52012338  1.03979848
  C -0.29407988  1.12560229  2.34036617
  C  0.85430081 -0.34241338  0.81382002
  C  0.76995531 -1.19168718 -0.29779464
  N  0.73289430 -1.96284661 -1.15317385
  C  2.10240367 -0.43686425  1.61752946
  O  2.41917897  0.34580785  2.49912471
  N  2.88225854 -1.48815305  1.27536451
  C  4.14406849 -1.74994474  1.92193935
  H -5.19574797  2.15805996 -0.77187512
  H -5.28931720  0.38920077 -0.60591126
  H -4.95215778  1.39227045  0.82162798
  H -3.03541859  1.12190985 -1.43524689
  H  1.92406025  1.92074400 -2.76843948
  H  0.29413498  1.62172230 -3.45149436
  H  1.40119351  0.25698598 -3.16364320
  H -1.06805713  0.59773318  2.90284920
  H  0.65618178  1.09228280  2.86683901
  H -0.62893943  2.15495618  2.22496032
  H  2.59078587 -2.11643936  0.54255175
  H  4.11234799 -2.70089921  2.45812293
  H  4.94794061 -1.78431955  1.18547325
  H  4.32743430 -0.94372053  2.63002931
