22
opt_min/./Reactant_4153_1_opt.xyz
  C  3.20591909 -2.38861288  1.21632900
  O  2.11595126 -1.56653872  1.60976908
  C  1.41883914 -0.96265498  0.63505582
  O  1.65022936 -1.06659197 -0.55050664
  C  0.41419192 -0.06931603  1.20896661
  C  0.39040358  0.14182329  2.59349444
  N  0.32508483  0.26005691  3.73532840
  O -0.43952907  0.67029042  0.49759027
  C -1.02794840  0.41337872 -0.62519804
  C -0.94875740 -0.85837072 -1.37358244
  C -1.85745812  1.51391185 -1.16632035
  C -1.82954467  2.80053693 -0.38878819
  O -2.52277977  1.34507799 -2.16582984
  H  4.05138001 -2.13672478  1.85345840
  H  3.44472145 -2.22241145  0.16464412
  H  2.93564021 -3.43491175  1.36914195
  H -0.81023064 -1.69695654 -0.69459595
  H -0.13044613 -0.84865363 -2.09333999
  H -1.87783579 -0.97851430 -1.93017048
  H -0.81309403  3.10305206 -0.15648780
  H -2.34134353  3.57795324 -0.94680905
  H -2.35096058  2.64979497  0.55661185
