41
opt_min/./Reactant_2723_1_opt.xyz
  N  3.07923233  0.93276236  3.91369809
  C  2.82242890  0.31125211  2.99003628
  C  2.44294756 -0.47194657  1.83739643
 Cl  2.67917852 -2.22875702  2.35874623
  C  1.00718757 -0.31571186  1.54528427
  C -0.04710245 -0.40727674  0.94484821
  C -0.71105249 -0.46909466 -0.38030402
  C -1.30838056  0.92620687 -0.55405603
  C -0.76923547  1.92636747 -1.34863550
  C -1.37465842  3.17088457 -1.42199875
  C -2.51960599  3.44063711 -0.69683122
  C -3.05258524  2.45702980  0.11968934
  C -2.44928972  1.21683753  0.19256630
  C -1.81921323 -1.49521355 -0.44556575
  C -2.64721292 -1.53471482 -1.56151685
  C -3.65912055 -2.47209361 -1.64748648
  C -3.85546591 -3.38146707 -0.62080190
  C -3.03277206 -3.34917574  0.49099769
  C -2.01845973 -2.41091073  0.57779216
  C  0.38287473 -0.85374756 -1.51674048
  C  1.70943968 -0.65607243 -0.80051782
  C  3.22856849 -0.73499311 -0.77493818
  C  3.48258390 -0.18187225  0.67401905
  H  0.13553476  1.76703141 -1.91465588
  H -0.94042084  3.93384224 -2.05186499
  H -2.98840049  4.41122273 -0.75987104
  H -3.93915446  2.65718235  0.70290191
  H -2.87020820  0.45629786  0.83424122
  H -2.49985809 -0.82192867 -2.36018847
  H -4.29915482 -2.49232413 -2.51738613
  H -4.64871042 -4.11124475 -0.68814884
  H -3.18019176 -4.05451086  1.29569881
  H -1.37670985 -2.38375078  1.44759470
  H  0.22230479 -0.20426703 -2.37368256
  H  0.21906744 -1.88295087 -1.83624041
  H  1.57674971  0.36836607 -0.43939049
  H  1.54810191 -1.39310017 -0.01978065
  H  3.74499950 -0.09350725 -1.49015406
  H  3.60954384 -1.75082025 -0.86880881
  H  4.43607711 -0.55921675  1.04904029
  H  3.55847250  0.90709486  0.61755691
