34
opt_min/./Reactant_5569_0_opt.xyz
  C -3.16901800 -1.92187600  0.84434000
  C -3.01798701 -0.42341882  0.70473981
  O -3.87806160  0.32380739  1.14732770
  C -1.84375878  0.12449732  0.05471834
  C -1.59722049  1.46278521  0.00114628
  C -2.37725882  2.61405378  0.50410495
  O -0.41481263  1.72741095 -0.62100378
  N -0.76608498 -0.52294252 -0.57361542
  C -0.48673781 -1.91634203 -0.73200801
  C  0.16881929  0.49131072 -1.04034577
  C  0.25515234  0.49565694 -2.57477693
  C  1.52337841  0.33378127 -0.35104847
  C  1.52557311  0.08480761  1.01769515
  C  2.71476045 -0.04729200  1.71003116
  C  3.92159912  0.07318024  1.04286919
  C  3.92819081  0.33141234 -0.31626370
  C  2.73753900  0.46567749 -1.01040959
  H -2.26187739 -2.38015111  1.22371142
  H -3.41113093 -2.35746868 -0.12281980
  H -3.99175075 -2.12023495  1.52691448
  H -3.36091873  2.63293330  0.03793953
  H -2.54101477  2.51675233  1.57647084
  H -1.84047383  3.53353043  0.28814540
  H -1.34168966 -2.44585029 -1.15447358
  H -0.19735989 -2.39654292  0.21174974
  H  0.35020392 -2.02045278 -1.42019096
  H  0.76920058  1.39152004 -2.90926357
  H  0.77147670 -0.38454442 -2.94427111
  H -0.75724241  0.51225880 -2.97319834
  H  0.58599532  0.00040339  1.54382190
  H  2.69847102 -0.24220435  2.77229775
  H  4.85224090 -0.02826914  1.58131344
  H  4.86591374  0.43310821 -0.84276345
  H  2.76822595  0.66882202 -2.06866282
