34
opt_min/./Reactant_5695_0_opt.xyz
  C -1.79351800 -3.92882400  1.17209000
  N -1.07326689 -2.80606477  0.63058419
  C -1.70714281 -1.68653601  0.18816215
  O -2.91920041 -1.56468042  0.22022598
  C -0.80807096 -0.63134965 -0.31429216
  O  0.47380007 -0.81483429 -0.06252808
  C  1.53241335 -0.20082067 -0.52492510
  C  1.53888049  0.76831741 -1.65402038
  C  2.81710427 -0.58645152  0.06723745
  O  3.88217125 -0.23982599 -0.41734473
  N  2.73708222 -1.36647079  1.18204909
  C  3.91346970 -1.76360220  1.91295195
  C -1.40824277  0.55473778 -0.91921708
  C -1.03992283  1.83541655 -0.49802400
  C -1.66432335  2.94894050 -1.02527681
  C -2.66485973  2.80441771 -1.97189844
  C -3.04976519  1.53749015 -2.38154195
  C -2.43241419  0.41863834 -1.85944099
  H -1.54880171 -4.84345249  0.63068863
  H -2.85451315 -3.71301141  1.06237142
  H -1.56433316 -4.06768455  2.23142830
  H -0.07652798 -2.88973903  0.52286199
  H  0.70299514  0.59504173 -2.32812775
  H  1.49971958  1.80393709 -1.31013636
  H  2.48048761  0.63876177 -2.18319850
  H  1.84258711 -1.51610456  1.61733778
  H  4.76204758 -1.67542000  1.23720765
  H  4.08672735 -1.11930627  2.77876676
  H  3.81437376 -2.79485005  2.24912625
  H -0.28782083  1.95304875  0.26757605
  H -1.37830486  3.93344153 -0.68591450
  H -3.15052889  3.67760816 -2.38234986
  H -3.83570507  1.42356458 -3.11327658
  H -2.73321941 -0.56806591 -2.17344803
