14
opt_min/./Reactant_3885_0_opt.xyz
  C -1.64978913  2.11917906  0.77172053
  N -18.31867965  7.13947945 -13.72835441
  C -33.81818394  10.69921223 -45.42180751
  O -21.61055629 -9.60883741  41.53311368
  C -7.59794802 -9.86459675 -19.14566879
  N  12.56117395 -6.04272751 -26.79427405
  C -6.46085706 -6.33457284 -33.14696831
  C  10.31207249  19.56042119 -3.00744894
  N -2.99437936 -20.70147344  7.42571756
  H  20.80905019 -23.13703531  7.13944587
  H  18.52147084  14.73694488 -6.04537679
  H -17.12688537  3.25180200  7.77219298
  H -32.53729455  5.66917173  0.52846104
  H -8.84938835 -5.28755717  41.34954907
