31
opt_min/./Reactant_1839_0_opt.xyz
  C  4.05693300  2.79071100  1.00502300
  N  3.28431242  1.79020202  0.31154528
  C  2.00586304  1.55085441  0.61720477
  O  1.38419822  2.12461614  1.51232778
  C  1.31908725  0.50178070 -0.17737583
  N  0.06394991  0.35845287  0.21148636
  N -0.82274451 -0.46993777 -0.20390852
  C -2.07983862 -0.46559510  0.35502454
  C -2.51390018  0.34392890  1.41190600
  C -3.80874803  0.23599415  1.87666755
  C -4.69462857 -0.66697462  1.31231807
  C -4.27218138 -1.47802529  0.26916076
  C -2.98177807 -1.38077618 -0.20398003
  C  1.93875747 -0.21960619 -1.29947073
  O  3.10909691 -0.03722371 -1.63690782
  N  1.12812928 -1.08710564 -1.93377100
  C  1.56241804 -1.85067457 -3.07558043
  H  3.82484447  2.75287809  2.07055560
  H  5.11665588  2.60417028  0.84662560
  H  3.81425786  3.79570601  0.64404508
  H  3.69952842  1.26523518 -0.45654979
  H -0.14656208  1.03897685  0.97470911
  H -1.85058111  1.05540869  1.88504534
  H -4.13215192  0.86581701  2.69331760
  H -5.70550091 -0.73999811  1.68311187
  H -4.95722948 -2.18768744 -0.17211870
  H -2.63927217 -2.00570279 -1.01468350
  H  0.17475043 -1.19958064 -1.59564971
  H  1.32806277 -2.90611131 -2.93479546
  H  1.07742144 -1.49367483 -3.98852168
  H  2.64114127 -1.72481606 -3.18105619
