34
opt_min/./Reactant_5939_1_opt.xyz
  C -4.16075300 -2.32683000 -1.33755400
  N -3.45783621 -1.32498721 -0.57943895
  C -2.11912343 -1.19203158 -0.65024843
  O -1.39478179 -1.91236005 -1.33603136
  C -1.57218554 -0.06657150  0.11083227
  O -0.23394698  0.15701513  0.05096697
  C  0.65515279 -0.80081840  0.05968382
  C  0.36147660 -2.13475409  0.64096455
  C  1.97292520 -0.42537617 -0.39265996
  C  3.04298348 -1.33272169 -0.38558078
  C  4.28882407 -0.95154578 -0.83899290
  C  4.50642841  0.33520409 -1.30947419
  C  3.45607757  1.23976357 -1.33606274
  C  2.20512167  0.86628739 -0.89260714
  C -2.37201244  1.01767712  0.64365394
  O -3.60265598  0.99288789  0.70881366
  N -1.66488588  2.07222038  1.13279934
  C -2.31135261  3.20563568  1.74513008
  H -4.96118664 -2.75203495 -0.73380722
  H -3.44787728 -3.10043989 -1.62163466
  H -4.59365825 -1.90746396 -2.25212539
  H -3.98458944 -0.59454133 -0.10675881
  H  1.20904422 -2.47859127  1.23017154
  H  0.12194495 -2.87588145 -0.12307566
  H -0.52227264 -2.04594328  1.27757152
  H  2.90082182 -2.34300987 -0.03866971
  H  5.10415745 -1.65976024 -0.83140345
  H  5.48409502  0.62640804 -1.66243855
  H  3.60889835  2.24048113 -1.71254306
  H  1.38873248  1.57097358 -0.93729191
  H -0.66226220  2.07789050  1.05561576
  H -2.32026118  3.11195588  2.83489927
  H -1.79658676  4.12297924  1.46466980
  H -3.34111322  3.23577010  1.39079483
