36
opt_min/./Reactant_2320_0_opt.xyz
  C -3.57708500  0.76459700 -0.43352400
  C -2.09125974  1.03148191 -0.39318301
  O -1.66534354  2.12077577 -0.71027162
  C -1.18682912 -0.06164439  0.04305221
  C -1.66529587 -1.38308008  0.56481647
  C -2.64687719 -2.19879161 -0.24550479
  O -1.23406543 -1.80295962  1.61445881
  C  0.15673877  0.15197008  0.05860143
  C  0.79615861  1.46350606 -0.14961448
  C  0.70523034  2.44165214  0.83829203
  C  1.39055828  3.63181931  0.69868734
  C  2.16689557  3.86318634 -0.42587634
  C  2.26593681  2.89153287 -1.40588355
  C  1.59764351  1.68904182 -1.26202996
  C  1.12143686 -0.93574129  0.26339399
  C  1.01873546 -2.13410502 -0.43975198
  C  1.95854860 -3.13162306 -0.26660705
  C  3.01170525 -2.95154399  0.61464229
  C  3.12879734 -1.75958071  1.31076333
  C  2.20023393 -0.75361628  1.12782329
  H -3.81007552 -0.01170550 -1.15519014
  H -4.07866291  1.68136837 -0.73737251
  H -3.93462069  0.46977897  0.55056524
  H -2.57587461 -3.23520594  0.07930587
  H -2.44163063 -2.12773601 -1.31074710
  H -3.66365003 -1.86669273 -0.05727226
  H  0.09498706  2.25544211  1.70987382
  H  1.31608850  4.38590314  1.46843376
  H  2.69284854  4.80007186 -0.53468825
  H  2.87117121  3.06645137 -2.28327166
  H  1.67623120  0.92746401 -2.02479072
  H  0.20954369 -2.27268562 -1.14200456
  H  1.86800351 -4.05445767 -0.82047492
  H  3.74012233 -3.73601480  0.75510718
  H  3.94941640 -1.61361525  1.99735347
  H  2.28842865  0.17404115  1.67410846
