22
opt_min/./Reactant_4280_0_opt.xyz
  C  1.66679813 -0.54740885  1.48509086
  C  0.38299240  0.07487373  1.98795557
  O  0.37001274  0.79316902  2.96930280
  C -0.86707889 -0.34373168  1.36216481
  N -1.02465224 -0.78108812  0.12422072
  C -2.14795370 -1.64406480 -0.19604540
  C -0.17013564 -0.47237356 -0.87337027
  C -0.13362326 -1.30400329 -1.99814389
  N -0.09123573 -2.00966397 -2.90544249
  C  0.63159495  0.76453476 -0.91417105
  C  0.01650553  1.98326023 -0.25730663
  O  1.66522233  0.83543842 -1.54198651
  H  1.50657867 -1.37112304  0.79536391
  H  2.29175177  0.20185455  1.00141316
  H  2.21395778 -0.90376607  2.35706547
  H -1.72632930 -0.38200627  2.01720144
  H -1.78659839 -2.65567562 -0.39022130
  H -2.84432566 -1.67205910  0.63919887
  H -2.65801935 -1.29052348 -1.09184894
  H  0.59452044  2.27895683  0.61639610
  H  0.08244574  2.79785693 -0.97687926
  H -1.01887471  1.83616208  0.03685435
