32
opt_min/./Reactant_3068_1_opt.xyz
  F  0.25379700 -0.42905800 -2.76636000
  C  0.37958227 -1.24298302 -1.69931270
  F -0.77040840 -1.92410692 -1.59505701
  F  1.31077215 -2.14294087 -2.03542939
  C  0.74063959 -0.46184912 -0.45463862
  C -0.22369964  0.14055972  0.24636218
  C -1.65611762  0.18979779 -0.11560640
  C -2.04855594  0.92955625 -1.22602332
  C -3.38597402  1.00546578 -1.56765044
  C -4.33264198  0.33942872 -0.80822688
  C -3.94402135 -0.39994199  0.29390835
  C -2.60914736 -0.47485215  0.64837802
  C  0.12705325  0.90828952  1.50431342
  F -0.90160801  1.00380935  2.35599912
  F  1.13381714  0.37528563  2.21228888
  F  0.48897162  2.17331345  1.21343442
  C  2.18864866 -0.38423406 -0.16402095
  C  2.83804549  0.83994418 -0.29926423
  C  4.19593290  0.92487328 -0.05079813
  C  4.90671104 -0.19665892  0.33430195
  C  4.26012254 -1.41366813  0.46982818
  C  2.90322804 -1.51321799  0.21660792
  H -1.30146626  1.44889661 -1.80729712
  H -3.68207710  1.58549586 -2.42818030
  H -5.37732152  0.39818969 -1.07978723
  H -4.67999662 -0.92397737  0.88537048
  H -2.29389624 -1.05634775  1.50088931
  H  2.28633498  1.71469270 -0.60623467
  H  4.69973486  1.87535782 -0.15879654
  H  5.96620960 -0.12847940  0.53047503
  H  4.80996474 -2.29205404  0.77332162
  H  2.39459449 -2.45771711  0.32903409
