18
opt_min/./Reactant_3558_1_opt.xyz
  C -2.41400500  0.96886100 -0.01361500
  C -0.93368419  0.89371206 -0.01593310
  O -0.18921403  1.98675973 -0.03821487
  C  1.19920852  1.59201357 -0.03219348
  O  2.07545575  2.42710938 -0.05489079
  C  1.15772516  0.19381145 -0.02303922
  C  2.31897544 -0.73183893 -0.00572155
  N -0.16428002 -0.18432241 -0.01026687
  C -0.63935038 -1.54197386  0.02209956
  H -2.85335724  0.07036228  0.40936417
  H -2.79695643  1.11463339 -1.02713559
  H -2.72183198  1.83827947  0.56636909
  H  2.28737995 -1.45290749 -0.82524823
  H  3.21209443 -0.12288869 -0.13168176
  H  2.39780468 -1.27699103  0.93763690
  H  0.19235473 -2.21615820 -0.17637905
  H -1.03709731 -1.78703759  1.00931564
  H -1.40979664 -1.69066703 -0.73480379
