22
opt_min/./Reactant_2678_1_opt.xyz
  C  2.44642900 -1.38694600  0.60852900
  C  2.19275499  0.08851803  0.59675334
  O  2.94041253  0.93208841  0.99423991
  C  0.84606351  0.47502928 -0.00956541
  C -0.32795120  0.48881804  0.61366746
  C -1.63039205  0.94220908 -0.03671897
  C -2.67875689 -0.12640642 -0.08176449
  O -1.75992072  2.06055524 -0.43851016
  C -0.45808294 -0.00055219  2.03602364
  F -0.71830545 -1.32583834  2.05282554
  F  0.64268466  0.17235629  2.76730184
  F -1.46053622  0.58927700  2.68831276
  C  0.95306306  0.89570295 -1.46011591
  F  2.06288342  0.39554408 -2.01993876
  F -0.07002038  0.42172695 -2.19111820
  F  0.98989130  2.21156441 -1.62210788
  H  3.51838196 -1.56816261  0.65528719
  H  1.99096071 -1.80998646  1.50404507
  H  2.01794104 -1.87672079 -0.26177787
  H -3.44533258  0.15277989 -0.80102281
  H -2.25341536 -1.09252698 -0.34088799
  H -3.14100645 -0.20236388  0.90289861
