24
opt_min/./Reactant_1600_1_opt.xyz
  C  3.38286538 -0.28254093  0.41279068
  O  2.27137909 -0.92120786 -0.19591003
  C  1.20407746 -0.12437684 -0.51766888
  F  1.62897819  0.89345951 -1.38271240
  C  0.14291260 -0.88344411 -1.16165551
  C -0.95482091 -1.29685007 -1.41942154
  C -2.40743262 -1.33478955 -1.40689893
  F -2.97131876 -1.56632937 -2.62147916
  F -2.86658189 -2.34063737 -0.60722893
  C -2.85235261  0.03156411 -0.85706631
  C -2.13233759  0.43239032  0.44431252
  C -0.83432383  1.26469912  0.27759666
  C  0.48024649  0.56176946  0.67256950
  H  3.19882625 -0.09115737  1.47444854
  H  4.21060060 -0.98010418  0.31019711
  H  3.63128576  0.65085601 -0.09523716
  H -2.66018043  0.76882597 -1.63904755
  H -3.93146210 -0.02676510 -0.70013313
  H -1.93122779 -0.45699182  1.03992894
  H -2.84348317  1.03677486  1.00950299
  H -0.75525384  1.63543165 -0.74293712
  H -0.91735612  2.13961634  0.92441843
  H  1.17161230  1.28991771  1.09745725
  H  0.28795246 -0.21230692  1.41655757
