39
opt_min/./Reactant_3115_1_opt.xyz
  F  3.05563298  1.49634025 -1.48232324
  C  2.49193510  0.28751869 -1.60307769
  F  3.49385920 -0.60811444 -1.60873103
  F  1.96538374  0.23591747 -2.83745734
  C  1.43415476  0.01737024 -0.52155364
  C  1.92777158  0.39541147  0.86376667
  C  1.01752710  0.83404319  1.81971667
  C  1.43385156  1.13928224  3.10276558
  C  2.76763458  1.01630642  3.44905061
  C  3.68076125  0.59619047  2.50090148
  C  3.26850452  0.28592919  1.21590368
  C  0.21136132  0.68909629 -0.91276103
  C -0.92063079  0.88563430 -1.25911056
  C -2.29166302  0.47528753 -1.50581405
  C -3.25581908  1.42393686 -0.77333858
  F -3.08597935  2.69984052 -1.11407868
  F -3.07643574  1.35538659  0.55461951
  F -4.54204073  1.12333234 -0.98839883
  C -2.54690476  0.52461550 -3.02294147
  F -1.66867825 -0.24870938 -3.67099209
  F -3.76155491  0.06248386 -3.34805283
  F -2.44035632  1.75099308 -3.52756639
  C -2.40098810 -0.98561006 -0.98128349
  C -1.56097369 -1.28091939  0.28318351
  C -0.18702291 -1.97799738  0.18429927
  C  1.01114182 -1.47289909 -0.64501025
  H -0.01654679  0.97168277  1.55052823
  H  0.71152394  1.47973759  3.82950107
  H  3.09331807  1.25364472  4.45014223
  H  4.72693935  0.50788477  2.75613224
  H  4.00790564 -0.04651335  0.50654232
  H -2.12205982 -1.67048600 -1.78309252
  H -3.44938409 -1.17695033 -0.74433582
  H -1.48089733 -0.37906752  0.88310566
  H -2.15992034 -1.97511263  0.88092473
  H  0.15213672 -2.05467900  1.22224120
  H -0.36122033 -2.99258648 -0.18571281
  H  1.86359757 -2.08745173 -0.33319638
  H  0.82403188 -1.66833047 -1.70357491
