13
opt_min/./Reactant_782_0_opt.xyz
  C  1.31341805 -0.94843002  1.44164694
  C  0.32783950 -0.76618288  0.35248248
  N  0.04986737  0.41404211 -0.12641447
  C -0.82785938  0.74395950 -1.11563431
  C -1.59734273 -0.22616641 -1.75455228
  N -2.24947264 -1.02989924 -2.25902849
  C -0.95878621  2.08100076 -1.48058199
  N -1.04060964  3.19096754 -1.77682048
  H  1.89640494 -0.04343300  1.60673609
  H  1.99568554 -1.76331011  1.20651008
  H  0.80764763 -1.20308955  2.37550211
  H -0.19004745 -1.61679151 -0.06213846
  H  0.54781008  1.21096301  0.26884600
