26
opt_min/./Reactant_4066_1_opt.xyz
  C  3.95451600 -1.49249900 -0.38296600
  O  2.57293950 -1.15151556 -0.39030651
  C  2.23515962  0.04250094  0.13349750
  O  3.03054012  0.80119954  0.63012170
  C  0.80358536  0.36531989  0.04679670
  C  0.51882976  1.85156035  0.12364946
  C -0.36523101  2.26971366  1.26654142
  O  1.00518969  2.61688939 -0.66095633
  N -0.20546465 -0.47173680 -0.10084366
  C  0.01002998 -1.91363114 -0.10790239
  N -1.37981882  0.02046464 -0.33913042
  C -2.56584688 -0.59785567 -0.08705848
  C -3.69843850  0.12364686 -0.77183462
  O -2.72575319 -1.52067938  0.69170791
  H  4.02937341 -2.53798503 -0.08795877
  H  4.49259769 -0.85338501  0.31860678
  H  4.35909575 -1.35762652 -1.38690422
  H -0.26307497  1.60058855  2.11567107
  H -0.11794213  3.28861739  1.55211179
  H -1.39791533  2.24607919  0.92520406
  H -0.94877936 -2.41179643  0.01913847
  H  0.46953797 -2.21290664 -1.04816985
  H  0.66857929 -2.19247349  0.71128765
  H -3.37847692  0.49270764 -1.74125352
  H -3.99171465  0.97440676 -0.15910185
  H -4.55040380 -0.54255163 -0.86998239
