32
opt_min/./Reactant_2744_0_opt.xyz
  C  2.19942100 -0.64767009  3.40728794
  N  2.15779524 -0.09860843  2.07325782
  C  0.98778187  0.14561466  1.43659379
  O -0.10206092 -0.08926017  1.92641809
  C  1.13356302  0.82149569  0.12758799
  C  2.37926414  1.32636331 -0.21893411
  N  3.44919483  1.68936417 -0.45928322
  N  0.02390069  1.17410010 -0.57771452
  C  0.13386775  2.38142168 -1.38097427
  C -1.10421671  0.48953517 -0.56478235
  C -1.25796318 -0.94903302 -0.14986597
  O -2.29234162 -1.36904638  0.30731220
  N -0.21477222 -1.74068665 -0.50740505
  C -0.18984572 -3.14655462 -0.18091785
  C -2.37330290  1.09316410 -1.03807028
  O -3.16837975  0.55240791 -1.75943224
  O -2.52851779  2.34161158 -0.54937820
  C -3.76219890  2.97357028 -0.86404934
  H  2.72185691  0.02763095  4.08567771
  H  1.17241434 -0.77758689  3.74278172
  H  2.70435862 -1.61630639  3.40629501
  H  3.03130186  0.17172407  1.64767208
  H -0.58994803  2.36717080 -2.19181563
  H  1.14072000  2.43836403 -1.79483183
  H -0.03611291  3.25919191 -0.75818461
  H  0.63032677 -1.35035105 -0.89249950
  H -0.05256046 -3.74366722 -1.08434673
  H  0.61263792 -3.36749473  0.52542086
  H -1.14685627 -3.38961844  0.27478266
  H -4.59305738  2.29227745 -0.67847811
  H -3.82899162  3.84706714 -0.22131498
  H -3.78051830  3.27037254 -1.91450744
