26
opt_min/./Reactant_5868_0_opt.xyz
  C  0.71601900  1.41228200  0.33446500
  O  1.02052065  2.54485557  0.65430509
  C -0.56689780  1.13148725 -0.35591293
  O -1.23225653  2.28027052 -0.59905463
  C -2.61646207  2.29154050 -0.87806554
  C -0.94146117 -0.14047578 -0.69271507
  O -2.09982347 -0.30674581 -1.40030594
  C -2.70964064 -1.57459163 -1.54527674
  C -0.06130132 -1.28096872 -0.37987318
  O -0.34796984 -2.43040552 -0.68135684
  C  1.21615850 -0.99423178  0.31557952
  C  2.06957891 -2.17907126  0.62631707
  C  1.59750133  0.26016302  0.62066686
  C  2.90072877  0.57007399  1.27865564
  H -2.90236447  3.34174569 -0.84703228
  H -2.83276652  1.87975505 -1.86488006
  H -3.18085410  1.73885373 -0.12390322
  H -3.67989733 -1.36172752 -1.99286447
  H -2.13431772 -2.22469856 -2.20697995
  H -2.85007700 -2.07672685 -0.58659532
  H  2.35947381 -2.18085255  1.67408742
  H  1.52777598 -3.09153269  0.39506244
  H  2.97983557 -2.15317522  0.02939384
  H  2.96061218  0.09160103  2.25504151
  H  2.99617005  1.64413094  1.40461572
  H  3.72890429  0.20016148  0.67830324
