14
opt_min/./Reactant_3560_1_opt.xyz
  C -2.55286994 -0.09580552  0.15266920
  C -1.34019258 -0.03226784 -0.71211251
  O -1.31300007 -0.11083655 -1.92388282
  N -0.16704075  0.14043536  0.02504157
  N  0.87086440  0.16913145 -0.72381804
  C  2.11992610  0.31748644 -0.32717393
  C  2.45812865  0.46213728  1.03492393
  N  2.76249634  0.59760842  2.13138807
  C  3.15975438  0.34355950 -1.27517642
  N  4.01076565  0.37570508 -2.04350097
  H -3.44343046 -0.21333956 -0.45775167
  H -2.61702114  0.81294401  0.74644751
  H -2.45328451 -0.93356202  0.83966244
  H  0.69509296  0.07338909 -1.75049635
