20
opt_min/./Reactant_2594_1_opt.xyz
  C  3.49997800  0.51372200  0.28720000
  N  2.09362762  0.22661232  0.40697044
  C  1.55373192 -0.89458494 -0.08522668
  O  2.15403021 -1.76386247 -0.68323279
  C  0.06914391 -1.02683775  0.19073022
  C -0.72683582  0.23848197  0.33315053
  O -0.39251141  1.11198146  1.11556238
  N -1.77802982  0.32935725 -0.49546848
  C -2.67845969  1.45715339 -0.48077004
  C -0.45487021 -2.24183215  0.35416377
 Br -2.27128572 -2.50719189  0.80818496
 Br  0.49726090 -3.85425123  0.21977608
  H  3.66135505  1.40711159 -0.32061512
  H  3.97665443 -0.33731203 -0.19807370
  H  3.94164262  0.67176072  1.27154805
  H  1.48836943  0.89791437  0.86776213
  H -1.97936878 -0.42229389 -1.13638527
  H -3.69715504  1.12188077 -0.28583991
  H -2.35433909  2.12508555  0.31546095
  H -2.64784670  1.98673523 -1.43414518
