17
opt_min/./Reactant_144_1_opt.xyz
  C -3.38928400  0.67380000 -0.24179800
  C -2.22424463  0.60006664  0.67602620
  N -1.03208261  0.40339114  0.22591932
  N  0.07691544  0.29609269  0.90280905
  C  1.13308527  0.06809738  0.04114812
  O  0.99315420 -0.01199352 -1.17774795
  N  2.32183402 -0.01618400  0.67671680
  C  3.52789256 -0.41724946  0.00477145
  H -4.14142068  1.35510454  0.15063011
  H -3.08449970  1.01359070 -1.23065482
  H -3.85851271 -0.30743867 -0.34990360
  H -2.35539892  0.68538705  1.74380299
  H -0.88104331  0.30988681 -0.80629603
  H  2.28934163 -0.02540358  1.68318277
  H  3.38818947 -0.23666219 -1.06054874
  H  3.74069196 -1.48181584  0.15365365
  H  4.36994777  0.17069307  0.37176188
