28
opt_min/./Reactant_4044_1_opt.xyz
  C  4.80523500 -0.44918800  0.54835500
  O  3.41389097 -0.19850024  0.41262079
  C  3.05655661  0.94095309 -0.18022258
  O  3.82452998  1.78688908 -0.57703546
  C  1.58503445  1.06509224 -0.29235192
  C  1.03189096  2.34447664 -0.80158119
  O  0.91926232  0.00544559  0.00116017
  C -0.37004558 -0.25127958  0.00421042
  C -0.65457508 -1.69901013  0.08368903
  O  0.20015311 -2.54570505 -0.02818437
  O -1.94924407 -1.94329990  0.30882229
  C -2.35744495 -3.30516777  0.34386710
  C -1.47841800  0.71475169 -0.00724836
  O -2.52999068  0.55754312 -0.57271379
  O -1.20142156  1.78679888  0.77504078
  C -2.23209827  2.75382231  0.93694569
  H  5.16333841 -0.03380383  1.49272307
  H  4.92905265 -1.52968316  0.54717082
  H  5.35356083  0.00649469 -0.27811308
  H  0.21061473  2.15249506 -1.49259981
  H  0.65158443  2.96497605  0.01089657
  H  1.83418495  2.88443719 -1.29934419
  H -1.48540792 -3.95337646  0.44904150
  H -2.88474385 -3.54010845 -0.58179730
  H -3.02873799 -3.42036533  1.19291078
  H -2.35010961  2.93786761  2.00377967
  H -3.16211450  2.37382577  0.51155463
  H -1.94047535  3.67475821  0.42968468
