21
opt_min/./Reactant_3548_1_opt.xyz
  C  4.20140100  0.13080900 -0.11593800
  O  2.83577736  0.51243744 -0.07747868
  C  1.94541045 -0.49214802 -0.00222378
  O  2.26554799 -1.66125888  0.04017421
  C  0.59824040  0.05087947  0.01203526
  N -0.49364501 -0.67321997  0.08643403
  C -0.41956738 -2.12012154  0.16346502
  N -1.71338420 -0.24297503  0.16357758
  C -2.08433010  1.04136843 -0.12692671
  C -3.50144465  1.30480218  0.31763804
  O -1.40516573  1.85578373 -0.72352913
  H  4.76177150  1.03218958 -0.34690356
  H  4.36132436 -0.63225214 -0.88025222
  H  4.50910684 -0.27135167  0.85202171
  H  0.50178585  1.12249092 -0.06329131
  H -1.43587643 -2.49506715  0.25538058
  H  0.05603558 -2.51550454 -0.73258191
  H  0.18256508 -2.42563096  1.01716491
  H -3.91905715  2.12533693 -0.25795321
  H -3.48762860  1.58386174  1.36958017
  H -4.10361157  0.40905608  0.20740594
