34
opt_min/./Reactant_1117_1_opt.xyz
  C  4.39532871  0.81370272 -2.53619139
  O  3.54651359  0.71380623 -1.39910197
  C  2.43423852 -0.01517028 -1.55240756
  O  2.13423620 -0.57613846 -2.56813283
  C  1.63008649 -0.03480738 -0.25855228
  C  0.26120500  0.47202487 -0.49401492
  C -0.91822660  0.75602545 -0.38749254
  C -2.18418270  0.35358038  0.30313011
  O -2.99164078 -0.19597501 -0.69245730
  C -4.34660445 -0.43708765 -0.36954917
  O -2.86496275  1.43259095  0.90464991
  C -2.04706394  2.41052263  1.49327927
  C -1.85729490 -0.77254884  1.45931052
  C -0.41677073 -1.15956118  1.18279208
  C  0.83458255 -1.96692437  1.50180246
  C  1.72117685 -1.52665358  0.28781852
  H  4.87105531 -0.14811366 -2.73723322
  H  3.81839816  1.10986267 -3.41385228
  H  5.14224712  1.56479074 -2.29331013
  H  2.11950538  0.63713990  0.45492444
  H -4.78498925  0.41157230  0.15623139
  H -4.85224745 -0.57937613 -1.32266451
  H -4.46200987 -1.34188672  0.23776351
  H -2.72465574  3.15667143  1.90449987
  H -1.38987890  2.87616265  0.75075292
  H -1.43159862  1.99356416  2.29858912
  H -2.57008082 -1.58256537  1.31951378
  H -2.01821829 -0.31716036  2.43550984
  H  0.02891153 -0.17832747  1.33684135
  H -0.51361291 -1.39166704  0.11943172
  H  1.29184116 -1.69387100  2.45230854
  H  0.71168014 -3.04965777  1.46546898
  H  1.45365088 -2.16133630 -0.55990602
  H  2.77593203 -1.69909481  0.51451285
