30
opt_min/./Reactant_2003_0_opt.xyz
  C -0.52351400  3.71167700 -0.69961100
  N -0.48289877  2.34153079 -0.24023483
  C -0.86332261  1.32125541 -1.04235135
  O -1.13640193  1.44513993 -2.21239372
  C -0.88507440 -0.01768965 -0.32525283
  C -2.23661692 -0.51962631 -0.11925251
  O -3.19477406  0.22082782 -0.07116893
  O -2.32926413 -1.86308209 -0.00316014
  C -3.63275825 -2.41242766  0.12956655
  N  0.26061285 -0.62373364 -0.01929016
  C  0.23897913 -1.82521239  0.79470020
  C  1.43416257 -0.14515273 -0.43366261
  C  2.74861151 -0.57491711 -0.03709698
  O  3.06550519 -1.44638464  0.75259736
  O  3.67002719  0.17225998 -0.69271785
  C  5.02522480 -0.13974689 -0.41888090
  H -0.21762988  3.72749662 -1.74457266
  H -1.53236333  4.12543457 -0.62922746
  H  0.16040826  4.31266195 -0.10435173
  H -0.42018861  2.18690577  0.75314393
  H -4.37633449 -1.61422231  0.09634599
  H -3.69153031 -2.94119823  1.08171696
  H -3.79325091 -3.10960382 -0.69282613
  H  0.00577082 -2.68366406  0.16582194
  H  1.22311532 -1.97270237  1.23701494
  H -0.51846943 -1.74436007  1.56849972
  H  1.41599961  0.69000495 -1.11439036
  H  5.29270011 -1.09974761 -0.86673198
  H  5.61482477  0.66022181 -0.85945303
  H  5.19416443 -0.19736563  0.65848655
