9
opt_min/./Reactant_3218_1_opt.xyz
  C -1.14253400 -0.64749800  0.27808600
  N -0.01522684  0.19307986  0.51281808
  N  0.76117962  0.37394697 -0.46194847
  N  1.81345705  1.06352452 -0.51978687
  H -1.17158167 -1.03238184 -0.75362579
  H -1.11300641 -1.48752875  0.97418106
  H -2.05776615 -0.08469225  0.47204432
  H  0.54132308 -0.09186867 -1.37360720
  H  2.00767531  1.50613921  0.38003317
