28
opt_min/./Reactant_3083_1_opt.xyz
  C  4.96143001 -1.19070099 -1.49350897
  O  3.81822628 -0.36288247 -1.36597878
  C  2.74864798 -0.91754660 -0.74790817
  O  2.75358292 -2.05754104 -0.32540737
  C  1.67012637  0.04753795 -0.67341534
  C  1.91190875  1.30796412 -1.22881514
  N  2.11084700  2.34438992 -1.69013777
  N  0.44890331 -0.19918251 -0.09950095
  C  0.22262529 -1.51836678  0.44943376
  C -0.50555990  0.70337508 -0.10897438
  C -1.77702651  0.63803334  0.58094067
  C -1.89498124  0.17805172  1.89710497
  C -3.12319192  0.17829877  2.52932993
  C -4.25080936  0.63518152  1.86707434
  C -4.14086825  1.11795966  0.57233905
  C -2.91530704  1.13202389 -0.06142346
  H  5.59439263 -0.72581498 -2.24564552
  H  4.67121395 -2.19807360 -1.80035425
  H  5.49150678 -1.25202797 -0.53947444
  H -0.82692000 -1.64265646  0.70332400
  H  0.51300862 -2.26820671 -0.28671390
  H  0.84799737 -1.67697638  1.32875389
  H -0.31306406  1.58843156 -0.70264541
  H -1.01532253 -0.13573462  2.43861685
  H -3.20062829 -0.17073278  3.54812872
  H -5.20871255  0.62850360  2.36448647
  H -5.01759124  1.48797771  0.06257212
  H -2.82743694  1.50979033 -1.06917651
