28
opt_min/./Reactant_5850_1_opt.xyz
  C  2.36261998  2.54829301  1.97713799
  N  1.48933756  1.59069969  1.34317080
  C  1.62136116  1.29270193  0.02478507
  O  2.47885327  1.79179405 -0.68274915
  C  0.64689878  0.30759244 -0.48900771
  O  0.72112552  0.14802958 -1.78043822
  C  0.12143415 -0.69555687 -2.57344683
  C  0.46812110 -0.56476956 -4.03001288
  C -0.78157811 -1.67896821 -2.18278434
  N -1.50418675 -2.53929853 -1.91712189
  C -0.32766861 -0.38393307  0.36556196
  C -1.69434782 -0.24292291  0.11600424
  C -2.61919098 -0.87143401  0.92658089
  C -2.19780166 -1.64949823  1.99204999
  C -0.84453705 -1.79259918  2.24952047
  C  0.08711698 -1.16150006  1.44684233
  H  2.03591124  3.57293198  1.77864155
  H  3.36598210  2.42987663  1.56824398
  H  2.37685413  2.37611325  3.05029243
  H  0.73929575  1.18441396  1.87561822
  H  0.38844269 -1.52917043 -4.52464627
  H  1.48273083 -0.18484291 -4.12377848
  H -0.20604075  0.13198822 -4.53106733
  H -2.02847614  0.37179855 -0.70785252
  H -3.67268388 -0.75443514  0.72339906
  H -2.92295445 -2.14572840  2.61863518
  H -0.51150147 -2.40381550  3.07498016
  H  1.14413092 -1.28663316  1.63385333
