26
opt_min/./Reactant_5886_0_opt.xyz
  C  0.71601900  1.41228200  0.33446500
  O  1.02052065  2.54485557  0.65430509
  C -0.56689779  1.13148725 -0.35591294
  O -1.23225654  2.28027052 -0.59905462
  C -2.61646206  2.29154050 -0.87806556
  C -0.94146116 -0.14047578 -0.69271508
  O -2.09982346 -0.30674581 -1.40030593
  C -2.70964064 -1.57459163 -1.54527672
  C -0.06130132 -1.28096871 -0.37987317
  O -0.34796984 -2.43040551 -0.68135685
  C  1.21615850 -0.99423178  0.31557951
  C  2.06957891 -2.17907126  0.62631706
  C  1.59750133  0.26016302  0.62066685
  C  2.90072877  0.57007399  1.27865564
  H -2.90236447  3.34174569 -0.84703225
  H -2.83276648  1.87975510 -1.86488012
  H -3.18085410  1.73885368 -0.12390328
  H -3.67989734 -1.36172752 -1.99286446
  H -2.13431772 -2.22469857 -2.20697992
  H -2.85007701 -2.07672684 -0.58659529
  H  2.35947382 -2.18085256  1.67408741
  H  1.52777598 -3.09153269  0.39506244
  H  2.97983558 -2.15317522  0.02939383
  H  2.96061219  0.09160103  2.25504150
  H  2.99617006  1.64413094  1.40461571
  H  3.72890429  0.20016148  0.67830322
