15
opt_min/./Reactant_725_0_opt.xyz
  C  3.08092984 -0.69545845 -0.55640447
  C  2.24059958  0.31887019  0.18201395
  O  2.69320495  1.21364835  0.85709702
  C  0.84493523  0.12689466 -0.00958782
  N -0.29523631 -0.02750987 -0.23464906
  N -1.41842946 -0.22799405 -0.64561215
  C -2.61989354  0.17352103 -0.10140648
  C -2.63567905  0.35034345  1.40075444
  O -3.59017476  0.28510563 -0.80185326
  H  4.04646989 -0.79098541 -0.06400189
  H  2.58328473 -1.66118165 -0.60902781
  H  3.24497690 -0.33158772 -1.57151594
  H -1.66768676  0.67144237  1.77847907
  H -3.40212328  1.07516117  1.66695694
  H -2.89820109 -0.60542467  1.85554193
