23
opt_min/./Reactant_4492_0_opt.xyz
  C  2.93750700  1.52728600  0.58611000
  N  1.73230872  0.74260040  0.45913491
  C  1.78852324 -0.53366331 -0.01709894
  O  2.82293104 -1.02983660 -0.42836946
  C  0.52440485 -1.29386554  0.00207937
  C  0.64221875 -2.78550273 -0.01322436
  N -0.68085656 -0.77361020 -0.03677283
  C -1.19511560  0.45494145 -0.17402485
  C -2.62085448  0.49174330 -0.16271923
  C -3.27133212  1.83583721 -0.38637667
  O -3.26786883 -0.53996787  0.02828489
  H  2.69060238  2.58546114  0.52022012
  H  3.44971592  1.33378664  1.53368047
  H  3.60477148  1.24949451 -0.22768431
  H  0.94735942  1.02308999  1.02265186
  H -0.16084156 -3.24534034  0.56074396
  H  0.59225138 -3.16303130 -1.03610714
  H  1.60392379 -3.08200273  0.39522037
  H -1.47225434 -1.43777899  0.03381941
  H -0.58057175  1.30718472 -0.39145771
  H -4.34346757  1.70921110 -0.50631709
  H -2.85501244  2.31507279 -1.26896812
  H -3.08553201  2.47705341  0.47337554
