18
opt_min/./Reactant_4463_0_opt.xyz
  C  3.64046400  0.26163000  0.31355200
  O  2.34697993 -0.09788574 -0.14863808
  C  1.32706072  0.57394153  0.38895302
  O  1.44334645  1.43027511  1.22375583
  C  0.02385645  0.10748986 -0.16106982
  N -0.07542792 -0.83938802 -1.06537196
  O  0.79692851 -1.50474994 -1.62188377
  C -1.23737557  0.72774128  0.31930846
  O -1.33611805  1.60567092  1.12590399
  O -2.30536013  0.16185595 -0.30107965
  C -3.58444159  0.67464453  0.06226642
  H  3.76728775  1.34493521  0.28426310
  H  3.78685060 -0.08197754  1.33918337
  H  4.34426989 -0.23033728 -0.35298947
  H -1.05756374 -1.04509302 -1.34181356
  H -3.60551744  0.91245212  1.12656737
  H -4.30442837 -0.10302870 -0.17730357
  H -3.79776212  1.58028377 -0.50720513
