23
opt_min/./Reactant_2240_1_opt.xyz
  C -2.36442880  1.31356572 -0.06323453
  C -1.20668783  0.49968934  0.50977397
  F -1.45161924  0.31717615  1.87449894
  C  0.07731239  1.23982083  0.41988096
  C  1.26941492  1.48447833  0.41898522
  C  2.61912410  0.93383510  0.33374816
 Cl  3.41671440  1.58968761 -1.14088619
 Cl  3.58549519  1.41393574  1.74960945
  C  2.59363118 -0.68378694  0.23253461
  C  1.10646735 -0.97900351  0.12635174
  C -0.04365944 -1.97028546  0.05454716
  C -1.23031542 -0.95791156 -0.13569832
  H -2.17375230  1.54669408 -1.10692876
  H -2.46207663  2.24206102  0.49486421
  H -3.29506513  0.75722290  0.01882174
  H  3.16533683 -0.96829303 -0.64904251
  H  3.06689280 -1.09764417  1.12099205
  H  0.79334932 -0.50279642  1.05391412
  H  0.86906121 -0.37425973 -0.75256002
  H -0.01803636 -2.64620186 -0.80082194
  H -0.16782552 -2.55469008  0.96444046
  H -1.37160904 -0.79978590 -1.20587537
  H -2.14501904 -1.39884745  0.26562170
