30
opt_min/./Reactant_2393_1_opt.xyz
 Cl -3.42984916  1.67153881  1.88256484
  C -2.69223422  0.24691796  1.08276016
 Cl -3.09663257 -1.20996856  2.04979632
  C -1.28098696  0.37997907  0.94661491
  C -0.24153010  0.38141992  0.35030155
  C  0.76815942  0.26965646 -0.65614166
 Cl  0.74293580  1.81545827 -1.61718235
  C  2.15835063  0.11600772 -0.08233274
  C  2.96595837 -0.97469413 -0.37139774
  C  4.23285412 -1.06832421  0.18299798
  C  4.70186411 -0.07871251  1.02684590
  C  3.89670093  1.00926514  1.32175672
  C  2.63330236  1.10591231  0.77174946
  C  0.21435402 -0.86536784 -1.52959258
  C -1.22127240 -0.69764701 -2.07617895
  C -2.53429475 -0.93055531 -1.28140524
  C -3.21985419  0.09913791 -0.35498917
  H  2.62163206 -1.75542928 -1.03064012
  H  4.85427674 -1.91985843 -0.05094204
  H  5.69071922 -0.15344679  1.45403284
  H  4.25404400  1.78547548  1.98101354
  H  2.00325216  1.95272979  1.00221590
  H  0.27367104 -1.79275292 -0.95612033
  H  0.85510208 -0.95760602 -2.41197916
  H -1.29204143  0.25943279 -2.60072378
  H -1.27583089 -1.48574699 -2.83884250
  H -2.49347022 -1.90102647 -0.77838817
  H -3.26616200 -1.02140785 -2.09437797
  H -4.26568723 -0.21206735 -0.28132854
  H -3.19489555  1.08083016 -0.83001685
