16
opt_min/./Reactant_4084_0_opt.xyz
  C -2.49685154  1.15014436  0.67104776
  O -1.18352217  0.65201287  0.44141070
  C -1.04921222 -0.69190290  0.36405899
  O -1.95130161 -1.48310001  0.49499680
  C  0.33448116 -1.07786545  0.10761195
  C  0.68829956 -2.53015654  0.00859902
  N  1.22118085 -0.17317465 -0.04570678
  C  1.99013576  0.71245125 -0.19851879
  C  2.88857434  1.68928234 -0.33941192
  N  3.66853824  2.53498857 -0.47246522
  H -2.58284763  2.08193681  0.11410656
  H -3.24148902  0.42645215  0.32981257
  H -2.63678873  1.33609186  1.74103271
  H  1.66036294 -2.72469250  0.45635082
  H  0.71336636 -2.85257828 -1.03315691
  H -0.07722909 -3.10408948  0.52326789
