15
opt_min/./Reactant_3956_0_opt.xyz
  C  2.29749900 -0.38458597  0.18917505
  O  1.91661085  0.74486609 -0.27250355
  C  0.71886944  1.16701648 -0.60669914
  C  0.65843818  2.45119680 -1.17381315
  N  0.60813503  3.50111595 -1.63794465
  C -0.55590919  0.41199860 -0.48334557
  O -1.43932408  0.49345743 -1.31049237
  N -0.63937606 -0.39649665  0.62007920
  C -1.88104088 -1.07808822  0.91767567
  H  1.63608878 -1.22363124  0.33704079
  H  3.35866220 -0.49055740  0.32806134
  H -0.06083660 -0.18423944  1.42114305
  H -2.37992308 -1.28908229 -0.02654264
  H -1.66583813 -2.00948020  1.43959012
  H -2.54524149 -0.46177590  1.53005818
