14
opt_min/./Reactant_262_1_opt.xyz
  C  2.20838501 -0.78592301  0.81228998
  O  0.90120522 -0.62765346  0.28546621
  C  0.56823469  0.59622592 -0.16512369
  O  1.30473829  1.55473847 -0.15275272
  C -0.79878754  0.61797577 -0.67188300
  C -1.69495816 -0.59734851 -0.67412433
  N -1.25313215  1.71080453 -1.13409655
  N -1.67469520  2.67150690 -1.54227418
  H  2.73380301 -1.53366356  0.21807131
  H  2.12494396 -1.12699698  1.84213200
  H  2.74941791  0.16083335  0.77256819
  H -1.13863128 -1.44112185 -0.28514828
  H -2.57353996 -0.43469911 -0.05127101
  H -2.03184019 -0.83466061 -1.68248785
