18
opt_min/./Reactant_92_1_opt.xyz
  C  4.20446915 -0.03270091 -0.53298800
  O  2.85062787  0.29601556 -0.28118564
  C  1.95183334 -0.71778923 -0.43698957
  O  2.23038029 -1.84698460 -0.80443413
  C  0.65987356 -0.34350083 -0.11849556
  N -0.50055812 -0.14473196  0.07164440
  C -1.73450693  0.03301718  0.30287430
  C -2.69946496 -1.08609626  0.05739114
  C -2.22685182  1.39335965  0.69341320
  H  4.75513242 -0.02718266  0.41028987
  H  4.61541186  0.72130621 -1.20479392
  H  4.26928918 -1.02224158 -0.99135496
  H -3.12569591 -1.01414079 -0.94558604
  H -2.19887128 -2.04729133  0.14382039
  H -3.51540439 -1.03891944  0.77501732
  H -3.12200897  1.30551898  1.30390539
  H -1.46463168  1.92979603  1.25416027
  H -2.47504999  1.98306983 -0.19137070
