27
opt_min/./Reactant_3127_1_opt.xyz
  C  3.30823314  0.45237279 -2.38122477
  N  2.40258577  0.70814618 -1.28667041
  C  1.94616576 -0.27495970 -0.49482659
  O  2.18279171 -1.45041746 -0.64253866
  C  1.04846702  0.23447822  0.64877697
 Br  2.27362842  1.14555121  1.93600925
  C  0.02421558  1.13361815  0.21079348
  C -1.11998374  1.45842636  0.02523398
  C -2.53991250  1.41062099  0.12226723
 Br -3.33257503  0.72709217 -1.55733846
 Br -3.34061553  3.19241071  0.48639743
  C -2.83088053  0.46225457  1.28698237
  C -2.34870949 -0.99741279  1.12342368
  C -0.95432609 -1.38348337  0.58772866
  C  0.29732423 -0.91210947  1.35765672
  H  3.16156113 -0.57491084 -2.71085078
  H  3.09614886  1.13665213 -3.20003433
  H  4.34738606  0.57484763 -2.06587211
  H  2.19174855  1.66943257 -1.06455666
  H -2.38494163  0.90573748  2.18189080
  H -3.91247562  0.41781120  1.44297378
  H -2.46517983 -1.45281824  2.10897961
  H -3.05283618 -1.49535128  0.45148122
  H -0.86656175 -1.10446684 -0.46253561
  H -0.94704723 -2.47604420  0.60780230
  H  0.99895163 -1.74685176  1.42671646
  H  0.02928530 -0.60407237  2.36900444
