18
opt_min/./Reactant_3451_1_opt.xyz
  C -2.78867300  0.50929800  0.57521000
  C -1.65632906 -0.40453105  0.26541986
  O -0.47621758  0.09829004  0.16794529
  C  0.64321025 -0.53178193 -0.12677402
  C  0.65234992 -2.00114520 -0.40534484
  C  1.85830238  0.23435812 -0.16292438
  C  1.73478185  1.71577645  0.13560572
  O  2.93637629 -0.27876416 -0.43777135
  H -2.40547343  1.45451432  0.95399260
  H -3.44685608  0.05957589  1.31555591
  H -3.38449696  0.72188913 -0.31547062
  H -1.84201022 -1.45489563  0.09267206
  H  1.67127655 -2.28813040 -0.64383784
  H -0.00033318 -2.24839029 -1.24646331
  H  0.31553854 -2.56930767  0.46591521
  H  0.98125857  1.91282599  0.89146492
  H  2.70074676  2.09394275  0.45860721
  H  1.45796788  2.23331946 -0.78216849
