17
opt_min/./Reactant_222_0_opt.xyz
  C  2.72773900 -0.13807700 -0.25156500
  N  1.33018147 -0.29437882  0.06585947
  C  0.37428996  0.44520236 -0.58094142
  O  0.67408330  1.29827575 -1.39299126
  C -1.00022701  0.15375901 -0.15553931
  C -1.30748829 -0.66563526  1.06180888
  N -2.03038407  0.64579978 -0.82465830
  N -2.01098293  1.32074620 -1.90772346
  H  3.32965154 -0.23992554  0.65174789
  H  3.05713632 -0.87640421 -0.99003821
  H  2.86165560  0.85578660 -0.67784491
  H  1.07464540 -1.06173525  0.66257262
  H -0.71476202 -0.33828002  1.91678313
  H -2.35980128 -0.56821190  1.33218832
  H -1.10583467 -1.72665372  0.89210382
  H -2.93458110  0.40883269 -0.37571136
  H -2.94605571  1.60366527 -2.19487667
