17
opt_min/./Reactant_540_0_opt.xyz
  C -1.88576700 -0.33655700 -1.71867500
  C -0.46477557  0.00093462 -1.32199625
  O  0.37938809  0.26288296 -2.17239703
  C -0.17843087 -0.02343301  0.08981832
  C -1.22501546 -0.35870097  1.10717711
  N  1.04578714  0.24656746  0.55680251
  C  2.16419209  0.55980791 -0.08239310
  C  3.32643616  0.81468016  0.62816564
  N  4.28919079  1.02040973  1.22889916
  H -2.57315861  0.40920007 -1.32391484
  H -2.17710815 -1.31179355 -1.33519981
  H -1.95243694 -0.33995244 -2.80358207
  H -2.05754444  0.34336335  1.06355735
  H -0.80861195 -0.32753262  2.11337720
  H -1.62836065 -1.35800808  0.93925880
  H  1.13472719  0.19642624  1.57335738
  H  2.16419147  0.62597288 -1.15896015
