30
opt_min/./Reactant_2826_1_opt.xyz
  C -3.23892934 -0.69865374 -0.07308608
  C -1.94641656 -0.31824923  0.60383745
  O -1.69273233 -0.67704575  1.72441538
  C -0.96315407  0.53061522 -0.21552323
  C -1.59625179  1.86156719 -0.62517618
  C  0.25522755  0.71926456  0.54569106
  C  1.37344738  0.62010689  0.96402063
  C  2.72572635  0.08013583  1.06557589
  C  3.63677149  0.97461951  0.37167435
  N  4.31277224  1.69131470 -0.20544946
  C  3.15262886 -0.07504914  2.44340218
  N  3.45643840 -0.19345621  3.53719938
  C  2.65052610 -1.30083890  0.34297359
  C  1.96208818 -1.22859234 -1.03302012
  C  0.43442783 -1.48599430 -1.05657421
  C -0.45633828 -0.28609420 -1.43953128
  H -4.06584903 -0.32974334  0.53167411
  H -3.31242901 -1.78508271 -0.08549849
  H -3.33129606 -0.31842468 -1.08416706
  H -0.91891596  2.40527788 -1.28107647
  H -1.78098965  2.47122016  0.25708516
  H -2.53768578  1.71360926 -1.14704954
  H  2.10282067 -1.98485928  0.99498085
  H  3.66886724 -1.68180992  0.22949018
  H  2.17985327 -0.26247574 -1.49329325
  H  2.43856884 -1.98639923 -1.65852942
  H  0.11649682 -1.87336615 -0.08723750
  H  0.24384715 -2.27383498 -1.78853025
  H  0.10950472  0.39082973 -2.08326289
  H -1.31482261 -0.63890443 -2.01299393
