27
opt_min/./Reactant_2172_0_opt.xyz
  C  4.89830400  0.94584200  0.32979300
  N  3.57131337  0.41101922  0.14528005
  C  3.37377334 -0.83736061 -0.35972977
  O  4.30070518 -1.57198671 -0.65235166
  C  1.98159605 -1.27755792 -0.54869530
  N  0.94402574 -0.52419366 -0.35215037
  C -0.39887705 -0.70781583 -0.44185559
  C -0.93217961 -2.01583028 -0.72969391
  C -2.43648482 -2.22610842 -0.78215746
  O -0.19767373 -2.97512938 -0.92101832
  C -1.03887970  0.58920803 -0.13662009
  O -0.30601007  1.52811336  0.19667052
  N -2.37303474  0.73847006 -0.21056173
  C -3.01141578  1.98754644  0.13217688
  H  5.59908113  0.11318453  0.27637613
  H  4.97504431  1.43367906  1.30115339
  H  5.14616448  1.66597052 -0.45591825
  H  2.80062325  1.01991446  0.37033891
  H  1.84697620 -2.29994164 -0.87124611
  H  1.08144675  0.46639252 -0.05755658
  H -2.87671526 -1.68057212 -1.61588941
  H -2.60718457 -3.28964856 -0.94306737
  H -2.90678796 -1.93791593  0.15653786
  H -2.96249068 -0.02775412 -0.47877178
  H -3.42143006  1.95544850  1.14575540
  H -2.26241599  2.77773598  0.08638770
  H -3.81486640  2.19754307 -0.57243339
