34
opt_min/./Reactant_1647_0_opt.xyz
  C -3.77033868  1.38268769 -1.06855273
  N -2.91019416  0.53694468 -0.27432255
  C -1.79227063 -0.02392798 -0.77872132
  O -1.42491276  0.14459110 -1.91669924
  C -0.98658234 -0.87895531  0.24315684
  C -1.77073740 -2.16072243  0.54993025
  C -2.97803132 -2.04256643  1.45076413
  O -1.44046545 -3.21044110  0.06929678
  C  0.27725476 -1.15483737 -0.40063590
  C  1.37844476 -1.02906905 -0.86229265
  C  2.41584695 -0.08678771 -1.27773449
  C  2.71535440 -0.23461991 -2.69179187
  N  2.93348467 -0.35284583 -3.80550573
  C  3.64114409 -0.20791960 -0.51583356
  N  4.60738338 -0.27650476  0.08902123
  C  1.70037493  1.27739731 -1.01945154
  C  1.39626828  1.59294468  0.46043411
  C  0.82822851  0.59570767  1.49887244
  C -0.58991961 -0.02777820  1.48502356
  H -3.37111045  1.40270159 -2.08074013
  H -4.78613548  0.98553168 -1.08735645
  H -3.78854034  2.39779125 -0.66705652
  H -3.18626607  0.36647806  0.67799730
  H -3.18357506 -3.01832269  1.88484039
  H -3.84026097 -1.76618045  0.84504380
  H -2.83940049 -1.31279844  2.24326370
  H  2.33698520  2.09307181 -1.37835145
  H  0.78847836  1.26061859 -1.61912099
  H  0.76455510  2.48502468  0.44888646
  H  2.35514963  1.88542449  0.90310784
  H  0.82038957  1.19696656  2.41651390
  H  1.55986421 -0.19791152  1.65878998
  H -0.59257855 -0.69729102  2.35105156
  H -1.32832604  0.75480349  1.66396409
