29
opt_min/./Reactant_673_1_opt.xyz
  C  3.47531000 -2.41888000 -0.90446400
  O  2.83715027 -1.16322669 -0.73302565
  C  1.50022007 -1.16643991 -0.56430904
  O  0.83015971 -2.17013990 -0.53845693
  C  1.00078148  0.19651786 -0.42731344
  C -0.24673111  0.66621929 -0.21983296
  C -1.51054380  0.00709084  0.03043933
  C -2.68104002  0.49601079 -0.55618225
  C -3.89120653 -0.12543675 -0.32190715
  C -3.95700597 -1.22900684  0.51477762
  C -2.80461630 -1.71182484  1.11081112
  C -1.58696848 -1.10335043  0.86967087
  C -0.06936875  2.19768881 -0.25124665
  C  0.67807341  2.51337426  1.04436032
  C  1.90408432  2.05271145  0.84489455
  C  1.87098601  1.46109667 -0.56402234
  O  0.96303151  2.33890944 -1.20884356
  H  2.73120048 -3.21789302 -0.91082072
  H  4.01463084 -2.40242744 -1.85212332
  H  4.17722397 -2.56901786 -0.08334392
  H -2.62219551  1.34441702 -1.22171428
  H -4.78911669  0.24898147 -0.79077768
  H -4.90861003 -1.70689835  0.69496248
  H -2.84892417 -2.56952529  1.76522666
  H -0.69241461 -1.48242027  1.33633228
  H -0.94225177  2.79728205 -0.48630185
  H  0.25894603  2.97978135  1.91203022
  H  2.75054366  2.04310364  1.50010242
  H  2.80529062  1.35856897 -1.10253184
