31
opt_min/./Reactant_3051_0_opt.xyz
  C  4.18251596  1.74069580  0.27581255
  N  2.94598212  1.06086860  0.57203207
  C  2.17250987  0.51569836 -0.39555790
  O  2.48262513  0.57537512 -1.57957337
  C  0.92406274 -0.09762604  0.10469638
  C  0.57856979  0.19814732  1.42357234
  N  0.43502526  0.46956513  2.53578277
  N  0.08583121 -0.83546411 -0.67351059
  C  0.62271562 -1.41137666 -1.89280203
  C -1.18672830 -1.03730580 -0.39435482
  C -2.03175720 -2.10023185 -0.99624376
  C -1.48340431 -3.51095550 -0.92142166
  O -3.13650376 -1.85303503 -1.41776509
  C -1.91059524 -0.29267295  0.70436397
  O -2.41881470 -0.87145269  1.63622618
  N -1.97395700  1.03974647  0.49896320
  C -2.61677785  1.92772779  1.43749659
  H  4.14812428  2.77111315  0.63291981
  H  4.31134107  1.73534798 -0.80512111
  H  5.02559011  1.22850369  0.74350376
  H  2.66534939  0.99541122  1.53807190
  H  1.32221830 -2.21214551 -1.65095447
  H -0.18336320 -1.78135732 -2.51764116
  H  1.18233241 -0.64121890 -2.42818355
  H -0.70362484 -3.59321229 -0.17011136
  H -1.09208050 -3.83145293 -1.88463013
  H -2.30796258 -4.17279908 -0.66827929
  H -1.55840302  1.45088360 -0.32389296
  H -3.40603819  2.49658738  0.94578785
  H -1.88861059  2.61237188  1.87478972
  H -3.04519940  1.31120548  2.22476013
