18
opt_min/./Reactant_1266_0_opt.xyz
  C  2.29717499 -0.96997002 -0.18340793
  C  0.82109585 -0.93215160 -0.35357988
  N  0.03393009  0.11215395 -0.14305257
  C  0.65614279  1.41323099  0.03347926
  C -1.31619412 -0.01732086 -0.03560645
  C -2.29773754  1.07657788 -0.34844477
  C -1.83894381 -1.28817374  0.15982686
  N -2.29162614 -2.32080394  0.41758350
  H  2.74575880  0.01160320 -0.06549467
  H  2.56556344 -1.57546491  0.68793121
  H  2.75530750 -1.44944295 -1.05085062
  H  0.32204890 -1.87360351 -0.52005420
  H  1.21054554  1.69798823 -0.86133154
  H -0.09484512  2.16725408  0.24825799
  H  1.34036520  1.37434054  0.88305231
  H -2.91093337  0.79151363 -1.20831611
  H -2.97659035  1.23894792  0.49069416
  H -1.81452624  2.01871193 -0.58928615
