18
opt_min/./Reactant_4177_0_opt.xyz
  C -0.31473392 -1.07847210  2.45165731
  O -0.17654241 -0.77410450  1.07254930
  C  0.58544191  0.28088922  0.73308787
  O  1.25676236  0.91624055  1.52019030
  C  0.58801434  0.52785946 -0.69594011
  C  1.69246135  1.38902095 -1.23113882
  N -0.24949122 -0.00746601 -1.58111498
  C -1.40687300 -0.66558737 -1.51391428
  C -2.19421883 -0.89586382 -0.39977170
  N -2.97751720 -1.07423079  0.42882528
  H -1.37440968 -1.01553023  2.70066790
  H  0.04781217 -2.09319133  2.61418688
  H  0.26168939 -0.36710732  3.04628571
  H  2.57254416  0.79360956 -1.48536429
  H  1.99004040  2.09047194 -0.45671923
  H  1.37838306  1.94029494 -2.11514762
  H  0.05538457  0.15664780 -2.53978354
  H -1.82554512 -0.98837337 -2.45479045
