20
opt_min/./Reactant_2304_1_opt.xyz
  C  3.47269200 -0.81962901 -0.26390397
  O  2.06115378 -0.75397119 -0.42641389
  C  1.48418197  0.43063480 -0.17540027
  O  2.07398773  1.42168478  0.17004150
  C  0.03117822  0.34861266 -0.37371245
  C -0.90454351  1.29683602 -0.17370361
  C -0.78627686  2.61499394  0.26469747
  N -0.73267964  3.70470123  0.62073993
  C -2.23757143  0.59187270 -0.50657912
  C -2.43120271 -0.39510412  0.64789063
  C -1.51010388 -1.32558270  0.45319840
  C -0.77121971 -0.88477795 -0.81590292
  O -1.81929918 -0.26944687 -1.54384962
  H  3.71593912 -1.86083292 -0.06575921
  H  3.78876672 -0.18105165  0.56268109
  H  3.96385623 -0.48606574 -1.18033083
  H -3.07364540  1.22116159 -0.79278722
  H -3.15309265 -0.29117712  1.43116328
  H -1.26428986 -2.19514106  1.02589415
  H -0.24493808 -1.63652154 -1.39154406
