22
opt_min/./Reactant_1958_0_opt.xyz
  C  4.90894700 -0.32733300  0.41618000
  O  3.51307074 -0.47812184  0.22029231
  C  2.69916066  0.45552549  0.81116991
  O  3.10731616  1.37197720  1.47112140
  N  1.37352572  0.24177913  0.56919382
  N  1.02176864 -0.82355937 -0.06898777
  N -0.11977554 -1.20374994 -0.42303082
  C -1.28500612 -0.49966457 -0.22398271
  C -2.43075243 -1.10074640 -0.76357499
  C -3.66166994 -0.49742482 -0.62094584
  C -3.77645458  0.70340407  0.06380221
  C -2.64906586  1.30204694  0.60726643
  C -1.40793834  0.71337819  0.47049627
  H  5.31198145 -1.29773885  0.70489572
  H  5.09273572  0.41279011  1.19796492
  H  5.36377127  0.00323974 -0.51974898
  H  1.76716257 -1.49346273 -0.33236516
  H -2.32438101 -2.03512148 -1.29146948
  H -4.54053678 -0.96260829 -1.04368167
  H -4.74437972  1.16917395  0.17613614
  H -2.74257576  2.23603990  1.14091595
  H -0.52857195  1.17216069  0.89222256
