33
opt_min/./Reactant_4617_1_opt.xyz
  C -4.31108300  2.57825000  0.35014400
  N -3.44232029  1.49622501 -0.02879229
  C -2.17384443  1.41836707  0.40732570
  O -1.67944193  2.27327177  1.13950741
  C -1.39349677  0.27884452 -0.14384773
  C -1.96115658 -0.70450438 -1.00086108
  C -1.18130773 -1.97600851 -1.31086357
  O -3.12387417 -0.65374797 -1.42643432
  N -0.06434807  0.23314537  0.23624847
  C  0.20763984  0.44540753  1.64354107
  C  0.88772342 -0.04721737 -0.61585432
  C  2.30306635 -0.19602080 -0.35855586
  C  3.00063003 -1.17283475 -1.07967035
  C  4.35658920 -1.35157429 -0.89473646
  C  5.05154965 -0.54264744 -0.00918087
  C  4.38367271  0.45811697  0.67548580
  C  3.02304353  0.63629820  0.50631764
  H -4.97614486  2.82348444 -0.47639273
  H -3.70593886  3.45146479  0.60339404
  H -4.91061701  2.31422167  1.22854375
  H -3.77354402  0.77617697 -0.66960188
  H -0.42267603 -2.21562774 -0.56823702
  H -1.90591170 -2.78687158 -1.36169322
  H -0.71609295 -1.90451414 -2.29368229
  H -0.57569185 -0.04469140  2.22117661
  H  1.18000709  0.03428366  1.90638420
  H  0.16064099  1.51483071  1.86586175
  H  0.56487686 -0.22661685 -1.63186661
  H  2.46234436 -1.80558847 -1.77074884
  H  4.87616802 -2.12034755 -1.44548060
  H  6.11370283 -0.68179640  0.13200594
  H  4.92707360  1.11206979  1.34271364
  H  2.52792502  1.45694575  0.99873041
