34
opt_min/./Reactant_2996_1_opt.xyz
  C  3.18580255  2.32054699 -1.04031643
  O  1.85065701  1.85055402 -1.05668458
  C  1.31087901  1.45427836  0.14688523
  F  1.27649530  2.56426001  1.00744645
  C -0.01084725  0.91218466 -0.07259269
  C -0.87131901  0.07689416 -0.10050621
  C -1.52748479 -1.19897742 -0.11066765
  C -2.31330889 -1.47834736  1.19195585
  C -2.95544950 -0.28340129  1.83749991
  O -2.41199459 -2.59285674  1.62494409
  C -2.54739384 -1.38274747 -1.24936426
  C -3.38064656 -0.17251722 -1.56619508
  O -2.66151971 -2.43314242 -1.81758897
  C -0.37459066 -2.22620670 -0.25814646
  C  0.83887890 -2.03732659  0.67197807
  C  1.98015339 -1.07092363  0.25960577
  C  2.05129417  0.32741727  0.90505001
  H  3.34426350  3.03730316 -0.23108070
  H  3.90301958  1.49812121 -0.95569326
  H  3.32688256  2.81985305 -1.99582933
  H -3.96476382 -0.16798621  1.44546554
  H -3.03685170 -0.46050419  2.90727564
  H -2.39818767  0.62848745  1.64562510
  H -3.65297189 -0.19410150 -2.61875355
  H -2.85869621  0.74986164 -1.32985265
  H -4.30231051 -0.21840877 -0.98843280
  H -0.81657300 -3.20259635 -0.04763095
  H -0.03581838 -2.23075128 -1.29565582
  H  0.51379780 -1.81720586  1.68825365
  H  1.29986631 -3.02681282  0.69777698
  H  2.02402506 -0.98821587 -0.82601372
  H  2.90202010 -1.56130184  0.58007544
  H  1.64628064  0.29663918  1.91808035
  H  3.09887314  0.63021638  0.98224765
