16
opt_min/./Reactant_3824_0_opt.xyz
  C  3.50670100  0.31464800 -0.41809100
  N  2.32184346 -0.05444645 -1.11678676
  N  1.25265173  0.08880184 -0.49176283
  N  0.08394401 -0.19058409 -0.92485572
  C -0.89237180  0.08991359  0.03478478
  O -0.63105722  0.54549195  1.13873337
  N -2.12558448 -0.18361633 -0.42375095
  C -3.30963802 -0.05354774  0.38309558
  H  3.30051289  0.72123833  0.58306364
  H  4.04384568  1.05360333 -1.01204676
  H  4.14752719 -0.56285061 -0.32645211
  H  1.26191032  0.47100146  0.50514247
  H -2.18921013 -0.59598140 -1.33970236
  H -4.03130856  0.60527909 -0.10216118
  H -3.01152706  0.37740097  1.33682533
  H -3.77608566 -1.02520490  0.55914821
