14
opt_min/./Reactant_3271_0_opt.xyz
  C  1.78236700 -0.79932900 -0.00833500
  N  0.45992004 -0.90612170  0.08346966
  C -0.49203482 -0.00883066 -0.11029082
  C -1.91530808 -0.45574226  0.02664940
  C -0.12825297  1.39350515 -0.46565640
  H  2.39120235 -1.63576912  0.26427114
  H  2.23387676  0.14642400 -0.22139475
  H  0.11934670 -1.83517654  0.31070664
  H -2.08506029 -0.97442310  0.97444212
  H -2.20506614 -1.14367587 -0.77619396
  H -2.58418840  0.39778476 -0.00936245
  H  0.54598558  1.42701349 -1.32492005
  H -1.01898779  1.96301526 -0.71435959
  H  0.38201902  1.89229659  0.36522264
