25
opt_min/./Reactant_1156_0_opt.xyz
  C -5.01065608 -0.01281814  0.52326200
  N -4.21105612  1.16904820  0.32625115
  C -2.90249090  1.12135719 -0.05510876
  O -2.24236711  0.09754335 -0.04642724
  C -2.41638963  2.47760830 -0.40055874
  C -3.41035468  3.41986097 -0.70710461
  N -4.27181533  4.11347833 -1.03073903
  O -1.18275262  2.96422345 -0.48021605
  C  0.01359082  2.51666210 -0.41190222
  C  0.58095352  1.19383778 -0.45250992
  C  1.76989163  0.96944512  0.25287657
  C  2.38440270 -0.26220505  0.21926398
  C  1.83925675 -1.29073086 -0.53581743
  C  0.68843915 -1.06904554 -1.27377061
  C  0.05534957  0.15696772 -1.23150269
  H -5.90575238  0.24665429  1.07382496
  H -4.42882389 -0.75653222  1.07262155
  H -5.29535661 -0.44227531 -0.44163508
  H -4.53324482  2.08914511  0.58629778
  H  0.72426630  3.34016935 -0.38596822
  H  2.18927490  1.76933728  0.84533912
  H  3.28684488 -0.42973505  0.78777488
  H  2.32799208 -2.25238208 -0.56551767
  H  0.28071299 -1.86065894 -1.88312586
  H -0.81670093  0.32739297 -1.84018831
