55
opt_min/./Reactant_3180_0_opt.xyz
  C  3.25042885  0.49187184 -2.50685653
  C  2.57923074  1.54990387 -1.67097938
  O  2.46527185  2.69094189 -2.03653195
  C  1.98644291  1.04734814 -0.35096464
  C  2.99761185  0.22478988  0.41898360
  C  2.74631102 -1.09375015  0.77345509
  C  3.67736514 -1.81514679  1.49964034
  C  4.87333975 -1.22820789  1.87496154
  C  5.13566497  0.08292127  1.51639949
  C  4.20501521  0.80522534  0.79175967
  C  0.76270639  0.34641244 -0.63772895
  C -0.41432754  0.12686977 -0.63700726
  C -1.84440098  0.20099395 -0.49139721
  C -2.53486056 -0.65428938 -1.54142365
  C -3.59989883 -0.19817472 -2.30416044
  C -4.21288277 -1.03727624 -3.22077955
  C -3.77279358 -2.33772076 -3.38197014
  C -2.71367175 -2.80114584 -2.61940390
  C -2.10216547 -1.96556651 -1.70541048
  C -2.30492884 -0.28509927  0.87565283
  C -3.66285912 -0.25526817  1.17140883
  C -4.12372596 -0.67737078  2.40478911
  C -3.23479559 -1.14070535  3.35808579
  C -1.88311084 -1.18632102  3.06652319
  C -1.42127533 -0.76436810  1.83195846
  C -2.06909516  1.72315059 -0.63097125
  C -1.24613272  2.66418967  0.27843466
  C  0.25231711  3.04682203  0.12905950
  C  1.48759715  2.21705808  0.54483563
  H  3.73467586 -0.26425125 -1.89523327
  H  3.96644902  0.95305139 -3.18311487
  H  2.47815565  0.00778946 -3.10677603
  H  1.81439368 -1.55324396  0.47612946
  H  3.46785240 -2.83952973  1.77062917
  H  5.60058203 -1.79132901  2.44190751
  H  6.06973952  0.54554670  1.80083971
  H  4.42068991  1.82474372  0.50626337
  H -3.96389530  0.81171891 -2.19495719
  H -5.04078569 -0.66908164 -3.81065264
  H -4.25349952 -2.98924881 -4.09761000
  H -2.36471224 -3.81676836 -2.73656996
  H -1.27610822 -2.32736891 -1.10803999
  H -4.36889585  0.08524710  0.42777496
  H -5.18264921 -0.64586887  2.62090303
  H -3.59518067 -1.46848187  4.32240651
  H -1.18187521 -1.55225227  3.80318187
  H -0.36470162 -0.79351949  1.61316074
  H -1.90264780  2.00644944 -1.67291097
  H -3.11153363  1.93682832 -0.37619886
  H -1.44121076  2.40378882  1.32421236
  H -1.73247526  3.63201623  0.10246754
  H  0.32269912  3.90000089  0.81616432
  H  0.41779098  3.44000197 -0.87647673
  H  2.30325250  2.94418765  0.59271828
  H  1.33113940  1.82125382  1.55210429
