30
opt_min/./Reactant_5633_0_opt.xyz
  C  3.28216488  1.19806776  2.40060588
  N  1.97149557  1.55165673  1.91214697
  C  1.77947603  2.53935054  1.00270130
  O  2.66437542  3.26768214  0.60493287
  C  0.35534646  2.66475560  0.56443058
  C -0.21223399  3.93816462  0.57008546
  N -0.65254945  5.00199568  0.58597481
  O -0.43195062  1.65048457  0.24474880
  C -0.07489770  0.41259355  0.01846193
  C  1.34287121  0.03295601 -0.26069566
  C  1.98724124  0.85075977 -1.35276206
  O  1.87723390 -0.92987702  0.24262073
  C -1.13918907 -0.56083927 -0.09574968
  C -2.47385261 -0.14944597  0.06094802
  C -3.50351498 -1.05892003 -0.04547273
  C -3.23273679 -2.39513335 -0.30236970
  C -1.91977192 -2.81353990 -0.45250364
  C -0.87934357 -1.91248523 -0.35609528
  H  3.53434273  0.18333825  2.08396981
  H  3.31501391  1.25984762  3.48817665
  H  3.99448496  1.90417514  1.97828288
  H  1.19465506  1.02140590  2.27460721
  H  2.18045525  0.17659163 -2.18731196
  H  1.36170024  1.67152677 -1.69530848
  H  2.94927859  1.24948188 -1.03413345
  H -2.69050888  0.88830262  0.26355559
  H -4.52268911 -0.72411813  0.07602896
  H -4.03807103 -3.10909263 -0.38423779
  H -1.70532297 -3.85318803 -0.64939072
  H  0.13906091 -2.24767793 -0.46798500
