26
opt_min/./Reactant_2498_1_opt.xyz
  F -2.36753242 -0.76318384  2.39374592
  C -1.89232145 -1.03369799  1.14979043
  F -2.49532871 -2.19158840  0.77827922
  C -0.44436907 -1.11431366  1.10924984
  C  0.62599852 -0.78556740  0.67682523
  C  1.65413623 -0.01649782  0.00920448
  C  2.23904875 -0.82386214 -1.16713732
  F  3.22058479 -0.17639631 -1.79831651
  F  1.31293099 -1.09185922 -2.09387925
  F  2.72685323 -1.99843526 -0.76417712
  C  2.78869325  0.31659242  1.00749159
  F  3.87283989  0.82156340  0.41781370
  F  3.17355757 -0.75430830  1.69881819
  F  2.38772245  1.22865042  1.90122921
  C  0.91530858  1.27815166 -0.42653347
  C -0.33033956  1.15125810 -1.33447777
  C -1.45654859  0.11468476 -1.13554326
  C -2.25891566  0.11400899  0.17892569
  H  0.63020909  1.78904346  0.49459807
  H  1.62704369  1.91484191 -0.95814151
  H  0.01690818  0.99152188 -2.35676612
  H -0.79285610  2.14011059 -1.30917495
  H -1.08564560 -0.88991394 -1.33546557
  H -2.16334392  0.34386250 -1.93670946
  H -3.32080031 -0.01781998 -0.04434892
  H -2.14031086  1.05180748  0.72352023
