24
opt_min/./Reactant_1628_0_opt.xyz
  C -3.15210400  1.18562600 -0.24504200
  C -2.45425137 -0.09269800 -0.56188905
  C -3.27794225 -1.23984495 -1.05114723
  N -1.14812517 -0.24839294 -0.46144373
  C -0.16227975  0.56218509 -0.05611351
  C  1.20290829  0.18014946 -0.05905345
  C  2.16606221  1.10568380  0.38879872
  C  3.50561632  0.79406556  0.41502561
  C  3.94714574 -0.45342936 -0.00233574
  C  3.01951881 -1.38019892 -0.45186449
  C  1.67620127 -1.07715452 -0.48302203
  H -2.44917552  1.99597145 -0.07929875
  H -3.77152064  1.07866724  0.64861433
  H -3.81300877  1.46611379 -1.06747738
  H -4.19185668 -1.33097366 -0.46345496
  H -3.57745857 -1.09722456 -2.09393745
  H -2.73188944 -2.18023955 -0.98381520
  H -0.81199290 -1.17006131 -0.73243644
  H -0.42806619  1.54444131  0.29326366
  H  1.83221636  2.08076763  0.71641212
  H  4.22008488  1.52781406  0.76286941
  H  4.99813787 -0.69927751  0.02167306
  H  3.35226628 -2.35537216 -0.78175350
  H  0.98863282 -1.83034842 -0.84973219
