27
opt_min/./Reactant_1217_0_opt.xyz
  C -3.00800700 -1.29462700 -0.32919500
  C -2.73070987 -0.01499101  0.46994980
  O -3.66567784  0.63817185  0.89025820
  C -1.34085627  0.36404588  0.59738835
  C -0.98761673  1.70434673  0.99887446
  C  0.40963671  1.90866628  1.58605456
  O -1.75069828  2.65034058  0.95533974
  N -0.35314279 -0.60084423  0.41410406
  C -0.41947175 -1.78428296  1.25554460
  C  0.66237910 -0.42669377 -0.39774509
  C  0.64964675  0.67138368 -1.39469050
  C  1.82370112 -1.35954560 -0.38141226
  H -2.21712404 -1.53023491 -1.03545022
  H -3.15703346 -2.13411261  0.34837184
  H -3.94078283 -1.14229908 -0.86689747
  H  0.92371176  0.98351179  1.83219485
  H  1.02342964  2.49313542  0.90289837
  H  0.28080060  2.49922350  2.49079921
  H -1.25824155 -1.68121913  1.93780220
  H -0.55370371 -2.68826280  0.65681948
  H  0.49804043 -1.89096115  1.83515690
  H  1.04276892  0.30607203 -2.34385334
  H  1.26729939  1.51469165 -1.08916643
  H -0.36624354  1.04318501 -1.52766511
  H  1.53923716 -2.36231462 -0.70180377
  H  2.24326381 -1.44658250  0.62245191
  H  2.60361898 -0.99882107 -1.04593405
