28
opt_min/./Reactant_783_1_opt.xyz
  C -0.81758203  3.98555124  0.57609689
  N -0.95282777  2.55993359  0.38792934
  C  0.11488724  1.79395563  0.06843866
  O  1.24105725  2.24622640 -0.06625639
  C -0.15339297  0.33797928 -0.06355867
  N  0.91135885 -0.38504781 -0.02673793
  C  2.02051069 -0.79585373  0.00940324
  C  3.37213684 -1.11029736  0.01435182
  C  4.13843835  0.20391157  0.17903999
  O  3.89873704 -2.19980843 -0.08218677
  C -1.45991406 -0.29346329 -0.18621197
  C -2.49675216  0.31425464 -0.89904844
  C -3.72551582 -0.30872789 -1.01116789
  C -3.94177581 -1.54561250 -0.42668681
  C -2.91221531 -2.16705596  0.26221334
  C -1.68260497 -1.55093230  0.38138331
  H -1.65636222  4.35894291  1.15711328
  H -0.78643600  4.50024036 -0.38770270
  H  0.11705824  4.19268435  1.09978186
  H -1.83714704  2.12180275  0.58502162
  H  3.49302542  1.06935876  0.04574747
  H  4.94561243  0.22031745 -0.54936078
  H  4.57166326  0.22410545  1.17741613
  H -2.32543282  1.25746908 -1.39707533
  H -4.51753905  0.17038185 -1.56804214
  H -4.90324930 -2.02798487 -0.51592366
  H -3.06804021 -3.13680312  0.71086093
  H -0.88097526 -2.03374699  0.92198438
