38
opt_min/./Reactant_2812_0_opt.xyz
  C -2.42208621  3.02368226 -1.64306306
  N -1.74659596  1.91060273 -1.02478529
  C -2.33277862  1.12232282 -0.10495305
  O -3.49390738  1.24930756  0.23339431
  C -1.40755118  0.05759446  0.50428087
  C -2.19399433 -1.19342448  0.96919609
  O -1.89765596 -1.80299511  1.97209356
  N -3.16563877 -1.57597905  0.12342458
  C -3.98883023 -2.73314399  0.38116157
  C -0.33702797 -0.35726342 -0.36760578
  C  0.74938909 -0.55972265 -0.84278408
  C  2.17002331 -0.30944249 -0.96132485
 Cl  2.42348056  0.67296450 -2.51542821
  O  2.87065931 -1.48177335 -1.03256174
  C  4.28238668 -1.39085886 -1.04834393
  C  2.50695781  0.62839828  0.22480460
  C  1.49310534  1.77883322  0.40969645
  C  0.41580672  1.74062972  1.51657505
  C -0.62988685  0.62454908  1.71817428
  H -2.33745992  2.96402013 -2.72948893
  H -1.99811344  3.97115268 -1.30130190
  H -3.47246476  2.97773179 -1.35781650
  H -0.79537212  1.71381807 -1.29885276
  H -3.42932543 -0.97993253 -0.64435554
  H -3.74788891 -3.53837472 -0.31762781
  H -5.04356965 -2.47457692  0.28532934
  H -3.78259046 -3.07088859  1.39620834
  H  4.62075744 -0.76353455 -1.87882710
  H  4.63734631 -2.41084075 -1.18697753
  H  4.67347464 -0.99406427 -0.10762559
  H  3.48518581  1.07920626  0.05075980
  H  2.57600519  0.01867474  1.12752100
  H  1.04460848  1.99481490 -0.56021205
  H  2.08052343  2.66885792  0.65853894
  H -0.13531775  2.67870695  1.39007685
  H  0.93927859  1.79467288  2.47552672
  H -0.16712252 -0.23989677  2.20111708
  H -1.36476219  1.03129636  2.42144174
