17
opt_min/./Reactant_2636_1_opt.xyz
  C -2.13668184 -2.11090716 -0.55120897
  C -4.66784491 -15.77860019  2.48515131
  O -32.20902045 -7.84476565 -29.33823406
  C -23.72612286 -10.03023098 -23.33807199
  C -28.13442758 -46.51170974 -23.34634486
  N -17.89321283 -8.45747284  10.38182187
  C  23.29494855 -26.26596316 -5.26714639
  O -19.05713874 -1.91096760 -15.46323975
  O  35.90695091 -2.75859334  24.38533119
  C -14.92841459  3.27616475 -6.95968861
  H -2.44164510 -11.73316533  1.19454632
  H -6.36698242 -8.89095858  3.13635995
  H -4.68799978 -10.25385447  13.54904139
  H -35.59335935 -31.57843001  26.72692185
  H -5.18456886  3.14597718 -6.48013245
  H -6.24937809 -1.29065378 -16.17321205
  H -2.18252954 -3.72710108 -18.56827945
