23
opt_min/./Reactant_4232_1_opt.xyz
  C  2.27623161 -1.36578787 -3.11536505
  O  1.35375024 -1.00638051 -2.09675715
  C  1.35333728  0.32681431 -1.76290956
  O  2.10175168  1.11529959 -2.27670160
  C  0.37875194  0.61069354 -0.71495334
  N -0.27598665 -0.45661369 -0.22156056
  C -1.35194616 -0.61776852  0.53309655
  C -1.81064958 -2.01397227  0.83552166
  C -2.13633561  0.42257008  1.02127640
  N -2.86263364  1.21252554  1.43989991
  C  0.28700751  2.00333303 -0.23174817
  C  0.23679754  2.18981544  1.26993826
  O  0.35773312  2.94291027 -0.98738930
  H  2.27758469 -2.45217028 -3.15372462
  H  1.96238734 -0.94390439 -4.07068702
  H  3.27227222 -0.99234241 -2.87067001
  H  0.08891677 -1.31981651 -0.63177595
  H -0.95945787 -2.67724666  0.98520091
  H -2.42124224 -2.02426484  1.73396988
  H -2.41075036 -2.40513103  0.01177416
  H  0.88615194  3.02431349  1.52397749
  H -0.76949419  2.46178084  1.58107850
  H  0.55192986  1.30220548  1.81323632
