12
opt_min/./Reactant_1117_0_opt.xyz
  C -2.56014605  0.10248342 -0.43591222
  C -1.37188877  1.04227213 -0.49713007
  O -1.44842363  2.24388761 -0.66004121
  C -0.15525078  0.37370928 -0.30613934
  N  0.87872782 -0.18014040 -0.18197587
  C  1.98959456 -0.80019162 -0.06148679
  C  3.21307728 -0.13012958 -0.02757980
  N  4.23932283  0.38588510  0.00384007
  H -2.32447860 -0.86987751 -0.86084675
  H -2.85377129 -0.03097679  0.60478987
  H -3.39051522  0.55377647 -0.97228277
  H  1.99258694 -1.87724199  0.01287716
