19
opt_min/./Reactant_3382_1_opt.xyz
  C -2.99907567 -0.56985835  0.36644223
  N -1.62692632 -0.14969825  0.23404837
  C -0.62454852 -1.02847122  0.01435228
  O -0.77830381 -2.23295267 -0.06188353
  C  0.72804752 -0.42334676 -0.12642068
  C  1.89327360 -1.30780897 -0.35782299
  O  0.79876127  0.86117553 -0.04161379
  C  1.86337892  1.65406381 -0.12139583
  C  1.60510534  3.02482308  0.05311480
  N  1.39290032  4.14434687  0.20005261
  C  3.19395058  1.29101701 -0.36297142
  N  4.31072321  1.10697475 -0.57138494
  H -3.58063532 -0.29186831 -0.51544295
  H -3.00470336 -1.65379135  0.46702771
  H -3.44761978 -0.11419317  1.24871302
  H -1.43263922  0.83863373  0.26480028
  H  2.36845747 -1.08478895 -1.31580147
  H  1.54820410 -2.33861777 -0.35881989
  H  2.64794787 -1.17345627  0.41966239
