26
opt_min/./Reactant_5845_0_opt.xyz
  C  0.71601900  1.41228200  0.33446500
  O  1.02052065  2.54485558  0.65430509
  C -0.56689779  1.13148725 -0.35591293
  O -1.23225654  2.28027052 -0.59905464
  C -2.61646206  2.29154050 -0.87806555
  C -0.94146116 -0.14047578 -0.69271508
  O -2.09982346 -0.30674581 -1.40030594
  C -2.70964064 -1.57459163 -1.54527673
  C -0.06130132 -1.28096871 -0.37987318
  O -0.34796984 -2.43040552 -0.68135685
  C  1.21615850 -0.99423178  0.31557952
  C  2.06957892 -2.17907126  0.62631706
  C  1.59750133  0.26016302  0.62066685
  C  2.90072877  0.57007399  1.27865564
  H -2.90236446  3.34174570 -0.84703227
  H -2.83276650  1.87975507 -1.86488008
  H -3.18085409  1.73885372 -0.12390324
  H -3.67989733 -1.36172751 -1.99286447
  H -2.13431772 -2.22469857 -2.20697992
  H -2.85007701 -2.07672683 -0.58659530
  H  2.35947382 -2.18085255  1.67408740
  H  1.52777598 -3.09153269  0.39506244
  H  2.97983557 -2.15317521  0.02939383
  H  2.96061218  0.09160104  2.25504151
  H  2.99617006  1.64413093  1.40461572
  H  3.72890429  0.20016147  0.67830323
