30
opt_min/./Reactant_2690_1_opt.xyz
  C  2.55433600 -2.70929800  0.83689200
  N  1.77339211 -1.50533823  0.71855523
  C  2.24738398 -0.39263259  0.10558168
  O  3.34668347 -0.33944678 -0.41346488
  C  1.32484193  0.75166713  0.10232741
  C -0.00408116  0.89383937  0.20494758
  C -1.09964421 -0.05697741  0.27239586
  C -1.09638787 -1.19439134 -0.53792367
  C -2.14850324 -2.08865364 -0.49042891
  C -3.21396285 -1.86762401  0.36799219
  C -3.22630289 -0.74183535  1.17450475
  C -2.18207036  0.16263647  1.12426312
  C -0.22153002  2.42126090  0.11109329
  C  0.08122162  2.75606683 -1.35000807
  C  1.39126933  2.61038191 -1.46248326
  C  1.85474934  2.18778196 -0.06862142
  O  0.94487099  2.90148026  0.75497079
  H  1.99371284 -3.56482427  0.45645478
  H  3.45851852 -2.57125134  0.24631880
  H  2.83174882 -2.89893947  1.87680325
  H  0.87174798 -1.47746308  1.16600151
  H -0.27128314 -1.35475773 -1.21625610
  H -2.14034229 -2.96103954 -1.12713349
  H -4.03454623 -2.56862399  0.40570996
  H -4.05477092 -0.56568428  1.84509278
  H -2.18756815  1.03373880  1.76236888
  H -1.13075402  2.82528823  0.54038868
  H -0.66533206  3.01162829 -2.07405197
  H  2.04472766  2.71610498 -2.30300985
  H  2.89180901  2.35163017  0.19529940
