21
opt_min/./Reactant_2524_1_opt.xyz
  C  2.10306358 -1.91889735  2.11352401
  O  1.75068467 -0.99992087  1.09357278
  C  0.44009858 -0.66147871  0.99837347
  O -0.40111158 -1.12548304  1.74881099
  C  0.21996007  0.28428261 -0.07478896
  C  1.37466707  0.72715459 -0.91205433
  N -0.99706884  0.78667575 -0.33120485
  C -2.15032599  0.27874156  0.38821584
  C -1.26147448  1.73691077 -1.23220609
  C -0.38707078  2.56458331 -1.91834624
  N  0.20691696  3.35637950 -2.51197946
  H  2.79928655 -2.63628980  1.68135026
  H  2.58475707 -1.38083945  2.93193241
  H  1.21079644 -2.42640476  2.48497036
  H  2.22674263  0.07881195 -0.74017800
  H  1.67315553  1.75081196 -0.68352813
  H  1.10308752  0.68662619 -1.96828440
  H -2.21414162 -0.80389169  0.28862826
  H -3.06056618  0.73577412  0.00645650
  H -2.05288353  0.49458167  1.45179757
  H -2.30207518  1.96286565 -1.41431507
