31
opt_min/./Reactant_2202_1_opt.xyz
  C -0.96882336  2.56024156  1.42514291
  O -0.79679270  1.17453105  1.65048131
  C -1.11946081  0.35345536  0.56289495
  O -2.46840453  0.59717381  0.23721077
  C -2.94422796 -0.01909615 -0.93330294
  C -0.16210797  0.54182628 -0.53128219
  C  0.84524609  0.27000077 -1.13272001
  C  2.08555652 -0.38967499 -1.43696388
  C  3.28586444  0.55209477 -1.52410226
 Br  1.89805471 -1.39617877 -3.16149043
  C  2.21021805 -1.39635030 -0.27501342
  C  1.11318416 -2.46718416 -0.15741529
  C -0.38655549 -2.12545554 -0.00958402
  C -0.84782686 -1.10844449  1.04934991
  H -2.01134807  2.79610610  1.20197055
  H -0.66701564  3.04920352  2.34835921
  H -0.33250284  2.89958524  0.59938220
  H -3.05271115 -1.10114017 -0.80774310
  H -3.92241284  0.41958187 -1.12322548
  H -2.28320946  0.18031906 -1.78470348
  H  3.60937981  0.69954998 -2.55133669
  H  3.02388940  1.52393913 -1.10870139
  H  4.12330506  0.15138121 -0.95652008
  H  2.24754536 -0.80499973  0.64335207
  H  3.15644147 -1.93554691 -0.37553761
  H  1.17466783 -3.09893501 -1.04846233
  H  1.39741032 -3.09588202  0.69073455
  H -0.85129938 -3.08223238  0.24806375
  H -0.78201158 -1.83941353 -0.98434222
  H -1.79217773 -1.44819503  1.48284213
  H -0.12219458 -1.03344542  1.85886479
