29
opt_min/./Reactant_2830_1_opt.xyz
  C  5.16172500  0.13725000 -0.18933800
  O  3.81966533  0.33434971  0.22579767
  C  2.87514774 -0.26267556 -0.52419789
  O  3.10979987 -0.95358794 -1.50561936
  C  1.54035630 -0.00760440 -0.06027129
  N  0.57644275 -0.57217300 -0.77863927
  C -0.73861268 -0.53426406 -0.64660571
  C -1.60668708 -1.20812029 -1.59747983
  C -0.94263159 -1.87147256 -2.79005910
  O -2.81499594 -1.24690582 -1.44462724
  C -1.34444982  0.16582606  0.50595588
  C -2.23221486  1.21563199  0.28149103
  C -2.82266426  1.86652316  1.34956306
  C -2.53722901  1.47518016  2.64733082
  C -1.66241046  0.42560266  2.87501505
  C -1.06759566 -0.22782916  1.81077390
  H  5.78664671  0.35056841  0.67526175
  H  5.30507118 -0.89166438 -0.52870521
  H  5.40340198  0.81908192 -1.00928244
  H  1.33272305  0.60451000  0.79788878
  H  0.97152585 -1.11222370 -1.56046498
  H -1.71476794 -2.11731686 -3.51400238
  H -0.19967441 -1.23482890 -3.26427083
  H -0.46769415 -2.80023562 -2.47391458
  H -2.45998919  1.51219264 -0.73077024
  H -3.50948102  2.68045381  1.16855693
  H -3.00038110  1.98346142  3.48009389
  H -1.44593385  0.11022802  3.88515409
  H -0.39421712 -1.05462149  1.99012512
