33
opt_min/./Reactant_2509_0_opt.xyz
  C  2.31511823  3.00250931  2.08758055
  O  1.42286460  2.17021829  1.35542008
  C  1.88916826  1.00823918  0.91485358
  O  3.00369819  0.59986399  1.09180159
  C  0.78911280  0.22605759  0.19070805
  C  1.43975288 -0.60858305 -0.91206752
  O  1.36156234 -0.35299603 -2.08184955
  O  2.09187604 -1.64177688 -0.39618970
  C  2.83344858 -2.46835754 -1.28508506
  C -0.25805775  1.06516798 -0.33817976
  C -1.34677714  1.51431692 -0.56574401
  C -2.79596960  1.46943872 -0.51901916
  F -3.32235276  2.48886995  0.26129436
  C -3.36874595  1.55233488 -1.85545468
  N -3.84425221  1.59629380 -2.89216680
  C -3.13707053  0.10275454  0.14564614
  C -2.20158988 -1.05585183 -0.26168300
  C -1.09522045 -1.53464873  0.70365835
  C  0.03162717 -0.63042440  1.24087512
  H  2.77358741  3.72511463  1.41069461
  H  1.72006548  3.51965231  2.83759466
  H  3.09220325  2.39740173  2.55830818
  H  3.89362025 -2.23840492 -1.16882338
  H  2.64253797 -3.50297679 -1.00437896
  H  2.52352858 -2.28512954 -2.31563980
  H -3.12741520  0.24860549  1.22607103
  H -4.15603358 -0.16319991 -0.14037966
  H -1.77485429 -0.85143697 -1.24437700
  H -2.83895386 -1.93656747 -0.38794671
  H -0.61498371 -2.36540265  0.18014655
  H -1.58204593 -1.94399622  1.59252874
  H  0.75283164 -1.30165262  1.71587735
  H -0.35650388  0.05230934  1.99965126
