27
opt_min/./Reactant_2286_0_opt.xyz
  C -2.65692405 -2.02893368  2.85027264
  O -1.60877277 -1.47378057  2.05958092
  C -1.89585654 -0.41319285  1.25782963
  O -2.97118998  0.11220592  1.20551591
  C -0.71118850 -0.06617806  0.45531890
  N  0.41248087 -0.70493140  0.74356947
  C  1.68120062 -0.56230757  0.34588493
  C  2.59492929 -1.52593092  0.79874163
  N  3.29920949 -2.35462647  1.16898820
  C  2.17981282  0.59916976 -0.39731059
  O  1.56201511  1.60643927 -0.64315175
  O  3.47240774  0.42325577 -0.71604896
  C  4.09816626  1.51197308 -1.37936927
  C -0.90947742  0.81771578 -0.73077310
  O -1.56956692  1.81471010 -0.72890711
  O -0.36691727  0.25696428 -1.81981833
  C -0.52577683  0.99591144 -3.02545152
  H -2.76474598 -3.06838687  2.53754447
  H -3.59084302 -1.49050481  2.67965379
  H -2.36988202 -1.95628616  3.89883283
  H  0.26240212 -1.41433555  1.47158198
  H  5.15788727  1.27448474 -1.39979389
  H  3.90843956  2.44603110 -0.84804552
  H  3.70761036  1.60579434 -2.39473782
  H  0.19565330  0.58966739 -3.72834954
  H -1.53870357  0.86740254 -3.41263112
  H -0.34872386  2.05459323 -2.82964467
