17
opt_min/./Reactant_3413_1_opt.xyz
  C -4.14004772 -0.42136186 -0.50419619
  N -2.76715185 -0.04268336 -0.27697225
  C -1.75495633 -0.93919593 -0.37013870
  O -1.89111304 -2.11505824 -0.62948451
  C -0.46402016 -0.35612036 -0.11289591
  N  0.66104602 -0.11150479  0.08668874
  N  1.72226191  0.41675980  0.38411229
  C  2.95050558 -0.18951938  0.20205583
  C  4.05247781  0.68370076  0.74526123
  O  3.10586591 -1.26690684 -0.31845233
  H -4.76394882 -0.11779079  0.33660880
  H -4.16299274 -1.50506319 -0.61283186
  H -4.52586507  0.04113601 -1.41656478
  H -2.56467910  0.91828302 -0.04828324
  H  4.26845215  0.38607147  1.76962589
  H  4.95188409  0.53527037  0.15012859
  H  3.76192326  1.72949669  0.73872529
