15
opt_min/./Reactant_2466_0_opt.xyz
  C  1.31735436  0.25973776 -2.22790638
  O  0.66930936 -0.15894495 -1.03333241
  C -0.44431227 -0.88895575 -1.17854657
  O -0.90339854 -1.24461513 -2.23711824
  C -1.03270970 -1.27314622  0.10608968
  O -0.79724040 -0.84194504  1.29445530
  C -0.07578236  0.12948917  1.79532045
  C -0.08430141  0.22966925  3.20544264
  N -0.07891873  0.32696621  4.34845016
  C  0.64896350  1.14696207  1.14560451
  N  1.20988459  2.05191219  0.71354965
  H  2.24834961  0.72144469 -1.91354101
  H  1.49683234 -0.59845443 -2.87688016
  H  0.69209915  0.98160678 -2.75531038
  H -1.76819088 -2.06696058  0.07762802
