50
opt_min/./Reactant_2773_0_opt.xyz
  C  0.67475400 -0.77339374  0.21966451
  C -0.27043163 -0.07666632 -0.02823222
  C -1.56053732  0.25617488 -0.60732833
  C -2.64035569 -0.19178488  0.36067674
  C -2.73281013  0.49344817  1.56880290
  C -3.68600355  0.15343495  2.50886762
  C -4.56512979 -0.88646741  2.25614648
  C -4.47293049 -1.58231934  1.06478417
  C -3.51626598 -1.24089690  0.12273201
  C -1.72787801  1.72914411 -0.91734153
  C -0.63457475  2.58375713 -0.94023478
  C -0.79497759  3.92108042 -1.25709448
  C -2.05123935  4.41618374 -1.56044581
  C -3.14640121  3.56868130 -1.54561130
  C -2.98495552  2.23294431 -1.22608793
  C -1.51156174 -0.52069963 -1.95856332
  C -0.82075357 -1.90400535 -1.91723868
  C  0.63490502 -1.97619802 -2.43530903
  C  1.88694266 -1.54951840 -1.62615986
  C  1.82243738 -1.60731305 -0.08423647
  C  3.13224105 -1.13803484  0.49626069
  C  3.38883715  0.21579725  0.66621292
  C  4.60220994  0.64662337  1.16991591
  C  5.58070788 -0.27474756  1.50457406
  C  5.33417333 -1.62598051  1.33374587
  C  4.11886980 -2.05573817  0.83214154
  H -2.04754668  1.30573083  1.76839995
  H -3.74303728  0.69981489  3.43917362
  H -5.31468470 -1.15515255  2.98610631
  H -5.15088569 -2.39932198  0.86355572
  H -3.45963079 -1.80932483 -0.79216848
  H  0.34629113  2.19479052 -0.70403567
  H  0.06285915  4.57739697 -1.26647179
  H -2.17753094  5.46057439 -1.80691007
  H -4.12877993  3.94997779 -1.78279088
  H -3.84285218  1.57564145 -1.20801597
  H -0.99313731  0.11319853 -2.68311944
  H -2.53398276 -0.63676290 -2.32579588
  H -1.39769047 -2.55102668 -2.58657845
  H -0.90031439 -2.34606844 -0.92446853
  H  0.65674304 -1.37510029 -3.34763470
  H  0.76793518 -3.01755370 -2.73863024
  H  2.71852157 -2.16792459 -1.97647751
  H  2.13621797 -0.51860381 -1.89200398
  H  1.62327608 -2.62852275  0.26051320
  H  2.62245962  0.93406218  0.41026035
  H  4.78613064  1.70292525  1.30138581
  H  6.52905656  0.05964004  1.89842790
  H  6.09343137 -2.34979230  1.59333792
  H  3.93255292 -3.11319822  0.70288455
