10
opt_min/./Reactant_31_1_opt.xyz
  C -1.40930100 -0.02746000  0.05875700
  C  0.05918881 -0.16795931  0.00629495
  O  0.68278040 -1.31932197  0.01948822
  N  1.97726718 -1.19332104 -0.03537254
  O  2.24804800  0.11033788 -0.08642720
  C  1.07914905  0.86452352 -0.06205935
  O  1.03914426  2.06068936 -0.10157971
  H -1.79555223 -0.36437264  1.02149540
  H -1.88585038 -0.62165652 -0.72018128
  H -1.65480105  1.02305420 -0.07618566
