19
opt_min/./Reactant_1150_1_opt.xyz
  C  2.23865516  1.64037059  0.64841018
  C  2.66612352  0.19723818  0.55716661
  O  3.78411884 -0.19041261  0.79142677
  C  1.58873592 -0.74102337  0.15310845
  C  1.88213615 -2.11454104  0.08029148
  N  2.20346625 -3.21673797  0.04945486
  O  0.42014067 -0.21674844 -0.11589617
  C -0.68322433 -0.81011348 -0.48794891
  C -0.82732171 -2.20040710 -0.64948465
  N -1.04047179 -3.32055553 -0.78579655
  C -1.85789531  0.06287869 -0.74378211
  C -1.61094103  1.53083019 -0.50784086
  O -2.91251037 -0.39248757 -1.11151775
  H  1.90743007  1.99674041 -0.32473251
  H  3.08374346  2.23731285  0.97960317
  H  1.41970719  1.74994115  1.35552679
  H -2.53697282  2.07484152 -0.66885869
  H -0.85507949  1.89612576 -1.20044621
  H -1.26176853  1.70136396  0.50782028
