31
opt_min/./Reactant_4970_0_opt.xyz
  C -3.11078400 -2.25861500 -0.17265600
  C -1.89848316 -1.42401471 -0.38402732
  N -1.78986641 -0.14964062 -0.08163528
  C -2.96614606  0.51481462  0.45734172
  C -0.63562918  0.55818126 -0.22655394
  C -0.62912421  2.00430857 -0.28267220
  O -1.62364017  2.71633006 -0.42659154
  N  0.61040166  2.57495680 -0.17487374
  C  0.79437865  3.99921227 -0.23974833
  C  0.62128790 -0.18419664 -0.41455773
  C  1.45078086  0.05531126 -1.51218435
  C  2.64745979 -0.62166192 -1.65707784
  C  3.04040885 -1.55471873 -0.71242256
  C  2.22565943 -1.80749687  0.38042285
  C  1.03104245 -1.13215734  0.52834550
  H -3.10348234 -2.72885228  0.81536867
  H -4.03438700 -1.69553956 -0.27554019
  H -3.11875129 -3.05833781 -0.90960207
  H -1.02204012 -1.91604198 -0.77142840
  H -3.67574908  0.72923696 -0.34120003
  H -3.43517584 -0.12112465  1.20542636
  H -2.68510035  1.46028455  0.90882457
  H  1.40881532  1.99538222  0.01324544
  H  0.89013526  4.43966315  0.75868338
  H  1.68528062  4.23903597 -0.82033953
  H -0.08643843  4.42339175 -0.71974492
  H  1.14016216  0.77396327 -2.25667868
  H  3.27402985 -0.42533457 -2.51511411
  H  3.97425522 -2.08452420 -0.82754980
  H  2.52901731 -2.53061541  1.12382009
  H  0.40404479 -1.32952737  1.38679258
