21
opt_min/./Reactant_377_0_opt.xyz
  C  3.36335700 -0.67916000  0.01218700
  N  2.23947656  0.08216380 -0.46215520
  C  0.93843476 -0.30970091 -0.22639556
  O  0.71064215 -1.32142716  0.44069390
  C -0.02656380  0.54148240 -0.84619205
  N -1.38150379  0.45366619 -0.81813415
  C -2.28838611 -0.07378193 -0.02438623
  C -2.01449806 -0.72955048  1.27975522
  C -3.71870257  0.09865313 -0.44422605
  H  3.95209036 -0.10879734  0.73733853
  H  4.01374361 -0.98236473 -0.81313028
  H  2.95966741 -1.56634021  0.49908984
  H  2.42060713  0.91111865 -1.00370223
  H  0.33651927  1.24752828 -1.57805534
  H -1.80547842  0.93865144 -1.60767746
  H -0.95640551 -0.94111826  1.39683147
  H -2.35725764 -0.09486762  2.09882434
  H -2.55732740 -1.67332486  1.34104122
  H -3.95746487  1.15479107 -0.58991007
  H -3.93132458 -0.42287516 -1.37975961
  H -4.38312079 -0.29895757  0.31639633
