10
opt_min/./Reactant_637_0_opt.xyz
  C -1.87379389 -0.38924416  0.71545995
  O -0.66363936  0.29948001  0.43000496
  C  0.27136663 -0.41034300 -0.20151100
  O  0.17140739 -1.55974791 -0.53702962
  C  1.45210849  0.38915424 -0.44095740
  C  2.44548512  1.03102845 -0.67136469
 Br  3.94418187  1.94312305 -1.01963344
  H -2.43342489  0.24860829  1.39498879
  H -2.44209677 -0.55143409 -0.20246284
  H -1.66337755 -1.35537114  1.17742206
