29
opt_min/./Reactant_2514_1_opt.xyz
  C  3.23770133 -0.82841391 -3.16118933
  N  2.38496027 -0.91086649 -1.99583544
  C  1.07442396 -0.61429833 -2.08185150
  O  0.53871404 -0.21304106 -3.08839159
  C  0.28756960 -0.83086586 -0.77486196
 Cl  0.04881492 -2.62372025 -0.64610242
  C -0.97666409 -0.15365276 -0.76214823
  C -1.84102375  0.62252827 -0.46434172
  C -2.66585034  1.35765181  0.47853850
  C -2.29699895  2.76378011  0.44762784
  N -1.97733123  3.85913194  0.44083770
  C -4.08921565  1.23237709  0.22505915
  N -5.20796099  1.11728020  0.03182093
  C -2.30831887  0.73544647  1.86567788
  C -0.81545141  0.72008396  2.24517240
  C  0.11524843 -0.43752272  1.79434270
  C  0.95312914 -0.28681478  0.50660222
  H  3.03528626  0.11059317 -3.67559592
  H  3.03679220 -1.64706409 -3.85673451
  H  4.27798179 -0.86294845 -2.84949467
  H  2.75006390 -1.36302552 -1.17435006
  H -2.70239150 -0.28373284  1.88374708
  H -2.84459974  1.31797397  2.62205803
  H -0.35558948  1.67902985  1.99512628
  H -0.83099013  0.65090469  3.33633959
  H -0.43479785 -1.37712843  1.77191091
  H  0.85317075 -0.50147354  2.59778109
  H  1.90742226 -0.79035405  0.66704275
  H  1.15870485  0.77239753  0.32629060
