53
opt_min/./Reactant_2859_0_opt.xyz
  C  3.04157557  1.20742685  0.55477525
  C  2.24156349 -0.07241797  0.85444661
  C  2.97916339 -1.32247083  0.39306930
  C  2.74779136 -2.57319427  0.95589118
  C  3.39496796 -3.70312414  0.48600886
  C  4.28219358 -3.61440837 -0.56990648
  C  4.49769820 -2.38452342 -1.16267060
  C  3.85156993 -1.25559914 -0.69054260
  C  0.97346408  0.00142895  0.15834291
  C -0.17578164  0.20605135 -0.10650821
  C -1.52540995  0.69924564  0.09347558
  C -2.49270651 -0.44041266  0.35233143
  C -2.08996256 -1.76601347  0.26213035
  C -2.97431258 -2.79317374  0.54150698
  C -4.27407513 -2.51167311  0.92198190
  C -4.68496274 -1.19336454  1.01925279
  C -3.80196614 -0.16735857  0.74011504
  C -1.91019355  1.55372319 -1.10550110
  C -3.02667645  1.30137633 -1.88878775
  C -3.33219187  2.11740973 -2.96446371
  C -2.52143468  3.19117012 -3.28296519
  C -1.38090312  3.42669977 -2.53388748
  C -1.07540690  2.61067502 -1.46167185
  C -1.38645714  1.56522805  1.37636908
  C -0.70261865  0.92839139  2.60479067
  C  0.82411667  0.96436913  2.86348778
  C  1.81270591 -0.09933807  2.33755605
  H  2.63953585  2.03725994  1.13134820
  H  2.97589226  1.47304743 -0.49749117
  H  4.08675106  1.07585496  0.83441618
  H  2.04917442 -2.69107641  1.76886776
  H  3.20041729 -4.65952781  0.95002675
  H  4.79090806 -4.49633789 -0.93394893
  H  5.17542121 -2.29690384 -1.99898625
  H  4.03288910 -0.31852532 -1.19201348
  H -1.07711444 -1.99468301 -0.03642684
  H -2.64384253 -3.81967688  0.46127878
  H -4.96505121 -3.31307940  1.14396825
  H -5.69893438 -0.96190412  1.31663034
  H -4.13852871  0.85762129  0.81982679
  H -3.66369413  0.45500219 -1.67416256
  H -4.20994716  1.90614979 -3.56025792
  H -2.76704367  3.83310754 -4.11537208
  H -0.72355029  4.24661605 -2.78751828
  H -0.16731740  2.78486039 -0.90278375
  H -0.88451284  2.50557188  1.14537678
  H -2.39684474  1.82580143  1.70446605
  H -1.07756727 -0.08741480  2.75665577
  H -1.08421802  1.54616523  3.42905328
  H  0.88057886  0.80910622  3.94913884
  H  1.19115554  1.97516382  2.66779136
  H  2.72136796  0.00421502  2.94300507
  H  1.37352968 -1.06585285  2.58696626
