47
opt_min/./Reactant_2892_0_opt.xyz
  C  0.93273900  2.31730600 -2.37299600
  O  0.64447591  1.14967571 -1.63145371
  C  1.53204074  0.84769724 -0.63470193
  O  2.53206904  1.51734647 -0.45033260
  C  1.24564927 -0.38781434  0.04661815
  C  2.39070403 -0.92363750  0.81666806
  C  2.83625362 -0.21527654  1.93079792
  C  3.93563917 -0.64803456  2.64762620
  C  4.61570490 -1.79049618  2.26121691
  C  4.19835840 -2.48796318  1.14101574
  C  3.10143215 -2.05479592  0.41915142
  N  0.06332451 -1.04525945 -0.05367970
  C  0.06368616 -2.47733792  0.21687384
  C -1.10776963 -0.44340087 -0.28365607
  C -1.34320924  0.96500528  0.01339994
  C -2.17084971  1.72501690 -0.81651792
  C -2.45518547  3.04257113 -0.51389326
  C -1.93700941  3.62609784  0.62941336
  C -1.13130908  2.87415678  1.47355005
  C -0.83240322  1.56438630  1.16728142
  C -2.23084159 -1.19650105 -0.83567727
  C -2.05061116 -2.06191584 -1.92006968
  C -3.12026113 -2.74943823 -2.45703414
  C -4.39141080 -2.58848058 -1.92896903
  C -4.58752199 -1.71981568 -0.86714951
  C -3.52187275 -1.02608117 -0.32907978
  H  0.34517483  2.25249481 -3.28586257
  H  2.00070595  2.37667424 -2.59195415
  H  0.64028669  3.20444281 -1.80383810
  H  2.31497343  0.68240606  2.22503465
  H  4.26654625 -0.08913468  3.51093202
  H  5.47527492 -2.12675956  2.82175429
  H  4.73512830 -3.36822358  0.81695301
  H  2.80841799 -2.58262615 -0.47674431
  H -0.93380135 -2.79540943  0.51512098
  H  0.36331468 -3.04739220 -0.66187383
  H  0.76938558 -2.68408349  1.01947378
  H -2.56839266  1.27411050 -1.71381910
  H -3.08465178  3.61882399 -1.17718220
  H -2.15615545  4.65663584  0.86410645
  H -0.73345172  3.31801666  2.37457662
  H -0.20621207  0.98865741  1.83500960
  H -1.06986241 -2.15953885 -2.36231730
  H -2.96474913 -3.40808387 -3.29935717
  H -5.22630401 -3.12841836 -2.34993858
  H -5.57673946 -1.58113046 -0.45640194
  H -3.67421280 -0.34803933  0.49849072
