14
opt_min/./Reactant_1402_0_opt.xyz
  C -2.35795400 -0.25746600  0.77269201
  C -1.40551201  0.68949779  0.10046361
  O -1.69429395  1.77727081 -0.33555544
  C -0.02943807  0.17536704  0.03575052
  O  0.94633583  0.89188248 -0.54168187
  C  2.05908758  0.23023132 -0.46538640
  C  3.28255353  0.69237981 -0.97728738
  N  4.28114795  1.07108014 -1.39462517
  O  1.91807484 -0.92752762  0.14484044
  C  0.54226083 -1.05249205  0.52126314
  O  0.12814891 -2.01206224  1.09467723
  H -1.96434521 -0.57859001  1.73383105
  H -3.32189231  0.22983132  0.89496794
  H -2.47259541 -1.14759912  0.15577858
