33
opt_min/./Reactant_5600_1_opt.xyz
  C  3.65312495  1.38033493  1.71947517
  C  3.63383681 -0.12724328  1.58267741
  O  4.59641638 -0.81241931  1.87091720
  C  2.39516779 -0.70460827  1.07526789
  C  2.29511938 -2.08940100  0.90859252
  N  2.24577800 -3.22871914  0.74813967
  O  1.43201736  0.15301447  0.72603538
  C  0.22854844 -0.07620721  0.30114219
  C -0.42371124 -1.38325227  0.31208493
  C -0.42912927 -2.16496591  1.46814250
  C -1.07479031 -3.38572035  1.47771639
  C -1.71075727 -3.84909870  0.33866170
  C -1.71270478 -3.07619665 -0.81230214
  C -1.08315492 -1.84838693 -0.82807443
  C -0.47914283  1.09910223 -0.18473695
  C  0.23455112  2.25027051 -0.54255867
  C -0.42969188  3.37084165 -0.99556732
  C -1.81171241  3.36925626 -1.10342785
  C -2.52789090  2.23727590 -0.74525220
  C -1.87446761  1.11196470 -0.28757931
  H  4.08848943  1.80292525  0.81262969
  H  4.30011106  1.64759609  2.55250737
  H  2.66065167  1.79712645  1.86684458
  H  0.04790306 -1.80448401  2.36816470
  H -1.07278131 -3.98074178  2.37825360
  H -2.20188682 -4.80943659  0.34643500
  H -2.20717469 -3.43411362 -1.70358876
  H -1.06911742 -1.25178724 -1.72803866
  H  1.31159527  2.24793042 -0.47568131
  H  0.13277055  4.25039912 -1.27397376
  H -2.32801788  4.24539070 -1.46378607
  H -3.60584072  2.23627248 -0.81879007
  H -2.43706071  0.24003700  0.01141126
