17
opt_min/./Reactant_775_1_opt.xyz
  N  5.23972187  2.16980125  2.14067163
  C  4.26482001  1.54457660  2.06714470
  C  3.15792104  0.81398174  1.96874152
  N  2.14265429  0.19926850  1.95604369
  C  1.03100608 -0.41494170  1.88206395
  C  0.05884176 -0.20431453  0.83993751
  C  0.26781187  0.71348044 -0.19525949
  C -0.68711076  0.88033565 -1.17731330
  C -1.86149844  0.14463480 -1.15006461
  C -2.07887424 -0.76625502 -0.12739309
  C -1.12912317 -0.94142502  0.85820416
  H  0.82958048 -1.14730022  2.64944115
  H  1.17951627  1.29303039 -0.22478504
  H -0.51393568  1.59146734 -1.97194636
  H -2.60355409  0.28042437 -1.92203738
  H -2.99158748 -1.34232288 -0.10039721
  H -1.30016856 -1.65273798  1.65445670
