18
opt_min/./Reactant_691_0_opt.xyz
  C -3.13289800  1.01184442  1.40865048
  O -1.92915272  0.52980811  0.82826010
  C -2.03761692 -0.24613478 -0.26100884
  O -3.07047766 -0.58069704 -0.77806061
  C -0.70174869 -0.66347899 -0.72755404
  C -0.57330146 -1.56745289 -1.79471247
  N -0.45748663 -2.32242338 -2.65004028
  N  0.35989686 -0.20791474 -0.15424746
  C  1.32293953  0.22839393  0.35737744
  C  2.49432997  0.71255385  0.97591402
  C  3.74209503  0.16937933  0.31990744
  O  2.47401539  1.48043942  1.91224271
  H -3.98765526  0.46113021  1.01275434
  H -3.05294451  0.87305500  2.48612350
  H -3.23613807  2.07340490  1.17624959
  H  3.63872255 -0.88848211  0.08829481
  H  4.58799639  0.32928887  0.98410371
  H  3.91885106  0.70931595 -0.61084398
