28
opt_min/./Reactant_662_0_opt.xyz
  C -3.23892415 -2.52329772  0.91481150
  N -2.25721932 -1.52315495  0.54343278
  C -1.05697780 -1.94450510  0.02703791
  O -0.85479546 -3.09515171 -0.28797741
  C -0.06801896 -0.85092990 -0.14768303
  C  1.26720152 -1.14289654  0.37655111
  O  1.47538326 -1.86380565  1.32207598
  O  2.25305489 -0.57139007 -0.35357552
  C  3.56963113 -0.78723158  0.13376817
  N -0.39671376  0.30767993 -0.74744244
  C -1.49392496  0.29335312 -1.70557947
  C  0.22908545  1.47017641 -0.53920396
  C  0.04634408  2.67738635 -1.40959462
  C  1.14385907  1.62890096  0.50302862
  N  1.88410186  1.87653519  1.35041180
  H -2.83413350 -3.22683386  1.64737394
  H -3.51582068 -3.09140710  0.02668466
  H -4.11709579 -2.03188875  1.32494231
  H -2.25991288 -0.67360548  1.08580857
  H  4.23638479 -0.34294874 -0.60063949
  H  3.75984707 -1.85607163  0.24441097
  H  3.68726020 -0.29727047  1.10280037
  H -1.91671769 -0.70463242 -1.76555233
  H -1.11212230  0.56945528 -2.68857908
  H -2.27405490  0.99594630 -1.40892854
  H -0.93925018  2.72804709 -1.86278933
  H  0.20673614  3.57652695 -0.81656056
  H  0.79624056  2.67885766 -2.20567034
