34
opt_min/./Reactant_1571_1_opt.xyz
  C -1.33552300 -2.30641600  2.43617200
  O -1.12880859 -1.98849692  1.06694127
  C -1.13547242 -0.66040288  0.74901802
  O -2.23629436  0.06402856  1.12659919
  C -3.49751679 -0.50721467  0.82350831
  C -0.12384031 -0.07476573  0.08777961
  C  1.14739871 -0.77571542 -0.16503659
  C  1.83320166 -1.44475275  0.84273446
  C  3.03037281 -2.08344744  0.57633431
  C  3.56281942 -2.05993420 -0.70110156
  C  2.89392773 -1.38675723 -1.71053241
  C  1.69843910 -0.74754651 -1.44462708
  C -0.22358037  1.30047650 -0.43258760
  C -1.35487046  1.75604446 -1.10314793
  C -1.40304721  3.04364771 -1.60265110
  C -0.32443477  3.89722223 -1.44360976
  C  0.80922585  3.45142387 -0.78480776
  C  0.86141395  2.16237703 -0.28846104
  H -1.94146832 -3.21367423  2.47770927
  H -1.84452518 -1.49719462  2.96531320
  H -0.37294707 -2.49353983  2.92158061
  H -4.23170060  0.26739160  1.04233331
  H -3.71015751 -1.39197409  1.43084358
  H -3.55985126 -0.78620692 -0.23265910
  H  1.43854523 -1.44718282  1.84762136
  H  3.55440235 -2.59740197  1.36937427
  H  4.49740375 -2.55889207 -0.91177408
  H  3.31129981 -1.36250382 -2.70687181
  H  1.17548391 -0.22243565 -2.23094847
  H -2.19492423  1.09441897 -1.24851333
  H -2.28429450  3.38504255 -2.12696644
  H -0.36576030  4.90272096 -1.83629931
  H  1.65704342  4.10909106 -0.65802812
  H  1.74774121  1.81649159  0.22417169
