25
opt_min/./Reactant_4493_0_opt.xyz
  C  2.66955900 -1.71023000  2.72086900
  C  1.52955495 -1.74607612  1.71951780
  O  1.25750246 -2.77316139  1.10810946
  C  0.86134940 -0.49061812  1.57131212
  N -0.15289710 -0.23066691  0.74641411
  C -0.71838001 -1.32339095 -0.03355654
  N -0.65334673  0.94383268  0.74811155
  C -1.53328892  1.41025946 -0.20012187
  C -2.60862724  2.19485587  0.22601254
  C -3.44817982  2.78196752 -0.69801412
  C -3.22393568  2.61904792 -2.05614433
  C -2.14470534  1.86483194 -2.48681493
  C -1.30597629  1.25819385 -1.57337550
  H  2.39581269 -1.14537796  3.60736580
  H  3.53333709 -1.23457596  2.25977342
  H  2.93913528 -2.72628872  2.99573182
  H  1.20303710  0.35961321  2.14004567
  H -0.90472006 -2.17120565  0.62405549
  H -0.00163227 -1.65430663 -0.78492139
  H -1.64343115 -0.99786424 -0.50586077
  H -2.77220979  2.31671065  1.28536849
  H -4.28361947  3.37441813 -0.35433208
  H -3.87982225  3.08539473 -2.77540597
  H -1.95487053  1.75039666 -3.54420104
  H -0.44647925  0.69683645 -1.91238970
