23
opt_min/./Reactant_4519_0_opt.xyz
  C  4.67786500 -2.13838700 -0.97132200
  N  3.52297379 -2.11015998 -0.10647869
  C  2.51459358 -1.23843076 -0.27938680
  O  2.45498259 -0.38583122 -1.15187969
  N  1.48532572 -1.46560751  0.64347417
  N  0.50916264 -0.66623092  0.43951876
  N -0.57495342 -0.65411126  1.07353645
  C -1.51158843  0.31760304  0.78135453
  C -1.18103818  1.58626947  0.28192241
  C -2.17433798  2.51861718  0.05730310
  C -3.49831198  2.20965716  0.32448484
  C -3.82702274  0.96408038  0.83809599
  C -2.84478119  0.02478048  1.07746042
  H  5.54705655 -2.47237832 -0.41272244
  H  4.51785670 -2.80603266 -1.82062053
  H  4.84977780 -1.13487455 -1.35582950
  H  3.44053184 -2.78588155  0.63345282
  H  0.66612009 -0.00245498 -0.37599573
  H -0.14805852  1.85702415  0.11211925
  H -1.91574132  3.49699470 -0.31937454
  H -4.27081345  2.94220649  0.14793798
  H -4.85605207  0.72578769  1.05665993
  H -3.08978041 -0.94663954  1.47291949
