26
opt_min/./Reactant_1754_0_opt.xyz
  C  5.39746300  0.16512100 -0.33750300
  N  4.04957089  0.49427747  0.04915596
  C  2.97085763 -0.07163715 -0.53167362
  O  3.00207305 -0.90006000 -1.43020574
  C  1.69325115  0.36844334  0.02087363
  N  0.50754235 -0.06737967 -0.39833449
  C -0.49948356  0.51196176  0.29577258
  C -1.90318842  0.26882805  0.09960728
  C -2.36567100 -0.62832018 -0.87016765
  C -3.71999347 -0.83952812 -1.03339632
  C -4.63692974 -0.16760881 -0.24106905
  C -4.18785903  0.72276556  0.72191651
  C -2.83683096  0.94332082  0.89564493
  C  0.13429862  1.39439849  1.24066382
  O -0.27811766  2.14223260  2.09067515
  O  1.51899607  1.25044036  1.00825736
  H  5.94899343  1.06673739 -0.60645736
  H  5.33563752 -0.49783535 -1.19945580
  H  5.91966153 -0.34442507  0.47513983
  H  3.90419634  1.15525235  0.79719240
  H  0.41741306 -0.74523261 -1.14465431
  H -1.67147060 -1.16502885 -1.50105952
  H -4.06458961 -1.53462182 -1.78549038
  H -5.69425796 -0.33860475 -0.37528152
  H -4.89753955  1.24940301  1.34245814
  H -2.48200252  1.63419734  1.64254291
