30
opt_min/./Reactant_5929_1_opt.xyz
  N  1.08810299  3.37358900  1.11306600
  C  0.10151713  2.91566435  0.73382598
  C -1.12652148  2.42904653  0.29056274
  C -2.15197992  3.36072307  0.12526427
  N -3.00961342  4.11738186 -0.01034021
  N -1.41383216  1.11528380  0.06843097
  C -0.65413131  0.03366461  0.12403841
  C -1.29143102 -1.26697410  0.03964172
  C -0.56734252 -2.37247163 -0.42250009
  C -1.16166766 -3.61419908 -0.51694661
  C -2.48822537 -3.78603765 -0.15318971
  C -3.21662222 -2.70348697  0.31393201
  C -2.62958527 -1.45827459  0.41235309
  C  0.80269051  0.12797843  0.23382047
  C  1.48174014 -0.59591579  1.21357105
  C  2.85835279 -0.52698812  1.30293679
  C  3.57792263  0.24851161  0.40822844
  C  2.91319413  0.95378437 -0.58035266
  C  1.53545489  0.90026998 -0.66794903
  H -2.39579882  0.94996366 -0.14519364
  H  0.46158389 -2.24378412 -0.72261628
  H -0.58975411 -4.45481859 -0.87993154
  H -2.95022780 -4.75837957 -0.22723065
  H -4.24658483 -2.83298534  0.61117728
  H -3.20746603 -0.64022685  0.82081800
  H  0.92167601 -1.19610903  1.91591188
  H  3.36858871 -1.08160350  2.07614346
  H  4.65339635  0.30068433  0.48187359
  H  3.46496112  1.55448838 -1.28698117
  H  1.03061785  1.44195995 -1.45497921
