22
opt_min/./Reactant_4545_0_opt.xyz
  C  2.99186300 -0.60681600 -0.30212500
  C  3.15871763  0.87743735 -0.49170935
  O  4.24808108  1.40295535 -0.65939855
  C  1.95868060  1.68541219 -0.48754035
  N  0.71481666  1.26684610 -0.31632552
  N  0.30835443  0.06151280 -0.15925457
  C -1.01967101 -0.17082291  0.09877647
  C -1.50177370 -1.45262861 -0.18722990
  C -2.81945202 -1.77223002  0.06059201
  C -3.67995292 -0.83181426  0.60780470
  C -3.20643960  0.43164589  0.92189685
  C -1.89056004  0.76805654  0.67430765
  H  3.96363443 -1.08786645 -0.34936131
  H  2.33370194 -1.01259928 -1.06539334
  H  2.52434880 -0.80509899  0.65873663
  H  2.08877930  2.74291075 -0.64721620
  H -0.00173931  2.01221281 -0.33850873
  H -0.83051439 -2.17748536 -0.61754334
  H -3.18457303 -2.76243592 -0.17115335
  H -4.71100935 -1.08447486  0.80423279
  H -3.86457047  1.15977620  1.37122788
  H -1.53156666  1.74427867  0.97677188
