26
opt_min/./Reactant_4522_1_opt.xyz
  C  4.56708882 -0.60580221  1.60895586
  C  3.56821970 -1.75778629  1.61507841
  O  3.81124736 -2.87587437  2.01818222
  C  2.37089320 -1.29278413  1.07079719
  N  1.39492471 -0.77919923  0.64974758
  C  0.52513033  0.05291136  0.17910118
  C  1.04628331  1.40068059 -0.05386091
  C  0.17831812  2.36240568 -0.82424031
  O  2.16359740  1.70881482  0.32892446
  C -0.82095540 -0.44233653 -0.11211885
  C -1.95599467  0.31398810  0.17929435
  C -3.21627189 -0.18492231 -0.09077302
  C -3.36515662 -1.44485029 -0.64609654
  C -2.24421561 -2.21177845 -0.91935622
  C -0.98149368 -1.71833781 -0.65289463
  H  5.38374750 -0.86346408  0.93735958
  H  4.10978659  0.32784016  1.29066749
  H  4.97108722 -0.49955494  2.61367894
  H -0.34155539  3.01580295 -0.12490498
  H  0.82232559  2.98963266 -1.43718174
  H -0.54761436  1.84720298 -1.44565439
  H -1.84785057  1.28171308  0.64354893
  H -4.08693172  0.41069247  0.14141515
  H -4.34989646 -1.83302388 -0.85826274
  H -2.35690014 -3.19840077 -1.34355701
  H -0.11133881 -2.32024911 -0.87309369
