12
opt_min/./Reactant_1946_0_opt.xyz
  C -2.20563000  0.39438399 -0.02276798
  C -0.78911813 -0.01004272 -0.13100980
  O -0.41766495 -1.19959667 -0.48980760
  C  1.05723456 -1.23683988 -0.46857071
  O  1.64326904 -2.23190385 -0.76186636
  C  1.36739542  0.08313893 -0.05615490
  C  2.60259700  0.68582000  0.15146126
  N  3.62707919  1.17679845  0.32136705
  O  0.19379713  0.77647116  0.13144122
  H -2.62422102  0.03767912  0.92087492
  H -2.28273553  1.47818128 -0.04485814
  H -2.77514536 -0.05844519 -0.83086071
