30
opt_min/./Reactant_1761_0_opt.xyz
  C  2.92159342  0.58731775 -2.77410091
  N  2.12542717  0.03805622 -1.70447225
  C  2.44925739 -1.14396757 -1.15827414
  O  3.33732612 -1.86090932 -1.59241749
  C  1.61649036 -1.67694080 -0.04507671
  C  2.10042050 -2.91003966  0.44773697
  N  2.45659371 -3.90398831  0.90093364
  N  0.43124119 -1.33197558  0.46499996
  C -0.34119704 -0.22055990  0.45789514
  C  0.28691149  1.10944365  0.63499290
  O  1.50746614  1.24631748  0.57447477
  N -0.55014984  2.11868596  0.91401475
  C -0.06936592  3.44981401  1.18029637
  C -1.78792576 -0.41536409  0.57413322
  O -2.59012887  0.47449255  0.84918198
  N -2.24805759 -1.66341225  0.27553990
  C -3.66925078 -1.93428987  0.33356176
  H  3.16455817 -0.20472536 -3.48271891
  H  3.85840313  0.99532050 -2.38579269
  H  2.36144892  1.37508823 -3.27057861
  H  1.42842648  0.62182976 -1.26996424
  H -0.02022067 -2.09817925  0.97900747
  H -1.53297896  1.90097930  1.07443524
  H  0.94870648  3.53152353  0.80124733
  H -0.06094649  3.65813501  2.25354430
  H -0.71272254  4.17514039  0.68389404
  H -1.66405056 -2.36883099 -0.13967469
  H -4.01855377 -1.85113428  1.36435008
  H -4.21774797 -1.20403060 -0.26449938
  H -3.86098577 -2.93502115 -0.04050419
