30
opt_min/./Reactant_4161_1_opt.xyz
  C  3.62165900  2.27761400 -1.20018400
  N  2.68094793  1.23796233 -0.87460096
  C  3.08445961 -0.02035175 -0.53637957
  O  4.26278070 -0.35130750 -0.52436605
  C  2.01285743 -0.97081860 -0.23901884
  C  2.45056711 -2.35013911  0.15055013
  O  0.79408014 -0.47883662 -0.21320613
  C -0.40742947 -1.00921091 -0.27387134
  C -0.65188133 -2.45511135 -0.57744416
  C -1.48942251 -0.08971224 -0.03560488
  C -1.23323248  1.26021956  0.26746059
  C -2.26225588  2.14746958  0.49066014
  C -3.58213606  1.72595003  0.43166111
  C -3.85453097  0.39692398  0.15016360
  C -2.83145705 -0.50009587 -0.07893076
  H  3.26475076  2.85789895 -2.05092255
  H  3.78529121  2.94924372 -0.35178856
  H  4.56569911  1.79453883 -1.44948592
  H  1.70005708  1.46106979 -0.87400705
  H  1.62832411 -3.00881509  0.40088872
  H  3.06419911 -2.79660321 -0.63066606
  H  3.09237273 -2.25405459  1.02918626
  H -0.87698071 -3.04388130  0.31382174
  H  0.20798989 -2.88358468 -1.08438085
  H -1.50175400 -2.53144105 -1.25340779
  H -0.21165646  1.60197820  0.33606945
  H -2.03528072  3.17898682  0.71947911
  H -4.38712768  2.42221397  0.61065424
  H -4.87863901  0.05468951  0.11055211
  H -3.07942201 -1.52820581 -0.28738166
