35
opt_min/./Reactant_5613_1_opt.xyz
  C  4.06011100  1.17622600 -2.93082100
  N  2.92780988  0.58749994 -2.26249311
  C  2.93130849 -0.69930945 -1.83749392
  O  3.87842502 -1.44843314 -2.00130615
  C  1.68709571 -1.12607410 -1.15079317
  O  0.82607900 -0.18825541 -0.88962213
  C -0.34865473 -0.23222961 -0.29165663
  C -0.76733576 -1.41692613  0.43895375
  O  0.00771693 -2.29217018  0.78224706
  O -2.07519533 -1.44738376  0.73121361
  C -2.51010097 -2.59777701  1.44219962
  C -1.10880032  1.00894968 -0.37751890
  C -2.00795342  1.40559027  0.61604235
  C -2.69493097  2.59819221  0.50070058
  C -2.49563006  3.42358805 -0.59414614
  C -1.60230570  3.04443263 -1.58269714
  C -0.91669947  1.85128940 -1.47851019
  C  1.44995844 -2.61438498 -1.02297935
  C  2.44321933 -3.33775760 -0.17120213
  O  0.64084249 -3.13268516 -1.75430220
  H  4.50625805  1.96332066 -2.31896699
  H  4.79174383  0.38653389 -3.09193357
  H  3.75981524  1.59553071 -3.89232372
  H  2.13035190  1.17322522 -2.07497602
  H -2.31302131 -3.49813581  0.85695830
  H -3.57736662 -2.46655887  1.59980566
  H -1.98486278 -2.67812694  2.39639236
  H -2.15766603  0.78132795  1.48099081
  H -3.38648573  2.89075565  1.27678813
  H -3.03461230  4.35525483 -0.67741257
  H -1.44738782  3.67891269 -2.44317140
  H -0.24640616  1.54574997 -2.26885667
  H  2.10925884 -4.35613459  0.00198075
  H  3.37916016 -3.34135251 -0.73129989
  H  2.59798504 -2.82303235  0.77045877
