28
opt_min/./Reactant_2356_1_opt.xyz
  C -1.97028300  3.05231000  0.95091400
  O -1.10323648  2.04847286  0.44281539
  C -1.21821419  0.83601751  1.01007424
  O -2.00473748  0.59815508  1.89452535
  C -0.31071605 -0.16816814  0.44048919
  C  0.81975825 -0.07548580 -0.28700454
  C  1.66810416  1.04577718 -0.72789759
  C  1.91606931  2.14222770  0.27563554
  O  2.18464971  1.03586679 -1.82250065
  C  1.15331931 -1.48374333 -0.74177529
  C  0.06182662 -1.84693367 -1.77618931
  C -1.20843362 -1.95571396 -0.91872036
  C -0.68880633 -1.63031634  0.50407524
  C  0.69041193 -2.28977862  0.47212568
  H -1.80219789  3.93726271  0.34271308
  H -3.00988134  2.72716146  0.87623681
  H -1.74036591  3.25570111  1.99904283
  H  1.08924600  2.84624029  0.22042962
  H  1.95925099  1.74212879  1.28508973
  H  2.83700325  2.66372407  0.03128334
  H  2.16818771 -1.61434244 -1.10320400
  H  0.30858797 -2.80053964 -2.24220862
  H -0.00617819 -1.09227777 -2.55697962
  H -1.98830961 -1.26065582 -1.22711576
  H -1.62516046 -2.96215479 -0.94314744
  H -1.37549170 -1.88878689  1.30340822
  H  0.65078363 -3.36202148  0.29275270
  H  1.27980050 -2.09160717  1.36690244
