20
opt_min/./Reactant_545_1_opt.xyz
  C  3.17216800  1.49295600 -0.56003700
  N  1.89956760  0.89359627 -0.25343911
  C  1.72919724 -0.43280297 -0.24602350
  O  2.61823908 -1.22550337 -0.47539230
  C  0.30653466 -0.90303841  0.09389134
  C -0.80340355  0.08504568  0.31550098
  O -0.61989927  1.29330611  0.26861214
  N -2.03207966 -0.40458244  0.56291116
  C -3.15901648  0.46952258  0.78928530
  C  0.15888799 -2.22697911  0.16980776
  F  1.08694343 -3.13319073 -0.00284694
  F -0.97381058 -2.88470842  0.44555403
  H  3.94401348  0.72754330 -0.47994667
  H  3.17779522  1.89288633 -1.57747541
  H  3.37571497  2.30046225  0.14214543
  H  1.09231598  1.48755595 -0.08561635
  H -2.21889968 -1.38808760  0.64132161
  H -2.86270522  1.48750388  0.54183059
  H -3.99634967  0.16639655  0.15980042
  H -3.46785798  0.43268211  1.83658782
