26
opt_min/./Reactant_4941_0_opt.xyz
  C -3.76343775  2.81455349  0.50220658
  N -3.33619345  1.44048174  0.45334115
  C -2.01260430  1.10972076  0.56984189
  O -1.18124066  1.92156780  0.96142668
  C -1.64901391 -0.23531693  0.16206137
  C -2.56109713 -1.34942150 -0.27207565
  N -0.38391714 -0.50907835  0.21171805
  C  0.78733441 -0.61427967  0.22765069
  C  2.16954379 -0.73142043  0.16372634
  C  2.79293376 -1.06466365 -1.05156371
  C  4.16700712 -1.15370425 -1.11747864
  C  4.93796902 -0.91992861  0.01259210
  C  4.32976371 -0.59469447  1.21789665
  C  2.95662297 -0.49950574  1.30289764
  H -4.15623552  3.14602760 -0.46234856
  H -2.89048437  3.41123029  0.76059211
  H -4.53203597  2.95574426  1.26580441
  H -3.98939895  0.77014859  0.08826115
  H -2.77882660 -2.02560741  0.55775053
  H -3.50476127 -0.96909696 -0.65280527
  H -2.09255706 -1.93260589 -1.06388430
  H  2.18655089 -1.23362558 -1.92907971
  H  4.64284912 -1.38657403 -2.05793104
  H  6.01377052 -0.98867417 -0.04828701
  H  4.93317805 -0.42833792  2.09729156
  H  2.47517180 -0.24306762  2.23535308
