31
opt_min/./Reactant_5631_1_opt.xyz
  C -0.87469200 -2.84570200 -1.96471400
  O -0.43808622 -1.72907621 -1.20864378
  C -1.42697653 -1.08856826 -0.50673831
  O -2.56476733 -1.48166993 -0.51232503
  C -0.92556526  0.10830123  0.15201611
  C -1.90861802  1.09838407  0.55820552
  O -3.03138176  1.19987358  0.13326575
  O -1.44055895  1.91951030  1.55074278
  C -2.38106010  2.86295635  2.03620613
  N  0.42522016  0.28500249  0.31703163
  C  0.97147508  1.60242831  0.04035606
  C  1.21831843 -0.68423042  0.73281964
  C  0.68362805 -1.88049504  1.43339438
  C  2.68175220 -0.70642178  0.49853607
  C  3.12626739 -0.36986123 -0.91069649
  O  3.46110072 -1.07645225  1.34780279
  H -0.03135273 -3.14296196 -2.58350539
  H -1.17046293 -3.66433906 -1.30451136
  H -1.73053846 -2.57320124 -2.58485664
  H -1.86037392  3.44844097  2.78994500
  H -2.73369195  3.50271599  1.22431821
  H -3.24020230  2.35148319  2.47397640
  H  0.85055880  1.84163616 -1.01657059
  H  2.02040419  1.64310468  0.31963143
  H  0.42678756  2.33809418  0.62786821
  H  0.60828482 -2.73736930  0.76337182
  H  1.38368860 -2.14696493  2.22657620
  H -0.30332336 -1.67367580  1.84528450
  H  3.80424210 -1.15516928 -1.23834521
  H  2.28478919 -0.30287186 -1.59247824
  H  3.69105004  0.56051285 -0.92556958
