24
opt_min/./Reactant_5265_1_opt.xyz
  C  3.38787100  2.38303800  0.44644200
  O  2.14622678  1.75025614  0.16921043
  C  2.11981352  0.40862557  0.34430202
  O  3.07833880 -0.21871353  0.70304217
  C  0.78670593 -0.13366974  0.01047936
  N -0.12988238  0.72063102 -0.39226501
  N -1.34238513  0.50484299 -0.72340645
  C -2.00721170  1.67128244 -1.10248463
  C -3.43970921  1.42406435 -1.44539064
  O -1.45198396  2.75210328 -1.09828268
  C  0.46096813 -1.58068689  0.10457847
  O -0.61256843 -2.04439868 -0.18142316
  O  1.49672527 -2.29389172  0.54209423
  C  1.29843249 -3.69375175  0.66823242
  H  4.15120210  2.04148326 -0.25521753
  H  3.71391171  2.14829969  1.46134360
  H  3.21204934  3.44953032  0.33385150
  H  0.17514868  1.72347387 -0.45185539
  H -3.76122107  2.11124097 -2.22441893
  H -4.04726852  1.60571305 -0.56000485
  H -3.56883409  0.39110768 -1.75202469
  H  1.98768547 -4.03618754  1.43709631
  H  0.26518708 -3.90757817  0.94902790
  H  1.52321347 -4.18579623 -0.28039579
