31
opt_min/./Reactant_5599_0_opt.xyz
  C -0.60689985  4.56753500  2.10492781
  O -1.21784294  3.48067813  1.42528231
  C -0.41214179  2.52081523  1.00164878
  O  0.80026989  2.50527450  1.17344789
  C -1.06801191  1.41297725  0.30507038
  N -0.16326748  0.48302439 -0.05457816
  C -0.14619562 -0.59025211 -0.82243159
  C -1.24376553 -1.02896141 -1.58498030
  N -2.03230177 -1.44505663 -2.31152189
  C  1.09689401 -1.34292941 -0.99523432
  C  1.03939706 -2.67406983 -1.42076307
  C  2.19795054 -3.40861690 -1.58165902
  C  3.43225197 -2.83289667 -1.32831027
  C  3.50127164 -1.51099551 -0.91701636
  C  2.34952798 -0.76855421 -0.75159394
  C -2.51571073  1.29069795  0.19637190
  O -3.30386653  2.19888732  0.28739579
  O -2.87120902 -0.00141276  0.02314229
  C -4.24680019 -0.28461354 -0.19024808
  H  0.12977935  4.20279518  2.82373595
  H -0.10921452  5.22519727  1.38822691
  H -1.41050206  5.10039393  2.60577892
  H  0.76233047  0.76705273  0.31346169
  H  0.07832865 -3.12615162 -1.61347747
  H  2.13444102 -4.43632972 -1.90594281
  H  4.33485559 -3.41034314 -1.45642156
  H  4.46093346 -1.05346864 -0.72916672
  H  2.43656572  0.26875422 -0.45748214
  H -4.51794716 -1.10943795  0.46626478
  H -4.37866113 -0.57676485 -1.23306617
  H -4.84597158  0.59944010  0.03389241
