18
opt_min/./Reactant_358_1_opt.xyz
  N  2.43086200 -3.00340300 -0.39299300
  C  1.85358108 -2.01627810 -0.29561509
  C  1.13950506 -0.82255621 -0.18915295
  C  1.33415154  0.19517978  0.66821653
  F  2.25937267  0.30269820  1.61639148
  C  0.23792496  1.20622099  0.48452189
  C -1.02728165  0.51512737  1.05649865
  C -1.28533632 -0.62035370  0.04152537
  C -0.11822485 -0.46494669 -0.95925903
  C  0.00789186  1.06327293 -1.02498974
  H  0.43441787  2.20453789  0.87327457
  H -0.85275158  0.13795351  2.06155283
  H -1.85847776  1.21460199  1.09710676
  H -1.29772918 -1.60108357  0.50817728
  H -2.23076764 -0.47908416 -0.47478393
  H -0.23847821 -0.99574320 -1.90329153
  H -0.90171749  1.55201821 -1.36262458
  H  0.85791143  1.39339928 -1.61638033
