32
opt_min/./Reactant_2033_0_opt.xyz
  C -0.60334100  4.09005800 -0.74575500
  O  0.06708568  2.84992078 -0.58513981
  C -0.72481475  1.79162694 -0.27277052
  O -1.92538081  1.90564483 -0.14428537
  C -0.01554650  0.52214500 -0.18221053
  C -0.87403121 -0.67008846 -0.30708387
  C -1.80844269 -0.77273709 -1.33539601
  C -2.64614038 -1.86948600 -1.41161286
  C -2.56369427 -2.87859225 -0.46695299
  C -1.63904947 -2.78537080  0.56110238
  C -0.79697405 -1.69452891  0.63929639
  N  1.30321664  0.39214093  0.00402721
  C  2.07684209  1.48126663  0.56704481
  C  1.94297501 -0.74764881 -0.29119800
  C  3.28619650 -1.11378194  0.03721171
  C  3.65844135 -2.49240391 -0.48049481
  O  4.09661575 -0.44338428  0.66935246
  H  0.13825121  4.78720748 -1.12667956
  H -1.43363862  3.98627611 -1.44668395
  H -0.99757036  4.43614898  0.21200682
  H -1.87516567  0.00922187 -2.07488084
  H -3.36667809 -1.93752736 -2.21273253
  H -3.21757279 -3.73601429 -0.52881025
  H -1.57759889 -3.56602379  1.30501206
  H -0.08580231 -1.61428102  1.44900599
  H  2.58841581  2.02467302 -0.22706890
  H  2.84339715  1.06534456  1.22090223
  H  1.44097480  2.16397503  1.11918913
  H  1.35593123 -1.48805430 -0.81173992
  H  2.97111066 -3.24219095 -0.09687875
  H  4.66958717 -2.73355202 -0.16795116
  H  3.60690079 -2.50456625 -1.56685038
