27
opt_min/./Reactant_5187_0_opt.xyz
  C  3.50896500 -1.48301700 -0.36994600
  C  3.83220634 -0.00700488 -0.33889593
  O  4.96958776  0.41997203 -0.45318921
  C  2.71691136  0.89852041 -0.17821103
  O  1.51512224  0.41277349 -0.07611066
  C  0.33598825  0.97284685  0.00756788
  C  0.06876857  2.40310798  0.23506209
  C  1.12152586  3.19181959  0.98681295
  O -0.97876284  2.92769705 -0.08583140
  C -0.76702616  0.00288075 -0.01680412
  C -2.03335921  0.31611943 -0.51383884
  C -3.03237603 -0.63931653 -0.51645402
  C -2.78887143 -1.91523358 -0.03438434
  C -1.53426454 -2.23747171  0.45673764
  C -0.53191929 -1.28842148  0.46732336
  H  2.79616632 -1.74616302  0.40632761
  H  3.06983938 -1.72739467 -1.33618462
  H  4.42288422 -2.05664986 -0.24818156
  H  2.91531216  1.95969170 -0.21081477
  H  1.80627420  3.66470660  0.28294339
  H  1.68460416  2.57333591  1.68191642
  H  0.61681355  3.98798961  1.53058683
  H -2.22974359  1.30346573 -0.89495420
  H -4.00795146 -0.38708014 -0.90349855
  H -3.57480362 -2.65601440 -0.03711911
  H -1.33800033 -3.22868248  0.83801004
  H  0.43871857 -1.53672859  0.87107181
