27
opt_min/./Reactant_2448_1_opt.xyz
  C -0.85709200 -0.33402100 -1.33036000
  C -0.13290953  0.16557182 -0.31761408
  C  1.24337866 -0.10956276  0.04287594
  C  1.70515859  0.10750936  1.34255720
  C  3.01642740 -0.16676002  1.68377983
  C  3.89624277 -0.65655985  0.73378781
  C  3.45314462 -0.87431529 -0.56103780
  C  2.14352802 -0.60573773 -0.90536935
  C -1.08803393  1.01570941  0.50082510
  C -2.02062190  0.00135874  1.20668753
  C -2.85139094 -0.56497998  0.04003950
  C -2.26285186  0.16932089 -1.19015528
  C -2.00633757  1.55440156 -0.59353954
  H -0.55272455 -1.05043419 -2.07025722
  H  1.03067215  0.47546603  2.09961605
  H  3.35333933  0.00361956  2.69632929
  H  4.92163973 -0.86611097  0.99976847
  H  4.13514620 -1.25465129 -1.30761810
  H  1.81608146 -0.76749670 -1.92035713
  H -0.64100475  1.75492026  1.16340834
  H -2.65393666  0.50360808  1.93782187
  H -1.44974899 -0.76545865  1.72586792
  H -3.90698290 -0.32255380  0.14974115
  H -2.76053558 -1.64560390 -0.05388614
  H -2.88312408  0.10644784 -2.08466564
  H -2.90292964  2.03818134 -0.20877399
  H -1.50020963  2.22547464 -1.28601780
