34
opt_min/./Reactant_2493_1_opt.xyz
  C -3.43732500 -2.46172200  0.16927600
  N -2.70542677 -1.23828116 -0.03905313
  C -1.35605979 -1.23042198 -0.22350312
  O -0.71575491 -2.26541067 -0.25704776
  C -0.76689770  0.11238639 -0.37260208
  C  0.54422857  0.43986887 -0.32219370
  C  1.73647083 -0.39151945 -0.27875373
  C  1.86792720 -1.50727881 -1.10298781
  C  3.02296297 -2.26578012 -1.07081375
  C  4.06185422 -1.92644879 -0.22114520
  C  3.94677662 -0.81088664  0.59134284
  C  2.79935516 -0.04237369  0.55587438
  C  0.61923134  1.94949205 -0.25722528
  C  0.08792986  2.35550583  1.13695770
  C -1.40123632  1.97309226  1.06638930
  C -1.53873953  1.41909491 -0.36920423
  C -0.57357034  2.32302519 -1.13633536
  H -3.68334140 -2.60604503  1.22614982
  H -2.80146325 -3.28509082 -0.15491503
  H -4.35869808 -2.45055105 -0.41434801
  H -3.21483521 -0.37354034  0.04386369
  H  1.06385612 -1.77489767 -1.76791575
  H  3.11018046 -3.12958164 -1.71362431
  H  4.96061697 -2.52551050 -0.19196995
  H  4.75658602 -0.53852407  1.25323209
  H  2.71635538  0.82413882  1.19538806
  H  1.58705480  2.37469687 -0.51186625
  H  0.21491003  3.43004030  1.27876178
  H  0.60881790  1.84038520  1.94237195
  H -1.66790667  1.21760665  1.80578768
  H -2.04539227  2.84010064  1.21581550
  H -2.55933503  1.39355475 -0.74879641
  H -0.83865170  3.37881460 -1.08882512
  H -0.44808655  2.02077943 -2.17545276
