28
opt_min/./Reactant_5876_1_opt.xyz
  C  2.54786347 -3.19355397  0.20656144
  N  1.47500476 -2.22263552  0.22361412
  C  1.66568659 -0.99619226 -0.32475532
  O  2.74288765 -0.71619955 -0.84018606
  C  0.52699058 -0.06087991 -0.30233620
  N -0.54678494 -0.36481992  0.41172289
  C -1.79928036  0.08812526  0.49537040
  C -2.42850429  1.08610570 -0.26622722
  N -3.14802125  1.78763014 -0.82656264
  C -2.57759568 -0.65415125  1.49412183
  C -4.02308727 -0.31195367  1.65045428
  O -1.99472084 -1.50931652  2.15732094
  C  0.57377020  1.27671461 -0.95299123
  O -0.33981716  2.07234175 -0.77745525
  N  1.67418953  1.55191303 -1.66790184
  C  1.84663205  2.81340267 -2.34219771
  H  2.28058384 -4.03515608  0.83914304
  H  3.46231156 -2.72767864  0.57531101
  H  2.73619489 -3.54315543 -0.81150110
  H  0.57977211 -2.54083069  0.55399184
  H -0.47313346 -1.12324967  1.12110899
  H -4.52673024 -0.37160333  0.68659900
  H -4.12170558  0.71245790  2.00632310
  H -4.48588544 -0.99373686  2.36008287
  H  2.44128676  0.88448390 -1.66765301
  H  0.97332479  3.43157964 -2.13787213
  H  2.74400169  3.31934079 -1.98196376
  H  1.93528150  2.65425573 -3.41890504
