33
opt_min/./Reactant_4471_1_opt.xyz
  C -1.45248692  0.97126028  2.31132285
  N -0.16997600  0.43338595  1.89401419
  C  0.84844332  0.63459425  2.78668283
  C  2.19415548  0.41067887  2.49776718
  N  3.32665956  0.28019395  2.32889747
  C  0.59065673  1.18084701  4.04198658
  N  0.38949161  1.64193008  5.07972058
  C -0.03614364 -0.20630396  0.74131632
  C  1.09646588 -1.10110260  0.49474954
  C  1.44852760 -2.08352960  1.42363771
  C  2.47602256 -2.96371290  1.15087755
  C  3.17411461 -2.87284044 -0.04195196
  C  2.82642296 -1.90817088 -0.97306583
  C  1.78931549 -1.03391529 -0.71402840
  C -1.00338762 -0.07182028 -0.34349554
  C -1.53246477  1.16972666 -0.71266877
  C -2.39685645  1.27146204 -1.78544390
  C -2.75384990  0.14269948 -2.50524606
  C -2.22602899 -1.09075407 -2.15665742
  C -1.35392559 -1.19929260 -1.09233046
  H -1.42892419  2.06249085  2.31923333
  H -1.66329931  0.63685799  3.32843053
  H -2.24245252  0.62740425  1.64837061
  H  0.90232770 -2.16955373  2.35248283
  H  2.73575169 -3.72029808  1.87596361
  H  3.98704403 -3.55322981 -0.24425646
  H  3.36795889 -1.83438608 -1.90416845
  H  1.51827662 -0.27877489 -1.43781596
  H -1.23610943  2.06197047 -0.18148028
  H -2.78778625  2.23810414 -2.06501998
  H -3.43339322  0.22548632 -3.33942291
  H -2.49619367 -1.97274565 -2.71798993
  H -0.94237887 -2.16048402 -0.82272865
