27
opt_min/./Reactant_1420_0_opt.xyz
  C  3.50896500 -1.48301700 -0.36994600
  C  3.83220634 -0.00700487 -0.33889590
  O  4.96958776  0.41997204 -0.45318913
  C  2.71691135  0.89852041 -0.17821100
  O  1.51512223  0.41277349 -0.07611066
  C  0.33598824  0.97284685  0.00756788
  C  0.06876855  2.40310798  0.23506211
  C  1.12152583  3.19181959  0.98681296
  O -0.97876288  2.92769703 -0.08583137
  C -0.76702617  0.00288075 -0.01680410
  C -2.03335922  0.31611943 -0.51383887
  C -3.03237604 -0.63931652 -0.51645405
  C -2.78887146 -1.91523356 -0.03438432
  C -1.53426458 -2.23747168  0.45673770
  C -0.53191933 -1.28842147  0.46732341
  H  2.79616628 -1.74616303  0.40632757
  H  3.06983942 -1.72739466 -1.33618465
  H  4.42288422 -2.05664987 -0.24818153
  H  2.91531214  1.95969171 -0.21081471
  H  1.80627419  3.66470659  0.28294341
  H  1.68460412  2.57333592  1.68191643
  H  0.61681353  3.98798961  1.53058684
  H -2.22974357  1.30346572 -0.89495427
  H -4.00795147 -0.38708014 -0.90349861
  H -3.57480365 -2.65601437 -0.03711907
  H -1.33800039 -3.22868243  0.83801015
  H  0.43871851 -1.53672856  0.87107190
