32
opt_min/./Reactant_5781_1_opt.xyz
  C -1.43421100  1.95579900  2.79652200
  N -1.49726227  1.50117596  1.43275064
  C -0.47376257  0.88216457  0.83550459
  O  0.61841661  0.67530115  1.36347203
  C -0.74720742  0.36373906 -0.52446087
  O  0.20526716 -0.16109684 -1.24593445
  C  1.50110866 -0.08622364 -1.13320156
  C  2.19863515 -0.93710617 -2.10791226
  C  3.69655296 -0.83025030 -2.14027135
  O  1.56169466 -1.67220683 -2.83951704
  C  2.16147155  0.97487159 -0.30199757
  O  1.88380240  2.13924612 -0.47247332
  O  3.17698930  0.52017624  0.42178524
  C  3.82920086  1.48966123  1.23244933
  C -2.11496376  0.14660321 -1.05021722
  O -3.11042389  0.61038138 -0.50113557
  N -2.17006045 -0.55894154 -2.19440588
  C -3.41177991 -0.85953992 -2.86010207
  H -0.40308750  1.87115074  3.13636809
  H -1.75527447  2.99630873  2.85389185
  H -2.07616320  1.34917995  3.43852732
  H -2.39231052  1.48257909  0.94458646
  H  4.08595706 -1.47340686 -2.92472281
  H  3.99251831  0.19975647 -2.32580571
  H  4.10446611 -1.13043356 -1.17840722
  H  4.21120019  2.30603292  0.61561535
  H  4.64166741  0.96975997  1.73289421
  H  3.12313392  1.89100375  1.96026938
  H -1.32145278 -0.94309096 -2.58371727
  H -3.57218640 -1.93802670 -2.90275659
  H -4.21598593 -0.39527670 -2.29183507
  H -3.40520978 -0.45983370 -3.87525542
