11
opt_min/./Reactant_3282_1_opt.xyz
  C -1.98047700  0.94896902  0.21281095
  N -0.56125769  0.84428070  0.28239483
  O -0.14791531 -0.32790294 -0.11846912
  C  1.12475653 -0.65314852 -0.14111597
  C  2.17311843  0.20195212  0.24838883
  N  3.02469700  0.90494272  0.56127965
  C  1.44221569 -1.94745832 -0.58739987
  N  1.70424770 -3.00618799 -0.94571442
  H -2.45753721  0.01968849 -0.11486944
  H -2.35196490  1.21919001  1.20268694
  H -2.22740756  1.75949343 -0.47515085
