23
opt_min/./Reactant_851_0_opt.xyz
  C -0.55459413  0.74388550 -2.37803784
  C  0.86604087  0.60049086 -1.84297079
  O  1.81708008  0.87731050 -2.56006199
  C  1.02339362  0.23679963 -0.46350105
  C  2.25700209  0.41724993  0.16126393
  N  3.25504458  0.49950847  0.73207244
  N -0.00069359 -0.26376462  0.34021462
  C -0.76998412 -1.37985726 -0.17430602
  C -0.19445199  0.15651152  1.57025376
  C -1.09486754 -0.59353563  2.49140498
  C  0.46152705  1.39286849  2.05456930
  H -0.86184223 -0.16107970 -2.89941157
  H -1.27029313  0.97164430 -1.59132071
  H -0.54825985  1.54947073 -3.10842344
  H -0.48011448 -1.57334737 -1.20210637
  H -1.83982057 -1.17312650 -0.12491231
  H -0.55942804 -2.27909660  0.40845233
  H -2.13803177 -0.51596185  2.17790908
  H -1.01140764 -0.19927766  3.49937212
  H -0.84166967 -1.65365785  2.51638727
  H  0.57830364  2.10159112  1.23232593
  H  1.46967785  1.19285621  2.42959369
  H -0.11993352  1.84527993  2.85361236
