30
opt_min/./Reactant_2765_0_opt.xyz
  C  3.77573800  0.47104100  0.85889700
  N  2.47972514  0.53590148  0.23115926
  C  2.30236391  0.36865981 -1.09212443
  O  3.19388823  0.10918829 -1.87116415
  C  0.82776243  0.49211253 -1.54187304
  N  0.08090857 -0.75822853 -1.41344165
  C  0.87953563 -1.96856373 -1.40513069
  C -0.82444702 -0.53041906 -0.31823355
  C -1.81365000 -1.37452924  0.25949614
  C -2.03453346 -2.76415518 -0.27676952
  O -2.51475834 -0.93915253  1.18498119
  C -0.76633213  0.80953331 -0.01280545
  O  0.14996513  1.47294542 -0.76862434
  N -1.45388992  1.46920519  0.92313040
  C -1.54667855  2.90713808  0.96528493
  H  4.04427727  1.43464935  1.29515661
  H  4.49764123  0.20599232  0.08828600
  H  3.78389994 -0.29129773  1.64002113
  H  1.69282575  0.80609402  0.80056408
  H  0.82915497  0.81994711 -2.59564155
  H  1.64257310 -1.87878452 -2.17699457
  H  0.24303856 -2.81121006 -1.65600652
  H  1.37444316 -2.15317776 -0.44250731
  H -1.21729504 -3.42269348  0.00848275
  H -2.95772442 -3.15145745  0.14815022
  H -2.10941978 -2.74084075 -1.36137315
  H -2.19983252  0.88977288  1.32394544
  H -1.68686122  3.22050636  1.99903214
  H -0.62547777  3.33570861  0.57634902
  H -2.38621991  3.27330807  0.36632145
