29
opt_min/./Reactant_4646_1_opt.xyz
  C -0.08416100  3.62932200  1.72262700
  O  0.20374863  2.36344171  1.16616029
  C -0.86896081  1.68255785  0.68361235
  O -1.99863292  2.13302251  0.73055243
  C -0.53377451  0.38615736  0.14241013
  O -1.61606614 -0.17931969 -0.41286486
  C -1.91046727 -1.39368311 -0.69628698
  C -1.06376913 -2.58179826 -0.40786553
  C -3.27151574 -1.55824137 -1.30185297
  C  0.80720037 -0.16148200  0.08358595
  C  1.28728038 -0.74544834 -1.09815509
  C  2.58043287 -1.22839973 -1.17785938
  C  3.42589006 -1.14583932 -0.08549446
  C  2.97177333 -0.55093187  1.08206846
  C  1.68528689 -0.06017290  1.16818873
  H -0.70051933  4.21526580  1.03546971
  H -0.62271141  3.51774390  2.66798658
  H  0.87479946  4.11448075  1.88774346
  H -1.52022038 -3.47820328 -0.81618273
  H -0.96252842 -2.69853102  0.67546868
  H -0.04881135 -2.48304248 -0.80130385
  H -3.25521843 -1.30289075 -2.36374087
  H -3.62290647 -2.58014787 -1.19961699
  H -3.97333673 -0.87890895 -0.82030231
  H  0.66660532 -0.74637897 -1.98424271
  H  2.93023439 -1.66685514 -2.10271842
  H  4.43430630 -1.52827208 -0.14793423
  H  3.62968873 -0.47374426  1.93574570
  H  1.34020994  0.39251078  2.08362879
