25
opt_min/./Reactant_1155_0_opt.xyz
  C -5.01058368 -0.01297423  0.52358617
  N -4.09063035  1.05200257  0.85015380
  C -2.80965918  1.10088604  0.39227214
  O -2.24513272  0.15573104 -0.12583607
  C -2.23007560  2.44592198  0.66914188
  C -3.17116309  3.47104491  0.85269130
  N -3.98132427  4.29233739  0.89001743
  O -0.96932645  2.83117133  0.80964102
  C  0.21857710  2.35888298  0.70405495
  C  0.76423855  1.13686046  0.15865587
  C  1.91840045  0.61228630  0.75422527
  C  2.49650940 -0.53954462  0.26315446
  C  1.95216387 -1.16394488 -0.85068127
  C  0.83464379 -0.62474781 -1.46626375
  C  0.23366349  0.51820425 -0.97542631
  H -5.86872030  0.02914503  1.18843840
  H -4.49043365 -0.96533057  0.62296920
  H -5.37826043  0.11365649 -0.49770827
  H -4.31313499  1.76628664  1.52538095
  H  0.93541069  3.07920335  1.09263976
  H  2.33892305  1.09981540  1.62041664
  H  3.36921388 -0.96122738  0.74013306
  H  2.40580925 -2.06570263 -1.23257771
  H  0.43458562 -1.11620954 -2.33861983
  H -0.64037949  0.90427605 -1.46925900
