23
opt_min/./Reactant_1292_0_opt.xyz
 Br  0.74345000  2.75387600 -1.24204200
  C  1.18287242  0.97866966 -0.89478832
  C  0.43936159 -0.03978444 -0.44526457
  C -0.95761516 -0.14503874 -0.07484023
  C -1.66980127 -1.31307717 -0.35862483
  C -3.00614922 -1.40835543 -0.02334161
  C -3.64906827 -0.35387672  0.60608897
  C -2.94509834  0.80136567  0.89953620
  C -1.60777596  0.91112381  0.56188952
  C  1.46388651 -1.19510446 -0.37994053
  C  2.37433630 -0.83078281  0.79642796
  C  3.09514485  0.19146728  0.36397058
  C  2.60430857  0.42689137 -1.06906409
  O  2.30802561 -0.89462773 -1.48094608
  H -1.17724207 -2.12977821 -0.86589850
  H -3.55127122 -2.31024516 -0.25585971
  H -4.69297676 -0.43423049  0.86640993
  H -3.43824414  1.62340072  1.39441180
  H -1.06136773  1.80686366  0.81027090
  H  1.08104238 -2.20948406 -0.42345598
  H  2.36979120 -1.31460960  1.75056232
  H  3.83576472  0.78423480  0.85869872
  H  3.25620688  0.94550827 -1.76577095
