36
opt_min/./Reactant_2223_0_opt.xyz
  C -2.42007100  3.88533800  0.66570600
  N -1.72529440  2.62441296  0.70024868
  C -2.38860528  1.43503731  0.67509820
  O -3.60056979  1.34843289  0.65479044
  C -1.50899932  0.25311033  0.65778883
  O -0.24814172  0.44584091  0.31373479
  C  0.72706498 -0.43433754  0.30003542
  C  0.65427970 -1.72421889  1.04420500
  C  0.26651274 -1.57210832  2.49545657
  O  1.02501015 -2.77723086  0.57200794
  C  1.93988696 -0.03136264 -0.37931927
  C  1.96616052  1.15594136 -1.12618433
  C  3.11669510  1.55585086 -1.77135474
  C  4.26559422  0.78273275 -1.69839654
  C  4.25084603 -0.39765699 -0.97153367
  C  3.10752054 -0.80368468 -0.31374436
  C -2.10121909 -1.10208328  0.89357312
  O -2.73248220 -1.39525234  1.88504332
  N -1.84368565 -1.96698694 -0.11833299
  C -2.20605613 -3.36195378 -0.05810424
  H -2.23372466  4.41336748 -0.27281597
  H -2.10997613  4.51735819  1.49905770
  H -3.48350995  3.66507702  0.74927663
  H -0.71814991  2.63287150  0.69533410
  H  0.08934088 -0.53651305  2.77323076
  H -0.62678717 -2.15387555  2.72265741
  H  1.07586172 -1.98227838  3.09828582
  H  1.07008971  1.75462612 -1.20310202
  H  3.11848209  2.47300400 -2.34172648
  H  5.16315415  1.09698760 -2.20882932
  H  5.14075050 -1.00616590 -0.91374152
  H  3.11380581 -1.72479599  0.24548011
  H -1.35873322 -1.65420766 -0.94505435
  H -1.30947507 -3.98047335  0.03696476
  H -2.75067103 -3.65107460 -0.95639429
  H -2.84175161 -3.49668606  0.81528164
