19
opt_min/./Reactant_817_0_opt.xyz
  C  4.11546100 -0.06909900 -0.41521600
  N  2.98462925 -0.19927245  0.47020525
  C  1.71627406  0.02454133  0.06623789
  O  1.40459914  0.34798777 -1.07391194
  C  0.68373619 -0.15106451  1.08969698
  N -0.53755110  0.07526937  0.68578529
  N -1.60876032 -0.00079190  1.38255157
  C -2.82786561  0.25252853  0.78769822
  C -2.87740863  0.42817365 -0.72333013
  O -3.82408501  0.30946340  1.47049585
  H  4.65129273 -1.01517210 -0.50149189
  H  4.80072791  0.69859085 -0.05435192
  H  3.73120603  0.21895801 -1.39148700
  H  3.16018984 -0.45948560  1.42665343
  H  0.87865152 -0.44673312  2.10457388
  H -0.55170638  0.35218915 -0.32122666
  H -2.53068399 -0.47389884 -1.22619311
  H -2.27346759  1.27311365 -1.05129702
  H -3.91070797  0.61249896 -0.99803423
