10
opt_min/./Reactant_4562_1_opt.xyz
  O  2.88813886 -0.84774212  0.48997444
  C  2.68168452 -0.14624344 -0.38986448
  O  2.49208088  0.54764861 -1.27844381
  C -0.31413684 -0.29709901  0.46454418
  C -0.73310310  0.41968948 -0.39372386
  C -3.79772162  0.43158427  0.24994272
  O -3.66462585 -0.25930730  1.15124543
  O -3.94723495  1.13751280 -0.63824454
  H  0.04780376 -0.92551746  1.22419456
  H -1.09294288  1.05056694 -1.15241433
