18
opt_min/./Reactant_1248_0_opt.xyz
  C  3.03564000  0.09414800  0.06155500
  N  1.59996135  0.02097693  0.23397363
  C  0.87048429 -0.93802665 -0.38667270
  O  1.31210856 -1.74009204 -1.17150663
  C -0.58502861 -0.86860042 -0.04325494
  O -1.31242449 -1.90469246  0.28292821
  C -2.70575193 -1.37438200  0.43955970
  O -3.59028643 -2.09927161  0.75159758
  N -2.62641661 -0.07830369  0.16241736
  N -1.35454452  0.20569701 -0.11848104
  C -0.99885830  1.54657329 -0.49621177
  H  3.54412824 -0.00089389  1.01993912
  H  3.30894571  1.04518744 -0.39888627
  H  3.33695372 -0.72124220 -0.59366441
  H  1.19408285  0.55791524  0.98362275
  H -0.72763943  2.13127562  0.38464245
  H -0.16949663  1.53392580 -1.19988140
  H -1.87895089  1.99738283 -0.95269179
