10
opt_min/./Reactant_5164_1_opt.xyz
  O  2.88813886 -0.84774211  0.48997442
  C  2.68168424 -0.14624264 -0.38986375
  O  2.49208181  0.54764873 -1.27844384
  C -0.31413781 -0.29709990  0.46454334
  C -0.73310307  0.41968891 -0.39372497
  C -3.79772227  0.43158278  0.24994152
  O -3.66462844 -0.25930559  1.15124716
  O -3.94723706  1.13751484 -0.63824279
  H  0.04780271 -0.92551819  1.22419395
  H -1.09294270  1.05056629 -1.15241565
