30
opt_min/./Reactant_3141_1_opt.xyz
  N  3.15057229  0.46848367 -2.73696623
  C  2.59990061  0.44330472 -1.73870811
  C  1.92246068  0.33950357 -0.45575853
  C  2.69582625  1.22230948  0.55376985
  F  2.02140081  1.38266067  1.69871554
  F  3.87773319  0.68403109  0.87531689
  F  2.93600309  2.44215229  0.06952134
  C  0.54073663  0.77684996 -0.51914765
  C -0.63806015  0.74466199 -0.30402458
  C -1.97754560  0.31882782  0.06079059
  C -2.63486219  1.43526602  0.90374871
  F -2.54860447  2.62235084  0.30373687
  F -3.92209096  1.21484234  1.17268732
  F -2.01955366  1.54787140  2.08866548
  C -2.79734944  0.09547804 -1.23424721
  F -4.11364146  0.05881600 -1.03308758
  F -2.56164793  1.04610700 -2.14022853
  F -2.47555332 -1.07214024 -1.80798193
  C -1.79392590 -0.98711107  0.87472593
  C -0.59994060 -1.83931404  0.38997321
  C  0.75648710 -1.45963260  1.02103871
  C  1.87079737 -1.15163718 -0.00083261
  H -2.71015758 -1.57924920  0.83841224
  H -1.62247942 -0.71953618  1.91860614
  H -0.52852108 -1.75636025 -0.69371882
  H -0.82250816 -2.88308382  0.60502592
  H  1.09975883 -2.27839868  1.65230626
  H  0.62945634 -0.59552669  1.67325859
  H  2.84201691 -1.42835036  0.41288519
  H  1.71350287 -1.76697057 -0.88943796
