34
opt_min/./Reactant_5941_1_opt.xyz
  C  3.93516200 -2.63715900 -2.07114800
  N  2.64159314 -2.41475003 -1.47362543
  C  2.15456350 -1.16505156 -1.27843821
  O  2.76453179 -0.15556497 -1.62570627
  C  0.84168140 -1.04942784 -0.63377756
  C -0.02883049 -2.21458097 -0.30873645
  N  0.49050650  0.21779577 -0.46995992
  C -0.54426061  0.83996074  0.10460674
  C -0.69368919  2.25534751 -0.19056382
  O -1.53223768  2.99624152  0.27634006
  O  0.25419958  2.68709111 -1.07715073
  C  0.24885707  4.06426941 -1.40644994
  C -1.41638970  0.22535104  1.10062704
  C -0.87326512 -0.55861935  2.12435417
  C -1.68336602 -1.08996122  3.10767068
  C -3.04706912 -0.84366294  3.09996076
  C -3.58992773 -0.04604687  2.10758418
  C -2.78628580  0.48847172  1.11882044
  H  4.71463538 -2.73425979 -1.30879815
  H  3.91357517 -3.54290944 -2.67576215
  H  4.17125235 -1.77706558 -2.69679668
  H  2.13298480 -3.21247735 -1.13283299
  H -0.02201368 -2.92562780 -1.13591431
  H -1.05262361 -1.88204995 -0.15860348
  H  0.29400058 -2.73206292  0.59754820
  H  1.17214487  0.83771592 -0.94454309
  H -0.20212165  4.19922364 -2.39230189
  H -0.32773614  4.62139861 -0.66460459
  H  1.28447080  4.40160535 -1.41945065
  H  0.19352354 -0.72238330  2.16212997
  H -1.24698086 -1.69207164  3.89177024
  H -3.67804990 -1.26143618  3.87027001
  H -4.65013047  0.16342669  2.10395024
  H -3.21243143  1.11171541  0.34988631
