17
opt_min/./Reactant_4209_1_opt.xyz
  C  1.97076684  2.36155101 -0.83543601
  N  1.17774183  1.49117975 -1.00271028
  C  0.59856532  0.35228437 -1.17126546
  C  0.40229577 -0.09696909 -2.48852262
  N  0.23492800 -0.47278818 -3.56151101
  C  0.08970960 -0.41632068 -0.03909880
  C -0.48077443 -1.67278779 -0.24640760
  C -0.96196290 -2.41274393  0.81695051
  C -0.88866533 -1.90744236  2.10512138
  C -0.32429977 -0.65955598  2.31670403
  C  0.16466809  0.08586592  1.26098861
  H  1.89026802  3.41828077 -0.72907514
  H -0.54029233 -2.06677630 -1.24922044
  H -1.40142209 -3.38216745  0.64001232
  H -1.27068964 -2.48213629  2.93555021
  H -0.26540098 -0.26307433  3.31773727
  H  0.60770388  1.05707353  1.43000831
