28
opt_min/./Reactant_1260_1_opt.xyz
  C  3.59831600 -0.14755000  1.87139600
  N  2.30665175  0.04750150  1.26080145
  C  2.03610159 -0.45015838  0.04686205
  O  2.81048957 -1.15097833 -0.58255771
  C  0.65338514 -0.19148249 -0.50556515
  C  0.44647135 -0.98908953 -1.78505747
  C  1.15101533 -0.37966124 -2.95771342
  O -0.23183957 -1.97938012 -1.81765732
  C -0.40405503  0.53295941 -0.08268608
  C -0.54542438  1.47856378  1.05110081
  C -1.94654005  1.93682510  1.33151215
  O  0.38927914  1.89069564  1.71016764
  C -1.62729919  0.41487805 -0.97720063
  C -2.58927564 -0.67456465 -0.58425407
  O -1.78038838  1.12665913 -1.93553304
  H  3.98287554 -1.12285534  1.57472212
  H  4.30872009  0.61680612  1.54548359
  H  3.48957003 -0.10184493  2.95240687
  H  1.69137577  0.76718632  1.63119141
  H  2.22151834 -0.44391278 -2.76916631
  H  0.90690591 -0.92840506 -3.86426659
  H  0.86478411  0.66370474 -3.06386815
  H -2.53506021  1.10077458  1.70392487
  H -1.91994196  2.71475798  2.09193540
  H -2.41756773  2.32093511  0.42967971
  H -2.85121065 -1.23972578 -1.47670653
  H -2.16157080 -1.34556531  0.15362258
  H -3.50773193 -0.23667655 -0.19751120
