20
opt_min/./Reactant_1249_0_opt.xyz
  C  1.41439800 -0.02162900  2.28792700
  C  0.42156477  0.61784038  1.38254984
  O  0.22836485  0.07142858  0.24878043
  C -0.54975690  0.29626968 -0.80286984
  C -1.48521394  1.40315003 -1.00008814
  C -1.42710548  2.58842725 -0.04753011
  O -2.28574371  1.40499331 -1.90988507
  C -0.36354940 -0.71530278 -1.85999315
  C  0.55594853 -1.86611333 -1.48493562
  O -0.87183362 -0.64922236 -2.95337701
  H  0.91228821 -0.65459033  3.02263201
  H  1.97243269  0.73683051  2.83176474
  H  2.09939453 -0.64553803  1.71886334
  H -0.11408473  1.48976773  1.72506264
  H -2.04411829  3.37790573 -0.47112598
  H -0.40858639  2.95589516  0.06511322
  H -1.83874738  2.32309340  0.92498977
  H  0.26023528 -2.31960189 -0.54264481
  H  0.51714135 -2.60849635 -2.27679198
  H  1.57752738 -1.50150798 -1.39325065
