27
opt_min/./Reactant_2793_1_opt.xyz
  C  2.86988644 -0.27580617  0.79057415
  O  1.78603125  0.49328782  0.33233594
  C  1.04622209 -0.01190005 -0.77670118
  C  1.89089475 -0.11380180 -2.04812416
  C -0.04776722  0.94001741 -0.91050286
  C -1.17476613  1.31501597 -0.73096416
  C -2.38637912  1.57051329 -0.03540496
 Br -2.53804564  3.46344276  0.53594328
 Br -3.96986786  1.18794778 -1.17241772
  C -2.35593423  0.63502457  1.17370610
  C -2.02508193 -0.82741217  0.81408033
  C -0.59124557 -1.40724030  0.79229274
  C  0.31157301 -1.33518573 -0.45954508
  H  2.56349053 -1.27396690  1.12004068
  H  3.65867845 -0.37185887  0.03742987
  H  3.26732301  0.27011090  1.64449683
  H  1.25358648 -0.35685055 -2.89412369
  H  2.37337945  0.84348017 -2.23238594
  H  2.65292608 -0.88346568 -1.95389350
  H -1.66436597  1.02659203  1.92117303
  H -3.36103411  0.63216815  1.60931034
  H -2.53218504 -1.41484610  1.58649535
  H -2.52977722 -1.08645224 -0.12083561
  H -0.77056837 -2.48475318  0.87458663
  H -0.04972120 -1.08887659  1.68265081
  H  1.07226558 -2.11343993 -0.34821861
  H -0.28518505 -1.60979338 -1.33236418
