30
opt_min/./Reactant_5232_1_opt.xyz
  C  4.05035500 -0.76811400  1.21077900
  N  3.11568317 -0.90139937  0.11865743
  C  2.18464220  0.05262631 -0.12618051
  O  2.07988890  1.05633128  0.55300258
  C  1.35360003 -0.18879923 -1.33387866
  C  1.97567715 -0.78204703 -2.55906659
  N  0.13195863  0.26973362 -1.42661914
  C -0.75467427  0.77686265 -0.54850743
  C -1.93035593  1.29058476 -1.22441313
  O -2.00828250  1.26549903 -2.44684291
  O -2.88764714  1.73221096 -0.40985146
  C -4.05344251  2.28116666 -1.00653322
  C -0.64926290  0.68468210  0.91222571
  O -1.07995850  1.47505521  1.70692483
  O -0.06118732 -0.48477148  1.27288925
  C  0.14504083 -0.64173412  2.66734899
  H  4.95258707 -0.23943356  0.89085498
  H  4.32222778 -1.75187281  1.58645723
  H  3.57908548 -0.18510375  2.00165215
  H  3.14734547 -1.73737678 -0.43811586
  H  2.99597695 -0.42362208 -2.69016302
  H  1.39729004 -0.51552885 -3.44190990
  H  2.00680161 -1.87227973 -2.49905010
  H -0.29428659  0.31796924 -2.36940109
  H -4.12868172  3.32937891 -0.71572859
  H -4.91688893  1.73144582 -0.63051428
  H -3.99402608  2.19541287 -2.09319725
  H  0.71488636 -1.56024592  2.78978641
  H  0.69765695  0.21544210  3.05652515
  H -0.81092901 -0.71321866  3.18989516
