29
opt_min/./Reactant_4179_1_opt.xyz
  C  1.67409122  4.51191280  1.83875467
  N  0.93038312  3.33648729  1.45834169
  C -0.41698645  3.35487166  1.37521878
  O -1.10910562  4.30769214  1.66179444
  C -0.99914582  2.05250885  0.90146887
  C -2.38641320  1.98918116  0.69959857
  N -3.50704666  2.04713430  0.45067903
  O -0.13656564  1.12632791  0.61809586
  C -0.26897139 -0.10409875  0.19371485
  C -1.57939523 -0.79471645  0.23150074
  O -2.39404925 -0.54811323  1.09879797
  N -1.77921990 -1.74036558 -0.72427438
  C -3.03455602 -2.46213553 -0.76583774
  C  1.05724825 -0.70254846 -0.08371319
  O  2.04918629 -0.00027451 -0.16789082
  N  1.08592463 -2.05241201 -0.20354503
  C  2.30907468 -2.75921529 -0.50128623
  H  1.93570871  5.11512664  0.96477996
  H  2.58494550  4.21729421  2.35594276
  H  1.04767168  5.11197189  2.49751441
  H  1.44927452  2.53413082  1.13381592
  H -1.17555378 -1.77837139 -1.52896298
  H -3.87289937 -1.76395299 -0.81141446
  H -3.04773831 -3.11519994 -1.63294937
  H -3.14394533 -3.05405275  0.14407013
  H  0.25362396 -2.59157232 -0.02903736
  H  3.14239108 -2.09239593 -0.28466847
  H  2.38343055 -3.65618167  0.11115332
  H  2.35099210 -3.04068210 -1.55701943
