33
opt_min/./Reactant_2992_0_opt.xyz
  C -1.90093005 -2.65387728  0.70354127
  C -2.60630436 -1.35368228  0.44361836
  O -3.75147660 -1.16879248  0.75883841
  C -1.73933273 -0.27227607 -0.21999390
  C -2.56637571  0.66214337 -1.12494029
  C -3.63659111  1.48079409 -0.46374915
  O -2.33802088  0.71819300 -2.30455666
  C -0.67075761 -0.87207878 -1.03804740
  C  0.50823794 -0.97318220 -1.32052943
  C  1.95676353 -0.89787423 -1.09744475
 Cl  2.39664042 -2.32707056 -0.05389337
  C  2.73496230 -1.09257648 -2.40622544
  F  4.05303406 -1.22112357 -2.21060656
  F  2.33349068 -2.17180240 -3.07922095
  F  2.57650689 -0.04265813 -3.22616747
  C  2.51318037  0.40852185 -0.38992075
  C  1.85189942  0.92953487  0.93644509
  C  0.40067917  0.57378181  0.63863183
  C -1.07116488  0.57601410  1.01317387
  H -2.30495269 -3.10963082  1.60529909
  H -2.11665120 -3.32338857 -0.12918471
  H -0.82481163 -2.53850450  0.78017355
  H -3.22991885  2.45944446 -0.21084697
  H -4.01742812  1.00425144  0.43300574
  H -4.44191964  1.63872139 -1.17758137
  H  2.42693465  1.20193789 -1.13647666
  H  3.57489573  0.21716738 -0.22202980
  H  2.24961193  0.40556410  1.80375571
  H  2.06660454  1.99372789  1.03025737
  H  0.32715583  0.97979877 -0.37228141
  H  0.55342982 -0.50204771  0.64551613
  H -1.28356627  0.06716673  1.95384236
  H -1.52808930  1.56135247  1.03365609
