38
opt_min/./Reactant_2364_0_opt.xyz
  C -1.30889700  2.77429100  2.33343800
  N -1.27064105  1.77362084  1.30072477
  C -0.21648233  0.91944419  1.15307870
  O  0.79458304  1.02977633  1.84740040
  C -0.37938279 -0.12174793  0.15421414
  C -1.70038510 -0.53266478 -0.30668766
  C -2.79317511 -0.64878589  0.55870611
  C -4.04036337 -1.00264450  0.08229009
  C -4.23083997 -1.25941016 -1.26587605
  C -3.15605708 -1.16102985 -2.13580584
  C -1.90941857 -0.80067164 -1.66635575
  N  0.71958908 -0.81512780 -0.26366026
  C  0.58024747 -2.26058097 -0.37906430
  C  1.90991817 -0.24480021 -0.41489150
  C  2.01728650  1.23480468 -0.56816986
  C  3.16322068 -1.02459432 -0.49630001
  O  3.29065070 -2.13668235 -0.98949729
  N  4.23339838 -0.33893489 -0.00719410
  C  5.55003200 -0.92267416  0.04933098
  H -0.42743755  2.62940057  2.95687564
  H -2.20933274  2.67006907  2.94256338
  H -1.28215297  3.78165960  1.90843217
  H -2.06846069  1.68095602  0.69568991
  H -2.64851996 -0.48006594  1.61619019
  H -4.86926375 -1.08996761  0.77002711
  H -5.20649329 -1.53695556 -1.63509870
  H -3.29426595 -1.35818158 -3.18914765
  H -1.08053566 -0.71068080 -2.35532763
  H  1.34194596 -2.66065628 -1.04355982
  H  0.70662072 -2.70822676  0.60914860
  H -0.41211197 -2.50744363 -0.74321153
  H  2.86908371  1.48686690 -1.19647526
  H  1.09766697  1.60905991 -1.02264301
  H  2.11302852  1.74600130  0.39527457
  H  4.06878500  0.47678506  0.55835490
  H  5.52636380 -1.84366346 -0.53112999
  H  5.83914348 -1.15400198  1.07697148
  H  6.28219896 -0.23775661 -0.38160385
