22
opt_min/./Reactant_4840_0_opt.xyz
  C  0.03064840 -2.76794186 -2.87068440
  N  0.11393721 -1.61926178 -1.99759584
  C -0.39696429 -1.66373515 -0.72979127
  O -1.00021484 -2.61173325 -0.28955905
  C -0.21489990 -0.37252978  0.00538486
  N -0.56738373  0.73142958 -0.65871770
  C -0.56092684  2.01992091 -0.35127989
  C -1.01027819  2.95161921 -1.27534005
  N -1.37090513  3.70789388 -2.06642608
  C  0.23711829 -0.43719487  1.38881437
  O  0.57469648 -1.44642888  1.95411528
  O  0.28349651  0.78414374  1.98969930
  C  0.70691002  0.77923035  3.34523942
  H -0.58518172 -2.54172624 -3.74459917
  H  1.02086472 -3.08005000 -3.20259110
  H -0.43445235 -3.57918052 -2.31151040
  H  0.80413443 -0.92073536 -2.22577577
  H -0.94095986  0.52046782 -1.58863040
  H -0.20567392  2.33970721  0.61318122
  H  0.94151230  1.81023523  3.59808459
  H  1.58076205  0.13618428  3.46318542
  H -0.09425299  0.40467784  3.98708122
