17
opt_min/./Reactant_3717_1_opt.xyz
  C -1.45164927  0.93113972 -1.33120961
  C -0.99701304  0.65333829  0.06406270
  C -1.78523035  1.16961507  1.09445257
  N -2.50011932  1.57647947  1.90025506
  N  0.06927979 -0.08773335  0.34303256
  C  0.51145245 -0.17073379  1.72705414
  C  0.84048123 -0.74625948 -0.55012839
  C  1.98965692 -1.42118563 -0.11455472
  N  2.92495869 -2.00602847  0.21182665
  C  0.62570338 -0.86269855 -1.92881393
  N  0.55138287 -1.01575491 -3.06653503
  H -2.29820907  1.61387831 -1.30730393
  H -1.77376724  0.00755563 -1.81753326
  H -0.64797328  1.36102858 -1.92964088
  H  0.78792204 -1.19881783  1.97122495
  H -0.28011942  0.15242546  2.40096625
  H  1.39278284  0.45726532  1.87815459
