32
opt_min/./Reactant_3046_0_opt.xyz
  C  3.27028711  0.48191868  1.48746577
  C  2.62700851 -0.48966206  0.54777074
  O  2.74646513 -1.67917206  0.59469526
  C  1.74215101  0.18420525 -0.53633316
  C  2.56700036  1.07080317 -1.32598572
  N  3.21470020  1.76917040 -1.95637707
  C  0.64190508  0.89885876  0.08654406
  C -0.53257616  1.03263577  0.29039296
  C -1.97170005  0.90429839  0.23721928
  C -2.63573399  2.28116910  0.05175684
  F -3.96532708  2.20480600 -0.04291380
  F -2.20713881  2.86553990 -1.07425473
  F -2.35618676  3.12334314  1.04716422
  C -2.50951135  0.25867818  1.52470741
  F -3.83435750  0.08923019  1.49059781
  F -1.97899205 -0.95076025  1.73979962
  F -2.22780084  0.98633206  2.60997403
  C -2.22194030  0.04221395 -1.03260177
  C -1.56373911 -1.35177570 -1.12698322
  C -0.10200094 -1.62320795 -0.71529754
  C  1.02135824 -0.85742200 -1.44606357
  H  3.82406279  1.23611857  0.93026615
  H  2.49864975  0.99301127  2.06351201
  H  3.93730720 -0.04356594  2.16594123
  H -1.89575802  0.65250122 -1.87762257
  H -3.30236695 -0.10449750 -1.12704524
  H -1.66794296 -1.63858114 -2.17637091
  H -2.16723873 -2.05177895 -0.54643812
  H  0.04613197 -2.68598687 -0.91449076
  H  0.00577266 -1.49979519  0.35999217
  H  1.78058326 -1.56098506 -1.78908854
  H  0.61782976 -0.33674615 -2.31530395
