18
opt_min/./Reactant_4620_1_opt.xyz
  C  3.95216400 -0.02687300 -0.13792900
  O  2.61092126 -0.47841582  0.00126489
  C  1.64519915  0.43874580 -0.09547866
  O  1.80557034  1.62555769 -0.30939636
  C  0.31822594 -0.12772326  0.02435967
  N -0.79733228  0.61222824 -0.06690334
  C -1.88902821 -0.14826913  0.07325758
  C -3.28614098  0.33820773  0.03947693
  C -1.41957243 -1.49454985  0.27116922
  O -1.99697597 -2.53706528  0.43970868
  O -0.02244623 -1.40238564  0.22790281
  H  4.51757850 -0.39558713  0.71741094
  H  3.97660691  1.06433998 -0.17104550
  H  4.36637962 -0.43705607 -1.06016896
  H -0.76508313  1.61435391 -0.22222072
  H -3.69146430  0.42061879  1.04932004
  H -3.90307287 -0.38103993 -0.49824751
  H -3.34911648  1.30821679 -0.44869079
