31
opt_min/./Reactant_2294_0_opt.xyz
  C  1.83876100 -2.83746200  1.35140000
  C  0.61421721 -2.10286456  0.93335824
  N  0.70553606 -0.87334292  0.46993191
  C -0.21977519  0.01998694  0.07234815
  C -1.63235897 -0.32688082 -0.01754050
  C -2.07275825 -1.53666590 -0.56185154
  C -3.42044886 -1.82857626 -0.64219482
  C -4.36285416 -0.92265144 -0.18465374
  C -3.94269424  0.28837485  0.34534108
  C -2.59806779  0.58435108  0.42768567
  C  0.23993735  1.34601740 -0.28169799
  C  1.42283429  1.88812882  0.24667057
  C  1.86195705  3.14109930 -0.12991919
  C  1.13355122  3.89823085 -1.03263091
  C -0.04459865  3.38558194 -1.55512635
  C -0.48441434  2.13127334 -1.19064437
  H  2.02436848 -2.72749535  2.42503714
  H  2.71601961 -2.46883127  0.82141936
  H  1.73499584 -3.90068551  1.14922534
  H -0.35631774 -2.52743574  1.10956716
  H  1.65487726 -0.51207788  0.40608242
  H -1.35342784 -2.23725800 -0.96142995
  H -3.73882928 -2.76755070 -1.07272963
  H -5.41596668 -1.15401563 -0.24611036
  H -4.67204198  1.00243845  0.70068375
  H -2.27552946  1.52596010  0.84782306
  H  1.98802655  1.33970654  0.99020011
  H  2.77416901  3.53721360  0.29372359
  H  1.47706777  4.88045091 -1.32045726
  H -0.61874721  3.96937433 -2.26042407
  H -1.39355902  1.73414162 -1.61661059
