30
opt_min/./Reactant_4862_0_opt.xyz
  C  4.43364300 -0.27708400 -0.53533900
  O  3.08915104  0.15986385 -0.43284162
  C  2.89238826  1.51658375 -0.37514223
  O  3.80366065  2.31278669 -0.39971938
  C  1.49779410  1.84890846 -0.28064670
  N  0.59442060  0.88147517 -0.26046420
  C -0.73334507  0.85185745 -0.17370299
  C -1.59213016  2.03134734 -0.09974021
  O -2.80262567  1.99147019 -0.11883495
  O -0.90849768  3.19388615 -0.00374406
  C -1.69139596  4.37605323  0.07163000
  C -1.36716936 -0.47198443 -0.20933679
  C -0.82302988 -1.49053121 -0.99790841
  C -1.39906472 -2.74581978 -1.02094630
  C -2.52696868 -3.00827067 -0.26131222
  C -3.07672991 -2.00504129  0.51915926
  C -2.50505522 -0.74719569  0.54962733
  H  5.09953898  0.45450110 -0.07403717
  H  4.70588394 -0.39530314 -1.58666057
  H  4.49802224 -1.23438072 -0.02189274
  H  1.20692463  2.88108718 -0.23844493
  H  1.02020564 -0.04737007 -0.32074877
  H -2.57921651  4.20305138  0.68236007
  H -1.05654539  5.13809055  0.51743100
  H -2.00368934  4.68166162 -0.92917255
  H  0.03533093 -1.28965468 -1.62497772
  H -0.97202113 -3.52004605 -1.64134420
  H -2.97804258 -3.98894807 -0.28343550
  H -3.95632976 -2.20596030  1.11227777
  H -2.93568983  0.02785130  1.16098497
