32
opt_min/./Reactant_1870_0_opt.xyz
  C -3.38811300  2.55035400  1.20279800
  N -2.89297698  1.41514359  0.46296575
  C -1.65982810  0.92143471  0.67431160
  O -0.86860389  1.42773058  1.46409408
  C -1.27994956 -0.30242332 -0.06275119
  N -0.00385836 -0.70509969 -0.03897278
  C  1.11023446 -0.06660640  0.26290475
  C  1.17686281  1.43226764  0.32167954
  C  1.92164227  2.03549778  1.47342010
  O  0.75221566  2.06429966 -0.61910309
  C  2.27426135 -0.95791481  0.32163098
  O  2.15592174 -2.16320334  0.22567351
  O  3.45027251 -0.33464446  0.46807492
  C  4.59035809 -1.18427446  0.51415365
  C -2.16440714 -1.32355219 -0.61765459
  O -1.73867478 -2.40065160 -0.98629535
  O -3.46844506 -0.98363879 -0.70687103
  C -4.33143363 -2.00349699 -1.19860439
  H -3.84088095  3.26759362  0.51801502
  H -2.54080864  3.01288335  1.70714510
  H -4.12557216  2.24983599  1.95080113
  H -3.55084516  0.87758260 -0.07969629
  H  0.12643652 -1.70390658 -0.28648864
  H  1.50093917  1.67243176  2.40782227
  H  1.83875804  3.11750401  1.43025081
  H  2.96751362  1.74327498  1.42772296
  H  4.61420647 -1.83799050 -0.35871919
  H  5.45755942 -0.52854500  0.52797014
  H  4.56673420 -1.80221368  1.41447993
  H -3.90205241 -2.47114038 -2.08630594
  H -5.27286446 -1.51633278 -1.44126877
  H -4.48337943 -2.77109789 -0.43692001
