9
opt_min/./Reactant_157_0_opt.xyz
  C -1.33536800  0.29086500  0.25778701
  C -0.33443470 -0.77619074 -0.09490100
  O -0.57234456 -1.95809946 -0.08919319
  C  0.95913488 -0.25988425 -0.46153594
  C  2.04645414  0.15145817 -0.78447141
 Cl  3.51364173  0.70371094 -1.20119179
  H -1.71385225  0.72875043 -0.66301041
  H -0.86682544  1.08932614  0.82913670
  H -2.15816462 -0.14191822  0.81649909
