20
opt_min/./Reactant_1670_1_opt.xyz
  F -2.52961504 -0.35994758  1.16117221
  C -1.80337999  0.62219795  0.55556218
 Br -2.96027951  2.25453831  0.59649799
  C -0.53099675  0.82854534  1.17442581
  C  0.66681116  0.80510853  1.25088060
  C  2.00986378  0.37197204  1.00169517
  C  1.81510670 -0.91823017  0.17480979
  C  0.98198381 -0.78265824 -1.11460921
  C -0.55527755 -0.96602857 -1.08402066
  C -1.49640002  0.24182341 -0.89823220
  H  2.56183671  0.16151331  1.92334162
  H  2.56268628  1.12014275  0.42925319
  H  1.36493669 -1.68668587  0.80714515
  H  2.81164747 -1.26972088 -0.10615044
  H  1.23179359  0.14678037 -1.63108817
  H  1.33510362 -1.60212105 -1.75084828
  H -0.81804397 -1.75438599 -0.37557582
  H -0.80917557 -1.34036983 -2.08116722
  H -2.45334673 -0.00629129 -1.36527616
  H -1.08838880  1.11817959 -1.40542701
