29
opt_min/./Reactant_4692_1_opt.xyz
  C  1.74620400 -1.56541000  2.66692300
  N  1.46913230 -0.62719989  1.60638938
  C  0.27102179 -0.61909482  0.98975639
  O -0.60694241 -1.40258463  1.33828469
  C  0.07224655  0.31146232 -0.15368299
  C  1.04582623  1.25692296 -0.65613836
  O  0.84224354  2.09459117 -1.51537206
  O  2.25845383  1.23033864 -0.02982586
  C  3.20836381  2.17455914 -0.50027522
  N -1.10209659  0.15521331 -0.83891864
  C -1.13816977  0.41014823 -2.26568473
  C -2.21332788 -0.20428813 -0.22426251
  C -3.40055336 -0.81132439 -0.81218856
  C -4.48938274 -1.05890737  0.20379005
  O -3.54094165 -1.10865804 -1.98603848
  H  2.43188701 -1.11291388  3.37995375
  H  0.80896231 -1.81906292  3.16094399
  H  2.18742050 -2.48663389  2.27609139
  H  2.21506318 -0.02867111  1.29666778
  H  2.78691612  3.18072557 -0.47771724
  H  3.50155246  1.93735177 -1.52456392
  H  4.06163765  2.09996912  0.16888212
  H -0.88173048  1.45119791 -2.45444953
  H -2.12526559  0.18707082 -2.65467092
  H -0.40225006 -0.21530881 -2.77070686
  H -2.19898727 -0.18927419  0.85230704
  H -4.08163013 -1.48937677  1.11329963
  H -5.23873100 -1.72233062 -0.21854147
  H -4.95893113 -0.10779139  0.45024500
