20
opt_min/./Reactant_5439_1_opt.xyz
  C  0.44169200  2.48436400  0.04906400
  O -0.39643398  1.53231873 -0.09917905
  C -0.22878656  0.24577381  0.07227507
  C  1.06942853 -0.38443902  0.47015738
  O  1.19190700 -1.09474446  1.44047351
  N  2.10970006 -0.04075106 -0.34320627
  C  3.41340382 -0.64261535 -0.18584597
  C -1.41252274 -0.59410417 -0.08626702
  O -1.40571796 -1.79989635 -0.13109584
  O -2.53160139  0.15175571 -0.23317579
  C -3.73099030 -0.58163041 -0.41912570
  H  1.46365588  2.32328121  0.35685089
  H  0.06070764  3.47214970 -0.13327835
  H  1.90974509  0.38156481 -1.23768027
  H  4.18203100  0.13036704 -0.13188953
  H  3.63952330 -1.31766540 -1.01290643
  H  3.39896464 -1.20809742  0.74413954
  H -4.48251569  0.13840712 -0.73352539
  H -4.02997234 -1.06032651  0.51582924
  H -3.59091459 -1.35385082 -1.17831742
