22
opt_min/./Reactant_3114_0_opt.xyz
  C  3.40904808  0.03012636  0.82273523
  C  2.33364199 -0.49381177 -0.10372835
  O  2.57481613 -1.29934695 -0.97547042
  C  0.99163751  0.06445366  0.10255788
  N  0.85250175  1.04156918  0.92106697
  C  0.71267275  1.96222585  1.65229500
  C  0.54905013  2.98491720  2.48858346
  N  0.40648607  3.88014722  3.21234855
  C -0.19270182 -0.41579182 -0.62031683
  C -0.24328095 -1.71405684 -1.13203840
  C -1.36794459 -2.14675070 -1.80784351
  C -2.45830209 -1.30916635 -1.97718623
  C -2.41883896 -0.02386413 -1.46408181
  C -1.29747591  0.42086383 -0.79085459
  H  3.76761963  0.98639265  0.44143498
  H  4.24548331 -0.66407769  0.82303442
  H  3.04513621  0.17192663  1.83684504
  H  0.59789325 -2.37444586 -1.00408063
  H -1.39477711 -3.15194209 -2.20247296
  H -3.33221775 -1.65447042 -2.50652219
  H -3.26416322  0.63639195 -1.59006188
  H -1.27244011  1.43108337 -0.40594525
