32
opt_min/./Reactant_2715_1_opt.xyz
  C -3.98385600  1.04423600 -0.19029900
  C -3.00358616  0.25725503  0.66582902
  O -3.19149231  0.23529505  1.88890903
  C -1.89356359 -0.33240755 -0.00893464
  C -1.68111879 -0.03018033 -1.46660897
  N -0.98729069 -1.14793054  0.61089170
  C -1.45124527 -1.89097415  1.77343690
  C  0.28406958 -1.26956770  0.21302627
  C  1.00234578 -2.58381397  0.33529395
  C  1.03732668 -0.15623084 -0.33007487
  C  2.22087291 -0.35187971 -1.05494487
  C  2.98879654  0.71913741 -1.46963292
  C  2.61322969  2.01694461 -1.16748115
  C  1.45404028  2.23090531 -0.43636351
  C  0.67451990  1.16878000 -0.03437570
  H -3.58584896  2.04172352 -0.37355801
  H -4.90786379  1.14778261  0.37237732
  H -4.18595382  0.57396707 -1.14609866
  H -0.79065266 -0.51998979 -1.84826791
  H -1.58239049  1.03592763 -1.66548370
  H -2.52926128 -0.40249360 -2.04554705
  H -2.22971900 -2.59852540  1.48527639
  H -1.89931914 -1.17636157  2.46579720
  H -0.63220904 -2.40314495  2.26437757
  H  1.21435314 -2.96059606 -0.66767297
  H  0.40913751 -3.34333272  0.83347258
  H  1.95012296 -2.46980670  0.85820194
  H  2.54900681 -1.34430657 -1.32100084
  H  3.89026639  0.53433855 -2.03589371
  H  3.21687997  2.84938897 -1.49573974
  H  1.15558377  3.23695869 -0.17958931
  H -0.21146469  1.36297013  0.55114204
