14
opt_min/./Reactant_4165_0_opt.xyz
  C -2.57490200  0.10588800 -0.21763800
  N -1.15309723 -0.03824583 -0.42367362
  C -0.27508172  0.10155652  0.59593938
  O -0.58086929  0.31525806  1.74394102
  C  1.14054657 -0.05361438  0.16421127
  O  1.47894796 -0.27402032 -1.09242430
  N  2.76273499 -0.37179857 -1.25390277
  O  3.33401504 -0.21698554 -0.08258662
  C  2.36253859  0.00199326  0.94047720
  O  2.66029286  0.16708508  2.07613313
  H -2.75242568  0.10581659  0.85697726
  H -2.93576706  1.04806677 -0.63715004
  H -3.10506907 -0.72431406 -0.68356546
  H -0.83243816 -0.18173916 -1.36837835
