17
opt_min/./Reactant_263_1_opt.xyz
  C  3.37280788 -0.49902740  0.40085523
  C  2.17125584 -1.43249123  0.36258188
  O  2.25892854 -2.65558672  0.44665785
  C  0.96311643 -0.78260519  0.25713264
  N -0.10599467 -0.26684585  0.13007947
  C -1.24031623  0.27979545 -0.01891922
  C -1.34583946  1.76953462 -0.11500233
  C -2.47207607 -0.57375936 -0.04793250
  H  3.41339096  0.01762146  1.35781275
  H  3.31073342  0.24739330 -0.38909874
  H  4.27384694 -1.09158491  0.27298465
  H -1.98647144  2.04506661 -0.95157231
  H -0.36497144  2.21678221 -0.25508322
  H -1.78680525  2.18344686  0.79356628
  H -3.35051655  0.04947569 -0.18656732
  H -2.57966762 -1.13564405  0.87957633
  H -2.42428931 -1.29498705 -0.86441195
