33
opt_min/./Reactant_1899_1_opt.xyz
  C  4.78139459 -0.36378102  0.30844175
  N  3.49288124 -1.00782400  0.24297606
  C  2.33982668 -0.36288354  0.54414185
  O  2.31006277  0.79539715  0.89796011
  C  1.09533000 -1.22788813  0.34941521
  C -0.03465053 -0.72054726  1.09474504
  C -1.08620134 -0.15793566  1.22708876
  C -2.36621762  0.43987074  0.89366144
  C -2.26436606  1.97154037  0.94491935
  C -3.48714263 -0.04284577  1.81902566
  C -2.58559846 -0.08341864 -0.54368242
  C -1.56444110  0.33860105 -1.62319760
  C -0.03506420  0.24636129 -1.43611561
  C  0.61765424 -1.11915036 -1.12803154
  H  5.46201166 -0.92660657  0.95028399
  H  4.62626459  0.63046019  0.72555560
  H  5.22107045 -0.26851010 -0.68815139
  H  3.46831577 -1.97100167 -0.05267077
  H  1.31921184 -2.26622940  0.61945998
  H -2.89636427  2.41989490  0.17934173
  H -1.23860349  2.29419935  0.77863905
  H -2.58499996  2.34163164  1.91606948
  H -3.69425790 -1.10014394  1.65722613
  H -4.40078127  0.52103044  1.63296423
  H -3.19801703  0.09489167  2.85923153
  H -2.63638456 -1.17402558 -0.50790281
  H -3.55906521  0.27583483 -0.89935160
  H -1.74982739  1.39279187 -1.85063349
  H -1.82701999 -0.23863990 -2.51609337
  H  0.29029289  0.96551593 -0.68604855
  H  0.37405724  0.59243912 -2.39128429
  H -0.07747274 -1.93129037 -1.34374284
  H  1.48291026 -1.24481959 -1.78349820
