22
opt_min/./Reactant_4252_1_opt.xyz
  C -1.34608200  0.82423200  1.35371300
  C -1.70282284  0.22323062  0.00242993
  O -2.83911843  0.38632344 -0.44681965
  C -0.76897828 -0.64396286 -0.63306857
  C -1.29927495 -1.66721993 -1.60027263
  N  0.53877755 -0.80774619 -0.30163281
  C  1.47348495  0.05930436  0.05243568
  C  2.80904801 -0.48788899  0.43977985
  C  1.25996794  1.52432457 -0.04707711
  H -2.21392810  0.69881548  1.99838785
  H -0.48587522  0.34052552  1.80841926
  H -1.16180454  1.89294384  1.26591474
  H -0.71745898 -1.68729310 -2.52221026
  H -2.32573492 -1.40202011 -1.83762398
  H -1.29747887 -2.67080079 -1.16570205
  H  0.88444397 -1.75635181 -0.45904241
  H  2.76642270 -0.98417005  1.41207159
  H  3.54219798  0.30991189  0.50554412
  H  3.15989259 -1.22361019 -0.28783766
  H  0.39744159  1.72180300 -0.68269228
  H  2.14528168  1.98900960 -0.48258194
  H  1.08902300  1.99672919  0.92093539
