23
opt_min/./Reactant_5621_1_opt.xyz
  C -5.08316338 -0.43344267  0.76784579
  N -4.03765044  0.49827161  0.43993148
  C -2.72713614  0.11625003  0.37236478
  O -2.36501926 -1.01693915  0.65783796
  C -1.82436328  1.17169072 -0.03795809
  N -0.56442699  0.92851461 -0.13116477
  C  0.55792148  0.58520574 -0.17767568
  C  1.87862614  0.18909471 -0.20842921
  C  2.89616930  1.07258835 -0.60378246
  C  4.20642955  0.64520216 -0.62037998
  C  4.53048973 -0.65237932 -0.24996770
  C  3.52740716 -1.52910868  0.13983892
  C  2.21070607 -1.12480921  0.16367670
  H -5.68362453 -0.69137786 -0.10986719
  H -5.73591608 -0.01561080  1.53562388
  H -4.60525471 -1.33515801  1.14518278
  H -4.30614257  1.41603946  0.13026243
  H -2.16365171  2.16584760 -0.27379394
  H  2.64064875  2.08189342 -0.89203909
  H  4.98465843  1.32945886 -0.92486537
  H  5.55903698 -0.97798779 -0.26540831
  H  3.77619578 -2.53959840  0.42758344
  H  1.42417071 -1.79968956  0.46520920
