20
opt_min/./Reactant_1529_0_opt.xyz
  C -2.98799800 -0.96097500  0.02399600
  C -1.52557503 -0.69489570 -0.03584791
  N -1.07042938  0.52498123  0.11970234
  C  0.16431673  1.06604914  0.13848983
  C  0.23017247  2.55945995  0.29119159
  C  1.39412839  0.34555154  0.10489745
  O  2.49678869  0.86472349  0.15663614
  O  1.25342508 -1.01723489 -0.00051522
  C  2.46774174 -1.74374818 -0.01710156
  H -3.31212046 -1.16519624  1.04878924
  H -3.23720952 -1.83238717 -0.57579401
  H -3.56173774 -0.10907657 -0.34120626
  H -0.82609210 -1.49955754 -0.15450006
  H -1.79761461  1.23353868  0.22151903
  H -0.05849682  2.87367803  1.29666699
  H  1.25430526  2.87702429  0.12270307
  H -0.41646565  3.06315563 -0.42835898
  H  3.18005044 -1.27739762 -0.70083349
  H  2.90962253 -1.77068495  0.98238516
  H  2.22079542 -2.75072562 -0.34681240
