40
opt_min/./Reactant_2445_0_opt.xyz
  C  1.96206900 -3.87778800 -1.44312500
  N  1.62627767 -2.47554240 -1.40809010
  C  2.42973376 -1.57242909 -0.79443826
  O  3.57029728 -1.85544398 -0.46757090
  C  1.89275433 -0.17339438 -0.78587185
  C  2.90460212  0.92070274 -0.98013860
  O  2.71539948  1.91138871 -1.67703449
  N  4.03194354  0.71361221 -0.28696943
  C  5.16022321  1.60455624 -0.38159699
  N  0.59350342  0.07712342 -0.69683672
  C  0.04228507  1.36395009 -1.09862121
  C -0.28152526 -0.76789073 -0.05793057
  C  0.21359209 -1.52221708  1.05090256
  C -0.79007483 -2.23864798  1.92909157
  O  1.41406016 -1.56701990  1.32830097
  C -1.70798027 -0.65814621 -0.39778531
  C -2.11425883 -0.96842138 -1.69871513
  C -3.44516053 -0.89993871 -2.06123048
  C -4.40088451 -0.52023001 -1.13288590
  C -4.01088904 -0.19826450  0.15562107
  C -2.67819793 -0.26096674  0.51976582
  H  3.03024477 -3.96602687 -1.25570120
  H  1.41988589 -4.43379113 -0.67377711
  H  1.72301030 -4.28917211 -2.42366811
  H  0.66106362 -2.23979732 -1.57887196
  H  4.16994873 -0.21343124  0.11015986
  H  4.89799015  2.41868164 -1.05622308
  H  5.39945917  2.01279494  0.60207230
  H  6.03133473  1.07477235 -0.76843389
  H -0.40211062  1.85861664 -0.23504063
  H  0.82670856  1.98613735 -1.52380047
  H -0.73639825  1.20473620 -1.84265444
  H -1.66096232 -2.55764156  1.36444937
  H -1.10887119 -1.58669837  2.73963789
  H -0.29450876 -3.09817770  2.37427301
  H -1.37710861 -1.26983443 -2.43206808
  H -3.73893900 -1.14823449 -3.07047449
  H -5.44147265 -0.47096469 -1.41506195
  H -4.74773836  0.11125055  0.88199465
  H -2.38414957  0.01851386  1.51960889
