12
opt_min/./Reactant_2333_1_opt.xyz
  C -2.49271875  0.85100947 -0.06448492
  O -1.10907621  0.73254894  0.24905895
  C -0.48061186 -0.31575163 -0.26248523
  O -0.94357104 -1.17344324 -0.95937560
  N  0.87977558 -0.21263648  0.08739835
  O  1.49261464 -1.36003143  0.17331548
  N  2.74287952 -1.43781795  0.33425182
  C  3.59167377 -0.44922378  0.38860407
  N  4.45771441  0.30635421  0.47276162
  H -2.67690029  0.53245898 -1.09333316
  H -3.08400670  0.23363458  0.61545369
  H -2.74569274  1.90084377  0.06989470
