10
opt_min/./Reactant_3362_1_opt.xyz
  C -1.80397201  0.03198519 -0.04578547
  C -0.61930408 -0.86784496 -0.33094517
  O -0.72005049 -2.02882383 -0.66667960
  C  0.61336756 -0.20250270 -0.17551526
  N  1.62924022  0.36986715 -0.04577741
  N  2.55023337  1.12667889  0.16830779
  H -2.61170176 -0.56354647  0.37493287
  H -2.15015855  0.45561452 -0.98935834
  H -1.54290307  0.84363001  0.62768020
  H  3.47990122  0.74741017  0.02433604
