24
opt_min/./Reactant_3012_1_opt.xyz
  C  4.19416000  0.28234000 -0.06442000
  O  2.78559869  0.12544767  0.00355886
  C  2.16491293  0.55995400  1.13137786
  O  2.72810489  1.06000645  2.06394077
  N  0.80148614  0.34993038  1.10835490
  N  0.26689639 -0.01819044  0.01313232
  C -0.99250211 -0.31120804 -0.24765819
  C -1.20380142 -0.65301708 -1.67511036
  C -2.57627014 -1.00966195 -2.13252482
  O -0.23859746 -0.62118777 -2.41934193
  C -2.05876364 -0.29927966  0.77653204
  O -3.21403977 -0.58362244  0.55989481
  O -1.58151067 -0.00138660  1.98045068
  C -2.51939006  0.00697613  3.04514100
  H  4.66938284 -0.68478357  0.10676124
  H  4.52708829  0.99462117  0.69215262
  H  4.43307076  0.64290300 -1.06384426
  H  0.85674321 -0.10539322 -0.84983088
  H -2.55579991 -1.23547591 -3.19550174
  H -2.94777457 -1.86361648 -1.57144349
  H -3.25858036 -0.18623143 -1.93485210
  H -2.92230958 -0.99567646  3.20504498
  H -1.97173344  0.34316669  3.92102342
  H -3.34621595  0.68401333  2.82078561
