26
opt_min/./Reactant_1954_1_opt.xyz
  C  3.48089500  1.94147000 -0.09015900
  C  3.14966596  0.48084042 -0.35829596
  O  4.03479538 -0.37264391 -0.29286746
  C  1.76905649  0.24422376 -0.58200998
  N  1.19910029 -0.94835587 -0.83721937
  C  2.09137178 -2.06346325 -1.09333216
  C -0.09929311 -1.17173779 -0.92293902
  C -1.18150018 -0.29760100 -0.54641881
  C -1.10897401  0.62277703  0.50672146
  C -2.19957649  1.40054394  0.83731632
  C -3.38750558  1.28519110  0.13088572
  C -3.48438815  0.35610313 -0.89244216
  C -2.40135017 -0.43317324 -1.21983322
  H  3.24704783  2.17686838  0.94848253
  H  4.54458058  2.10153656 -0.24409594
  H  2.90835590  2.60367950 -0.73509683
  H  1.09793668  1.08692419 -0.55961068
  H  1.52878567 -2.95657881 -1.35946734
  H  2.77929263 -1.80111467 -1.89570015
  H  2.70159001 -2.25764960 -0.20934545
  H -0.39066708 -2.11913474 -1.35185161
  H -0.20770715  0.69280441  1.09890041
  H -2.12634000  2.10085024  1.65669186
  H -4.23414309  1.90571770  0.38508938
  H -4.41178027  0.24421767 -1.43553337
  H -2.48293603 -1.15857196 -2.01827074
