24
opt_min/./Reactant_1996_0_opt.xyz
  C  3.16825312 -1.10926765  0.01499970
  C  2.55268247 -2.02741464 -1.01576755
  O  3.17238275 -2.90506261 -1.57362443
  C  1.13038997 -1.78023965 -1.28984539
  C  0.47435120 -2.56152796 -2.24942979
  N  0.00208569 -3.23825611 -3.05090332
  O  0.55424568 -0.81690563 -0.59138443
  C -0.67834343 -0.39772969 -0.64372851
  C -1.64963689 -0.90898978 -1.52659043
  N -2.51186915 -1.25745217 -2.20177396
  C -1.06534595  0.66826128  0.26427881
  C -2.34981606  1.22364089  0.20702083
  C -2.70707021  2.23613859  1.07314642
  C -1.79862965  2.71285076  2.00769768
  C -0.52475441  2.16775875  2.07271373
  C -0.15627396  1.15479032  1.21270791
  H  4.23686658 -1.29532843  0.05508031
  H  2.98656262 -0.06494449 -0.22692006
  H  2.74047946 -1.32446502  0.99302375
  H -3.05737400  0.85556413 -0.52068689
  H -3.69894735  2.65738516  1.01983006
  H -2.08204980  3.50487047  2.68350648
  H  0.18327500  2.53475308  2.79968744
  H  0.83550726  0.73129359  1.27188723
