26
opt_min/./Reactant_1868_1_opt.xyz
  C  1.09703100  2.61311600 -0.02057800
  O  1.37283676  1.23353308 -0.12378026
  C  0.34228524  0.37613148 -0.18402939
  C  0.42615931 -0.97566145 -0.19780940
  C  1.57929322 -1.85827080 -0.15787523
  C  2.93156778 -1.19740806 -0.28182260
  O  1.46136022 -3.06476630 -0.03585004
  C -0.99960377 -1.48513011 -0.14182886
  C -1.50692416 -1.17702855  1.28141314
  C -1.60036482  0.35983532  1.28532067
  C -1.12293727  0.73972514 -0.13454273
  C -1.71797977 -0.40849967 -0.95579597
  H  2.06787872  3.10193810  0.07073837
  H  0.58827621  2.98798302 -0.91476289
  H  0.49212179  2.83777042  0.86393983
  H  2.93752834 -0.47935752 -1.09838974
  H  3.69553899 -1.95703184 -0.43649240
  H  3.14660100 -0.65979903  0.64030710
  H -1.11653732 -2.51920547 -0.44939023
  H -2.47927869 -1.63618473  1.45588602
  H -0.80934117 -1.55377899  2.02993611
  H -0.98515832  0.81406077  2.06229229
  H -2.62964579  0.69477615  1.42518793
  H -1.37870959  1.75135698 -0.44065201
  H -1.40893447 -0.38972621 -1.99975392
  H -2.80317954 -0.46208987 -0.88938062
