18
opt_min/./Reactant_4403_1_opt.xyz
  C  3.31430700  1.05281300  0.18893300
  O  2.06246750  0.38247485  0.20131170
  C  2.08514226 -0.96416464  0.23056478
  O  3.09275826 -1.63456881  0.24038775
  C  0.74818325 -1.53297965  0.24036454
  O -0.28802793 -0.75928057  0.23260483
  C -1.52562689 -1.12384462  0.22187319
  C -2.58280884 -0.12897201  0.21565414
  C -2.12943894  1.30797938  0.20626763
  O -3.75243850 -0.46289422  0.21282268
  H  3.28442525  1.80216263 -0.60281976
  H  4.11945605  0.33846132  0.00654183
  H  3.46334878  1.54384636  1.15214814
  H  0.64184915 -2.61136352  0.26619238
  H -1.78738965 -2.17781832  0.21489387
  H -1.61967818  1.52113884 -0.73257540
  H -1.42537152  1.49417302  1.01366130
  H -2.99106282  1.96222513  0.30099387
