26
opt_min/./Reactant_4650_1_opt.xyz
  C -3.25310184 -2.53799910  2.42038501
  O -2.51879273 -1.50837393  1.76801782
  C -1.94242171 -0.58188875  2.53193273
  O -2.03088739 -0.49808765  3.72441061
  C -1.12387696  0.34311371  1.67716647
  O -0.64906747 -0.22569422  0.61736289
  C  0.15993463  0.06537695 -0.35151099
  C  0.83645222  1.25414843 -0.67828931
  N  1.41070074  2.15097196 -1.11178474
  C  0.39189472 -1.09394134 -1.27366945
  O -0.16236690 -2.15402433 -1.14880247
  O  1.28087267 -0.78800571 -2.21620315
  C  1.58836670 -1.80422251 -3.16516253
  C -0.98748519  1.75763708  2.08080191
  O -1.53206593  2.25501400  3.02870699
  O -0.21493437  2.41991686  1.20623035
  C  0.00366284  3.80906844  1.42285010
  H -4.19615148 -2.65338892  1.88901494
  H -2.67823227 -3.46315260  2.36487834
  H -3.43076544 -2.26904692  3.46290975
  H  2.61344627 -1.63009375 -3.48311802
  H  1.48135583 -2.79012768 -2.70984403
  H  0.91237309 -1.72172671 -4.01776868
  H  1.05801499  3.99740690  1.22979601
  H -0.60709459  4.37511179  0.71868620
  H -0.26500472  4.06939911  2.44748296
