36
opt_min/./Reactant_2659_1_opt.xyz
  C -2.92901962  0.38598381 -1.94013095
  O -2.60369128 -0.50182587 -0.89096861
  C -1.79084300  0.05351941  0.11532698
  O -2.44258418  1.07888488  0.81526577
  C -3.68117366  0.74042559  1.40010002
  C -0.53911960  0.62133048 -0.45641966
  C  0.65659185  0.46799625 -0.62206119
  C  2.05157472 -0.02491636 -0.49990685
  C  2.79136542  0.24023570 -1.81829688
  C  2.68491418  0.69878266  0.70579694
  C  4.19115204  0.70412471  0.80649586
  O  2.00678975  1.19360546  1.56877269
  C  2.18869434 -1.59065157 -0.17711786
  C  1.31547547 -2.27272636  0.93271555
  C  0.02553005 -1.49254683  0.72927022
  C -1.42972415 -1.22296369  1.06774762
  H -2.02441429  0.70233420 -2.47104485
  H -3.58075485 -0.16685108 -2.61380628
  H -3.44750115  1.27405945 -1.56603890
  H -3.54786693  0.18396483  2.33351316
  H -4.29554917  0.14624876  0.71806801
  H -4.17810013  1.68548422  1.61316519
  H  3.73931713 -0.29036360 -1.86995618
  H  2.96869561  1.30541278 -1.94539323
  H  2.17568459 -0.10454540 -2.64732190
  H  4.69638469  0.36792199 -0.09028852
  H  4.47133409  0.06352256  1.64221224
  H  4.51623030  1.71218275  1.05465586
  H  1.97697571 -2.10049929 -1.11835282
  H  3.24621487 -1.74433503  0.05334722
  H  1.25661586 -3.34358336  0.72782673
  H  1.75249594 -2.12891722  1.92068497
  H -0.06411419 -1.57095181 -0.35805983
  H  0.41902901 -0.53188976  1.05194638
  H -2.12164963 -2.00843050  0.76694532
  H -1.59346796 -0.94163577  2.10548104
