13
opt_min/./Reactant_703_0_opt.xyz
  C  2.17386077  0.13308509 -0.39055764
  N  0.81947819  0.24158138  0.09423787
  C -0.22798477 -0.18479675 -0.63520720
  O -0.14724169 -0.67177730 -1.74062546
  C -1.55076541 -0.02613352  0.06271748
  C -1.60205491  0.50722956  1.35359440
  N -1.55828118  0.94984948  2.41271243
  N -2.61087997 -0.40738811 -0.52966146
  N -3.51203315 -0.71843898 -1.12074429
  H  2.15185355 -0.38063912 -1.35049654
  H  2.78004158 -0.43748728  0.31721558
  H  2.61307688  1.12348895 -0.52299824
  H  0.67827049  0.59637499  1.02828902
