16
opt_min/./Reactant_640_1_opt.xyz
  C -3.25981751  2.25864518 -0.08001669
  O -1.97500329  1.65968525 -0.00420097
  C -1.87639187  0.38367504 -0.39288591
  O -2.78509267 -0.30513736 -0.77151895
  C -0.50233101 -0.05768624 -0.30999687
  C  0.62623112 -0.48005848 -0.29349462
  C  1.98113585 -0.99623868 -0.33253400
  O  2.58526719 -1.20530214 -1.34944845
  O  2.42066345 -1.21975259  0.90495768
  C  3.73329546 -1.74889402  1.04744346
  H -3.13218865  3.23985318 -0.53413905
  H -3.66334697  2.36270866  0.92719720
  H -3.93108237  1.64227599 -0.68157740
  H  4.36674795 -0.98719466  1.50233413
  H  4.13268166 -2.03441094  0.07398483
  H  3.66995684 -2.61493398  1.70503979
