37
opt_min/./Reactant_2680_0_opt.xyz
  C  4.88147909  0.31213937  0.72085730
  O  3.82295942 -0.31793922  0.00985580
  C  2.66821109  0.33884588 -0.02641292
  O  2.46176403  1.39709133  0.49880108
  C  1.62577862 -0.43401645 -0.85348580
  C  2.05498106 -0.38313028 -2.23365314
  N  2.37813067 -0.33213177 -3.32820198
  C  0.31312069  0.15476087 -0.67252427
  C -0.82177225  0.30713001 -0.31444347
  C -2.06447995  0.08206841  0.37786227
  C -2.54272587  1.29038331  1.20712083
  C -2.05420492  2.62179542  0.71620584
  O -3.23782165  1.14469420  2.17392801
  C -3.23008125 -0.22385071 -0.58310392
  C -3.21455613  0.51921185 -1.89187801
  O -4.10239792 -0.98982184 -0.27845734
  C -1.79839139 -1.12748225  1.31663575
  C -0.89915468 -2.21631579  0.70573498
  C  0.62564504 -2.03334364  0.91115281
  C  1.47041654 -1.90743264 -0.37126699
  H  4.59789059  0.46283504  1.76413336
  H  5.11200314  1.28034867  0.27305508
  H  5.73456570 -0.35665650  0.64703494
  H -2.29577747  2.75931909 -0.33469568
  H -0.96959337  2.65645763  0.81591623
  H -2.49885714  3.41876520  1.30666028
  H -2.27713147  1.03816631 -2.06870691
  H -4.04264414  1.22740762 -1.90031108
  H -3.39364311 -0.19106927 -2.69725432
  H -1.35444608 -0.75931758  2.24312089
  H -2.77257585 -1.55362886  1.56236678
  H -1.12241504 -2.30297521 -0.35873398
  H -1.18948281 -3.16203605  1.16557487
  H  1.00122414 -2.90184223  1.45496347
  H  0.80696316 -1.16109683  1.54184012
  H  1.00380038 -2.48135039 -1.17520942
  H  2.46921947 -2.31446140 -0.20501314
