23
opt_min/./Reactant_1661_0_opt.xyz
  C -0.01436300  2.40780900  1.44144900
  N -0.91510443  1.52277327  1.12992284
  C -0.88372056  0.41798765  0.36399710
  C -2.15370372 -0.24542895  0.33046894
  C -2.26424829 -1.57747526 -0.36712736
  O -3.11462236  0.25868380  0.92506333
  C  0.35993550 -0.01615916 -0.28605054
  C  0.43818596 -0.12570910 -1.67354481
  C  1.61340580 -0.53045581 -2.27977879
  C  2.72755579 -0.82313398 -1.51119248
  C  2.66291012 -0.70818572 -0.13310860
  C  1.48849119 -0.30681530  0.47657928
  H -0.27569840  3.23336305  2.07299897
  H  0.98277725  2.32368502  1.04818331
  H -1.88107726  1.62328093  1.49431112
  H -1.53370110 -1.67800072 -1.16239773
  H -2.08536531 -2.36121912  0.36879266
  H -3.27065126 -1.70458266 -0.75782708
  H -0.42383708  0.12442366 -2.27452338
  H  1.65969171 -0.60972803 -3.35621136
  H  3.64421374 -1.13756058 -1.98870797
  H  3.53124994 -0.93674702  0.46797031
  H  1.43821017 -0.23174010  1.55392506
