30
opt_min/./Reactant_3103_1_opt.xyz
  C  2.75099852  2.03837314  2.44339859
  N  1.71374194  1.15485122  1.97334407
  C  1.44813385  0.99934121  0.65691020
  O  2.08620580  1.56503675 -0.21505774
  C  0.30102728  0.08927304  0.36899573
  C -0.50263629 -0.23080094  1.46982993
  N -1.05208103 -0.51485877  2.44273213
  N -0.03371964 -0.31984529 -0.86236997
  C  0.98089154 -0.28939202 -1.90025186
  C -1.25376495 -0.78021204 -1.19589846
  C -1.43147555 -1.77364038 -2.27983075
  C -2.69887485 -1.68824528 -3.08104302
  O -0.58065351 -2.61303552 -2.50664560
  C -2.44186852 -0.43269767 -0.39093457
  O -3.43055502 -1.11692447 -0.28978817
  O -2.35485720  0.81590100  0.11052296
  C -3.44742668  1.26180517  0.90234255
  H  3.25560366  2.45042089  1.57171644
  H  3.46622600  1.49214999  3.05919336
  H  2.32501147  2.85450610  3.03041551
  H  1.15045878  0.67861549  2.65977278
  H  0.80933300  0.55793171 -2.56336686
  H  1.96979216 -0.19212981 -1.46557956
  H  0.93439504 -1.20926105 -2.47892799
  H -3.55159172 -1.45150654 -2.45429266
  H -2.57996620 -0.89464088 -3.81868699
  H -2.86519750 -2.62767754 -3.59825154
  H -3.42076945  2.34781175  0.87353038
  H -3.32180942  0.90250676  1.92551844
  H -4.38686600  0.88300084  0.49624875
