40
opt_min/./Reactant_2384_0_opt.xyz
  C  0.56583000  2.50682700 -2.99926000
  N  0.56061857  1.31752660 -2.18072445
  C  1.44373146  1.17219106 -1.15854065
  O  2.37269669  1.93153301 -0.98649107
  C  1.27331536 -0.10849733 -0.39907186
  O  0.12880659 -0.62364239 -0.04191429
  C -1.09910867 -0.10499496  0.04045582
  C -1.26273342  1.33159454  0.16138646
  O -0.33794215  2.09957227  0.35532478
  O -2.54152408  1.75950320  0.05795897
  C -2.72693064  3.15256702  0.24896414
  C -2.12975821 -1.11106260  0.21970049
  C -3.38270182 -0.84020969  0.77914466
  C -4.31536322 -1.84648551  0.93271091
  C -4.02770581 -3.14502399  0.54407602
  C -2.78812807 -3.43019853 -0.00585162
  C -1.85324186 -2.42971788 -0.17154325
  C  2.42230996 -0.94370547 -0.12244644
  C  2.27818295 -2.07759809  0.69480899
  C  3.35638402 -2.89301894  0.96347303
  C  4.60554021 -2.59875596  0.43790226
  C  4.76464576 -1.47758855 -0.36190215
  C  3.69103510 -0.65894878 -0.64746283
  H  0.10453166  2.29039102 -3.95988494
  H  1.59964254  2.81891078 -3.14236440
  H  0.02881868  3.32276750 -2.50762200
  H -0.21369430  0.68277903 -2.28717213
  H -2.48148961  3.43405172  1.27536169
  H -2.08452048  3.72008684 -0.42805567
  H -3.77541286  3.34884603  0.03917780
  H -3.62093899  0.15828809  1.10311278
  H -5.27664713 -1.61582216  1.36826850
  H -4.76135569 -3.92723759  0.66826226
  H -2.55166142 -4.43806909 -0.31458471
  H -0.89588434 -2.66330218 -0.61422873
  H  1.31418915 -2.30481382  1.12417677
  H  3.22615845 -3.76007180  1.59461679
  H  5.44957791 -3.23607499  0.65547800
  H  5.73605438 -1.24143434 -0.77017192
  H  3.82809073  0.21179632 -1.26609296
