39
opt_min/./Reactant_2484_0_opt.xyz
  C -3.70484953  2.91221614  0.78456839
  N -2.65377092  1.93668127  0.62267394
  C -2.84661011  0.78115219 -0.05005215
  O -3.90489448  0.45742792 -0.53028566
  C -1.57818177 -0.08670592 -0.16362244
  C -1.91820894 -1.52065698  0.28590607
  O -2.67558483 -2.23055967 -0.32765288
  N -1.28846315 -1.90096474  1.41653363
  C -1.49006024 -3.21935564  1.97389637
  C -0.40518947  0.46853987  0.46611124
  C  0.69558161  0.95874370  0.45583338
  C  1.99905709  1.30910112 -0.06235627
  F  2.33814584  2.62414891  0.25113838
  C  3.09878301  0.35831542  0.44205466
  C  4.49684022  0.90198200  0.41715092
  O  2.82466947 -0.76442365  0.77807156
  C  1.84755534  1.23189397 -1.60564200
  C  1.48646937 -0.12677320 -2.22810620
  C  0.21737344 -0.88990378 -1.80512058
  C -1.11580759 -0.11396613 -1.64983974
  H -4.65629744  2.40833833  0.62116609
  H -3.60515105  3.72143850  0.05648813
  H -3.67727044  3.32862156  1.79062646
  H -1.73814503  2.15362161  0.98672618
  H -0.64201926 -1.27467710  1.87031636
  H -1.06490058 -3.25893082  2.97273455
  H -1.01568096 -3.97782312  1.34657322
  H -2.55815411 -3.43539333  2.01626935
  H  5.03377595  0.55870600  1.29838464
  H  4.51964346  1.98519079  0.35920877
  H  5.00095338  0.48493513 -0.45522192
  H  1.10811408  1.98820215 -1.88013255
  H  2.80255643  1.54460035 -2.03958417
  H  2.32089272 -0.81033708 -2.04815972
  H  1.44675390  0.04214929 -3.30754536
  H  0.01956358 -1.66185574 -2.54993665
  H  0.42961704 -1.39977631 -0.86564061
  H -1.90251307 -0.59042691 -2.23515390
  H -1.00103009  0.91664720 -1.98921830
