30
opt_min/./Reactant_3139_1_opt.xyz
  C -2.82639961 -0.93701252  1.86256837
  C -1.33592619 -1.03930139  1.98908919
  O -0.78031625 -1.70160513  2.82261749
  C -0.53353779 -0.13710061  1.03141417
  C -0.46384856  1.20662221  1.78800161
  C  0.55034518  1.25694554  2.88779163
  O -1.22723159  2.09862883  1.53115785
  C  0.77956719 -0.65429286  0.74061136
  C  1.76715469 -1.03892569  0.17540848
  C  2.67192496 -1.23849084 -0.91425241
 Cl  4.36968518 -0.84322082 -0.49814679
 Br  2.60158218 -3.14841471 -1.49395309
  C  2.16034381 -0.34906377 -2.06006730
  C  0.62799074 -0.40968749 -2.23104071
  C -0.18633184  0.62667343 -1.41681282
  C -1.16817206  0.05129031 -0.37421009
  H -3.29654617 -1.57254371  2.60863083
  H -3.16354929 -1.22883401  0.87196348
  H -3.12169270  0.09966246  2.02325968
  H  0.11655635  0.77496498  3.76493731
  H  0.77761592  2.28967184  3.14031972
  H  1.45444813  0.71544542  2.62376993
  H  2.64977597 -0.65345487 -2.98644770
  H  2.46604943  0.67757076 -1.84584489
  H  0.29385960 -1.41931267 -1.98723612
  H  0.41440888 -0.25571653 -3.28927769
  H  0.48874056  1.32106179 -0.91462293
  H -0.77322891  1.21848732 -2.12057637
  H -2.00941305  0.73770559 -0.26789413
  H -1.54067856 -0.91032936 -0.72990844
