36
opt_min/./Reactant_2319_0_opt.xyz
  C -3.57708500  0.76459700 -0.43352400
  C -2.09125977  1.03148194 -0.39318199
  O -1.66534347  2.12077589 -0.71027012
  C -1.18682919 -0.06164435  0.04305325
  C -1.66529553 -1.38307995  0.56481801
  C -2.64687909 -2.19879088 -0.24550111
  O -1.23406350 -1.80295963  1.61445965
  C  0.15673869  0.15197028  0.05860223
  C  0.79615846  1.46350624 -0.14961378
  C  0.70523104  2.44165197  0.83829314
  C  1.39055898  3.63181912  0.69868834
  C  2.16689539  3.86318650 -0.42587587
  C  2.26593568  2.89153342 -1.40588356
  C  1.59764239  1.68904238 -1.26202988
  C  1.12143684 -0.93574114  0.26339420
  C  1.01873586 -2.13410423 -0.43975295
  C  1.95854914 -3.13162226 -0.26660876
  C  3.01170555 -2.95154383  0.61464100
  C  3.12879718 -1.75958123  1.31076328
  C  2.20023365 -0.75361679  1.12782395
  H -3.81007502 -0.01170617 -1.15518957
  H -4.07866263  1.68136813 -0.73737379
  H -3.93462162  0.46978010  0.55056525
  H -2.57587880 -3.23520471  0.07931167
  H -2.44163273 -2.12773812 -1.31074366
  H -3.66365105 -1.86668922 -0.05726891
  H  0.09498839  2.25544165  1.70987531
  H  1.31608992  4.38590266  1.46843510
  H  2.69284836  4.80007200 -0.53468785
  H  2.87116934  3.06645221 -2.28327211
  H  1.67622936  0.92746488 -2.02479099
  H  0.20954421 -2.27268431 -1.14200578
  H  1.86800438 -4.05445634 -0.82047756
  H  3.74012278 -3.73601461  0.75510528
  H  3.94941602 -1.61361629  1.99735378
  H  2.28842792  0.17404009  1.67411014
