25
opt_min/./Reactant_4423_1_opt.xyz
  C  2.26187012  0.12295513  3.45269792
  N  2.02110087 -0.43729699  2.14686249
  C  0.98700182 -0.03248641  1.37011958
  O  0.20062286  0.82979666  1.73086703
  C  0.90892243 -0.73673334  0.06857712
  C  1.88977248 -1.68869848 -0.20565795
  N  2.71511292 -2.47454553 -0.38848910
  N -0.05485721 -0.52356886 -0.85523968
  C  0.02656560 -1.35878535 -2.04406124
  C -0.98714020  0.40266024 -0.75546484
  C -2.08472040  0.63225247 -1.67468330
  O -2.36385609  0.02295208 -2.68978520
  O -2.80806152  1.67883883 -1.23101081
  C -3.93607197  2.05003085 -2.00561078
  H  3.22203610  0.64262859  3.47861417
  H  1.46209987  0.83303547  3.65889155
  H  2.25885885 -0.66080982  4.21217808
  H  2.64605993 -1.15542401  1.81492289
  H -0.90224067 -1.28993900 -2.60633819
  H  0.85510816 -1.01739689 -2.66688195
  H  0.20873464 -2.39650141 -1.76594572
  H -0.97918129  1.02078458  0.12992767
  H -4.80495659  1.46069297 -1.70378852
  H -4.11467260  3.10527991 -1.81039522
  H -3.74128705  1.87890984 -3.06671805
