23
opt_min/./Reactant_4491_0_opt.xyz
  C  2.93750700  1.52728600  0.58611000
  N  1.73230872  0.74260041  0.45913491
  C  1.78852324 -0.53366331 -0.01709895
  O  2.82293105 -1.02983660 -0.42836947
  C  0.52440486 -1.29386553  0.00207936
  C  0.64221876 -2.78550273 -0.01322436
  N -0.68085655 -0.77361020 -0.03677284
  C -1.19511560  0.45494145 -0.17402486
  C -2.62085449  0.49174330 -0.16271923
  C -3.27133213  1.83583721 -0.38637667
  O -3.26786882 -0.53996786  0.02828491
  H  2.69060238  2.58546113  0.52022012
  H  3.44971591  1.33378664  1.53368048
  H  3.60477148  1.24949451 -0.22768430
  H  0.94735942  1.02308998  1.02265185
  H -0.16084156 -3.24534033  0.56074396
  H  0.59225138 -3.16303130 -1.03610714
  H  1.60392379 -3.08200272  0.39522038
  H -1.47225433 -1.43777899  0.03381942
  H -0.58057176  1.30718473 -0.39145772
  H -4.34346757  1.70921109 -0.50631709
  H -2.85501245  2.31507279 -1.26896813
  H -3.08553202  2.47705341  0.47337553
