25
opt_min/./Reactant_3854_1_opt.xyz
  C -3.63366300  0.31828100  1.93745300
  N -2.65558311  0.01041142  0.92654681
  C -1.35611302  0.31837116  1.07879822
  O -0.91879208  0.89209853  2.06752705
  C -0.46377677 -0.10531485 -0.04363652
  N  0.86142910  0.11168346  0.05708689
  C  1.56783853  0.83715069  0.89262012
  C  3.01658723  0.89350723  0.81865853
  C  3.70128698 -0.02719031 -0.17688809
  O  3.65735916  1.65051336  1.52214270
  C -0.92413537 -0.87111891 -1.18180749
  C  0.07933824 -1.19137701 -2.28276370
  O -2.07790954 -1.26419857 -1.32172682
  H -3.15769659  0.92807453  2.70491908
  H -4.46419897  0.86926091  1.49196968
  H -4.01736886 -0.59741982  2.39509037
  H -2.94184879 -0.53236013  0.11681042
  H  1.41063035 -0.33636767 -0.67993217
  H  1.07363909  1.40682910  1.66357161
  H  3.40537878 -1.06330557 -0.01989230
  H  4.77761753  0.05508989 -0.04449241
  H  3.46117893  0.27566963 -1.19815627
  H -0.47756337 -1.58069156 -3.13328611
  H  0.75877381 -1.97872295 -1.94766991
  H  0.64282712 -0.31869777 -2.60982924
