28
opt_min/./Reactant_2240_0_opt.xyz
  C  4.99911699 -1.38066603  2.23116130
  N  3.74255272 -1.00894189  1.65217212
  C  2.71240115 -1.86947198  1.46586163
  O  2.72088579 -3.03594353  1.78696567
  C  1.57614869 -1.16739567  0.82440880
  N  0.37384463 -1.56842943  0.56660434
  C -0.27486626 -0.49612324  0.01281863
  C  0.61565979  0.55117722 -0.05996014
  C  0.59111581  1.93352273 -0.59546403
  O  1.78681888  0.12163733  0.45812599
  C -1.67193534 -0.55356286 -0.38363475
  C -2.25966768 -1.77267864 -0.71132127
  C -3.57704342 -1.81435379 -1.12773051
  C -4.32090366 -0.64852064 -1.21599387
  C -3.74899816  0.56267847 -0.86411419
  C -2.43296596  0.61206267 -0.44741096
  H  5.81139556 -1.26674529  1.50918711
  H  4.93133533 -2.42639493  2.52902757
  H  5.21556856 -0.76914233  3.10949179
  H  3.64410764 -0.05850432  1.33378276
  H -0.06739684  1.99624407 -1.45691084
  H  0.25238346  2.63817362  0.16462118
  H  1.60226899  2.21112563 -0.88815331
  H -1.66875171 -2.67196137 -0.63609460
  H -4.02844043 -2.75996162 -1.38944234
  H -5.34699964 -0.68237705 -1.55077874
  H -4.32863572  1.47294961 -0.91291181
  H -1.99943836  1.55295690 -0.14787474
