29
opt_min/./Reactant_855_1_opt.xyz
  C -4.22657200 -0.04297000  2.18912700
  O -3.22000585 -0.17951622  1.20253703
  C -3.62462352 -0.07298794 -0.09276016
  O -4.78323330  0.10935187 -0.41387182
  C -2.52500416 -0.20571043 -1.02286587
  C -2.83843264 -0.11966292 -2.48620300
  O -1.35618558 -0.36834989 -0.45174262
  C -0.12684316 -0.49956763 -0.83562369
  C  0.29071729 -0.52797196 -2.27527895
  C  0.83388883 -0.59289501  0.24238731
  C  0.39196861 -0.69080552  1.57442854
  C  1.28702684 -0.77274914  2.61690210
  C  2.65456261 -0.75806229  2.37577621
  C  3.10649715 -0.65449475  1.07136430
  C  2.21544803 -0.57279920  0.01877634
  H -5.19704398 -0.32143524  1.77307085
  H -3.95866591 -0.70087118  3.01419947
  H -4.26768855  0.99281044  2.53443050
  H -3.87801587  0.19284681 -2.55984155
  H -2.74700158 -1.08451675 -2.98676971
  H -2.21417706  0.61095507 -2.99750323
  H -0.48145066 -0.97728742 -2.88991532
  H  1.19928636 -1.10946276 -2.40279938
  H  0.48458444  0.48291670 -2.64073259
  H -0.66869489 -0.70079476  1.77395830
  H  0.91993280 -0.85085872  3.62980416
  H  3.35614506 -0.82286766  3.19331601
  H  4.16783475 -0.63283302  0.86895585
  H  2.61200145 -0.47735762 -0.98011744
