14
opt_min/./Reactant_181_1_opt.xyz
  C -3.05742844  0.69840475  0.04862716
  N -2.26116787 -0.12540200 -0.24785663
  C -1.33557312 -1.01996713 -0.24968035
  C -1.71240088 -2.37221796 -0.25765082
  N -2.06251510 -3.46465705 -0.28155731
  C  0.10610497 -0.65528651 -0.32195099
  O  0.95637117 -1.45926006 -0.63774233
  N  0.37281608  0.63872764 -0.01113525
  C  1.71302971  1.16731645 -0.04590993
  H -3.74541830  1.36050362 -0.40910399
  H -0.37111511  1.25131552  0.28157781
  H  1.98015397  1.60916018  0.91584670
  H  1.81377158  1.92523475 -0.82622310
  H  2.38437001  0.33642955 -0.25508601
