22
opt_min/./Reactant_4841_0_opt.xyz
  C  0.03064840 -2.76794186 -2.87068440
  N  0.11393719 -1.61926176 -1.99759587
  C -0.39696436 -1.66373511 -0.72979134
  O -1.00021500 -2.61173315 -0.28955917
  C -0.21489992 -0.37252975  0.00538482
  N -0.56738378  0.73142962 -0.65871771
  C -0.56092685  2.01992094 -0.35127989
  C -1.01027821  2.95161927 -1.27534000
  N -1.37090518  3.70789398 -2.06642601
  C  0.23711833 -0.43719486  1.38881431
  O  0.57469666 -1.44642886  1.95411515
  O  0.28349644  0.78414371  1.98969929
  C  0.70691002  0.77923031  3.34523938
  H -0.58518158 -2.54172620 -3.74459926
  H  1.02086474 -3.08005009 -3.20259096
  H -0.43445249 -3.57918047 -2.31151043
  H  0.80413450 -0.92073540 -2.22577574
  H -0.94095993  0.52046789 -1.58863042
  H -0.20567387  2.33970722  0.61318120
  H  0.94151216  1.81023520  3.59808462
  H  1.58076215  0.13618437  3.46318531
  H -0.09425289  0.40467762  3.98708121
