32
opt_min/./Reactant_5751_1_opt.xyz
  C  5.68673393 -1.64852216  0.37453869
  O  4.42526561 -1.01020688  0.28763960
  C  3.35917453 -1.85616481  0.33516200
  O  3.44558038 -3.06315448  0.45505297
  C  2.15020761 -1.17566248  0.24793699
  N  1.07728427 -0.69214187  0.10043377
  C -0.09403178 -0.19919337 -0.07417547
  C -1.23168925 -1.12021375 -0.04946448
  C -1.18035384 -2.27491652  0.73477083
  C -2.24176264 -3.15934702  0.74821842
  C -3.36556601 -2.91264524 -0.02309977
  C -3.41657583 -1.78024231 -0.82007162
  C -2.36007381 -0.89119819 -0.83989522
  C -0.22499681  1.24150409 -0.26896648
  C  0.85316522  1.98506768 -0.76127174
  C  0.74263689  3.34976379 -0.93483423
  C -0.43771372  4.00219833 -0.61622781
  C -1.50488120  3.27817630 -0.10910190
  C -1.40290337  1.91247759  0.06851591
  H  5.72163620 -2.30910352  1.24313746
  H  6.42115187 -0.85312928  0.46948334
  H  5.87935879 -2.23824821 -0.52469733
  H -0.30635746 -2.46966212  1.33952541
  H -2.19198167 -4.04413739  1.36524456
  H -4.19407277 -3.60476601 -0.00947943
  H -4.28228113 -1.59269180 -1.43821295
  H -2.39068754 -0.02540148 -1.48477262
  H  1.77361899  1.47995284 -1.01689581
  H  1.58059908  3.90915691 -1.32371951
  H -0.52215376  5.06946635 -0.75502002
  H -2.42156386  3.78336160  0.15791393
  H -2.22827411  1.36107733  0.49340899
