22
opt_min/./Reactant_5049_1_opt.xyz
  C  4.83210705  0.24582228 -0.65385028
  O  3.46018370 -0.12173208 -0.72588055
  C  2.58242177  0.73532550 -0.21288129
  O  2.82560953  1.80374211  0.30413370
  C  1.23486004  0.30145342 -0.32896806
  N  0.06805054  0.26674316 -0.17874618
  C -1.18280850 -0.04891619 -0.20007067
  C -2.15479683  0.86759541  0.40202269
  C -1.57037791  2.13328585  0.98495235
  O -3.34229470  0.63069425  0.45762885
  C -1.48731885 -1.35781227 -0.83832432
  C -2.92672842 -1.76583037 -0.87017892
  O -0.59150690 -2.03205565 -1.29920435
  H  5.29748625 -0.07741601 -1.58295432
  H  4.92879517  1.32602733 -0.52829922
  H  5.29665044 -0.26369974  0.19242900
  H -2.33366939  2.90811596  0.97910160
  H -1.30033106  1.93972569  2.02301028
  H -0.68634387  2.47344527  0.45420411
  H -3.00954326 -2.73046052 -1.36479565
  H -3.32154210 -1.82627309  0.14155360
  H -3.51762885 -1.01990023 -1.39696999
