44
opt_min/./Reactant_2736_0_opt.xyz
  C  2.32728000  0.31336100  2.69944800
  C  1.48449491  0.35717555  1.46237581
  C  2.06733347 -0.01092219  0.18778199
  C  2.97119352 -1.07296686  0.07931796
  C  3.54511087 -1.40006556 -1.13318951
  C  3.24692711 -0.67080233 -2.27034426
  C  2.36378729  0.39594509 -2.17947022
  C  1.77559134  0.71501655 -0.97724159
  N  0.20772769  0.75865654  1.55003350
  C -0.22426204  1.42620051  2.76675988
  C -0.73696708  0.45019361  0.61224474
  C -0.58901872 -0.75047502 -0.19576445
  C -0.12511262 -1.94989917  0.35859926
  C -0.02928463 -3.09386567 -0.40186914
  C -0.37979877 -3.07617739 -1.74379676
  C -0.84281695 -1.90024653 -2.30826107
  C -0.94911047 -0.75348076 -1.54694212
  C -1.82432618  1.36271170  0.34934686
  C -1.66321646  2.75374720  0.46126407
  C -2.70804492  3.61402432  0.19586646
  C -3.94245107  3.12121452 -0.19604166
  C -4.11693897  1.75107540 -0.32568237
  C -3.08001357  0.88407601 -0.05666815
  H  2.50202501  1.31697127  3.09455459
  H  1.86067459 -0.27521386  3.49064996
  H  3.29757440 -0.11774986  2.47585922
  H  3.20064689 -1.67390440  0.94706485
  H  4.22622192 -2.23694472 -1.19169987
  H  3.69399040 -0.92953355 -3.21821451
  H  2.13094873  0.97900186 -3.05865262
  H  1.09214550  1.55015321 -0.92515738
  H -1.26322789  1.72637480  2.66653112
  H -0.14667531  0.74065043  3.61298568
  H  0.39149387  2.30185461  2.97220991
  H  0.14651633 -1.98153435  1.40522794
  H  0.31990233 -4.01037804  0.05217057
  H -0.29311808 -3.97190951 -2.34061461
  H -1.11448415 -1.87395755 -3.35386843
  H -1.30230925  0.16146828 -1.99970617
  H -0.69675912  3.15832018  0.72919894
  H -2.55719124  4.68085569  0.28474309
  H -4.75769594  3.79773157 -0.40511048
  H -5.07566420  1.35824464 -0.63331906
  H -3.22798800 -0.18197580 -0.14577444
