31
opt_min/./Reactant_5629_1_opt.xyz
  C -0.87469200 -2.84570200 -1.96471400
  O -0.43808625 -1.72907618 -1.20864380
  C -1.42697657 -1.08856824 -0.50673833
  O -2.56476737 -1.48166993 -0.51232506
  C -0.92556530  0.10830124  0.15201610
  C -1.90861806  1.09838407  0.55820550
  O -3.03138179  1.19987361  0.13326570
  O -1.44055900  1.91951030  1.55074278
  C -2.38106016  2.86295636  2.03620611
  N  0.42522012  0.28500247  0.31703164
  C  0.97147506  1.60242828  0.04035608
  C  1.21831838 -0.68423047  0.73281960
  C  0.68362801 -1.88049508  1.43339436
  C  2.68175214 -0.70642187  0.49853597
  C  3.12626730 -0.36986137 -0.91069660
  O  3.46110068 -1.07645236  1.34780267
  H -0.03135273 -3.14296192 -2.58350542
  H -1.17046286 -3.66433907 -1.30451135
  H -1.73053850 -2.57320128 -2.58485661
  H -1.86037398  3.44844099  2.78994499
  H -2.73369200  3.50271601  1.22431819
  H -3.24020236  2.35148322  2.47397638
  H  0.85055868  1.84163620 -1.01657054
  H  2.02040420  1.64310461  0.31963135
  H  0.42678763  2.33809414  0.62786833
  H  0.60828493 -2.73736940  0.76337185
  H  1.38368850 -2.14696486  2.22657627
  H -0.30332346 -1.67367590  1.84528437
  H  3.80424205 -1.15516940 -1.23834529
  H  2.28478908 -0.30287209 -1.59247835
  H  3.69104988  0.56051275 -0.92556976
