20
opt_min/./Reactant_387_1_opt.xyz
 Cl -2.49877871  0.45670903  1.64083625
  C -1.87676542  0.52129207 -0.04988403
 Br -3.33913242  1.18665377 -1.22184140
  C -0.70823652  1.32464582 -0.10973381
  C  0.46273234  1.57322383 -0.20916821
  C  1.87507783  1.34241326 -0.15862925
  C  1.98433276 -0.01061944  0.56534534
  C  1.23330663 -1.21109673 -0.04724434
  C -0.25995670 -1.54044291  0.20262411
  C -1.44697221 -0.87123346 -0.52192738
  H  2.41294833  2.12131589  0.38805146
  H  2.27759914  1.28455738 -1.17428111
  H  1.68107550  0.10444591  1.60700752
  H  3.04416092 -0.28751463  0.56161785
  H  1.43322502 -1.25619248 -1.12291448
  H  1.73353164 -2.07561505  0.40777662
  H -0.45031706 -1.54432245  1.28003715
  H -0.33221265 -2.58000350 -0.14089148
  H -2.30427999 -1.53989433 -0.38848664
  H -1.23424567 -0.82359810 -1.59207792
