30
opt_min/./Reactant_3140_1_opt.xyz
  C -2.82639961 -0.93701252  1.86256837
  C -1.33592619 -1.03930140  1.98908915
  O -0.78031624 -1.70160518  2.82261744
  C -0.53353778 -0.13710060  1.03141416
  C -0.46384849  1.20662220  1.78800161
  C  0.55034518  1.25694548  2.88779170
  O -1.22723145  2.09862888  1.53115781
  C  0.77956731 -0.65429289  0.74061136
  C  1.76715480 -1.03892578  0.17540850
  C  2.67192505 -1.23849091 -0.91425244
 Cl  4.36968530 -0.84322094 -0.49814689
 Br  2.60158223 -3.14841478 -1.49395312
  C  2.16034385 -0.34906374 -2.06006737
  C  0.62799077 -0.40968744 -2.23104076
  C -0.18633180  0.62667348 -1.41681284
  C -1.16817203  0.05129035 -0.37421012
  H -3.29654617 -1.57254384  2.60863073
  H -3.16354930 -1.22883383  0.87196343
  H -3.12169270  0.09966242  2.02325987
  H  0.11655624  0.77496503  3.76493739
  H  0.77761602  2.28967177  3.14031975
  H  1.45444809  0.71544525  2.62377010
  H  2.64977600 -0.65345484 -2.98644779
  H  2.46604950  0.67757076 -1.84584493
  H  0.29385961 -1.41931262 -1.98723617
  H  0.41440887 -0.25571649 -3.28927773
  H  0.48874060  1.32106183 -0.91462293
  H -0.77322889  1.21848741 -2.12057635
  H -2.00941302  0.73770563 -0.26789416
  H -1.54067855 -0.91032932 -0.72990849
