21
opt_min/./Reactant_2785_1_opt.xyz
  N  2.94837591  0.85058121 -1.86495703
  C  2.47505694  0.56515117 -0.86577123
  C  1.87861152  0.15840572  0.39224522
  C  0.75874769  1.00633117  0.69808425
  C -0.39140898  1.32849151  0.82064045
  C -1.79891028  1.24960014  0.67470158
 Br -2.61588562  0.58456821  2.35037506
 Br -2.64479321  2.99806656  0.24927664
  C -2.03469538  0.26106969 -0.47162632
  C -1.39909795 -1.13758910 -0.33868630
  C  0.07566630 -1.45673177 -0.68577367
  C  1.25708315 -1.25701941  0.28593686
  H  2.65516079  0.18582690  1.16732622
  H -3.11578993  0.10505948 -0.55685432
  H -1.70070183  0.72337776 -1.40375258
  H -1.64032024 -1.56081806  0.64233078
  H -1.95144982 -1.72118198 -1.08624436
  H  0.32355767 -1.02444527 -1.66106453
  H  0.05121755 -2.54690214 -0.81165399
  H  0.96547729 -1.59546180  1.28174397
  H  2.05329842 -1.92166787 -0.06631864
