31
opt_min/./Reactant_5379_1_opt.xyz
  C  4.60973300  1.66072300 -0.76099600
  N  3.79723759  0.50110816 -0.49812596
  C  2.45035897  0.62996961 -0.24966462
  O  1.95619603  1.75963900 -0.19328755
  C  1.73254709 -0.60945298 -0.07328481
  C  2.50282321 -1.89390178  0.08389462
  N  0.37013677 -0.65652779 -0.05380141
  C -0.24423227 -1.95924219 -0.26665661
  C -0.41608643  0.40655675  0.03451880
  C -1.84982662  0.46797809  0.06182031
  C -2.44792512  1.61789751 -0.48568295
  C -3.81474494  1.78698954 -0.48088538
  C -4.63704338  0.82621425  0.09082536
  C -4.06671413 -0.29039696  0.67797093
  C -2.69740222 -0.47170358  0.66887265
  H  4.07661735  2.52657299 -0.37225705
  H  5.57333531  1.56175557 -0.25913796
  H  4.77774376  1.80796217 -1.83335738
  H  4.17256142 -0.38201893 -0.79128251
  H  3.42857023 -1.69824796  0.62137777
  H  1.94992266 -2.61733760  0.67874001
  H  2.75680681 -2.36490438 -0.87185710
  H -1.23844754 -1.81764607 -0.68642046
  H  0.34750007 -2.53746327 -0.97193219
  H -0.33112131 -2.51657261  0.66690602
  H  0.10236611  1.35468911  0.01764730
  H -1.81156772  2.37054905 -0.92696733
  H -4.24771284  2.67340890 -0.92138272
  H -5.70883565  0.95684343  0.09406415
  H -4.69575208 -1.02691979  1.15771105
  H -2.28606776 -1.32199741  1.19062720
