36
opt_min/./Reactant_3003_1_opt.xyz
  C -2.92901962  0.38598381 -1.94013095
  O -2.60369129 -0.50182587 -0.89096862
  C -1.79084299  0.05351939  0.11532697
  O -2.44258415  1.07888486  0.81526579
  C -3.68117364  0.74042557  1.40010003
  C -0.53911960  0.62133047 -0.45641966
  C  0.65659186  0.46799625 -0.62206119
  C  2.05157473 -0.02491637 -0.49990685
  C  2.79136542  0.24023571 -1.81829688
  C  2.68491419  0.69878268  0.70579694
  C  4.19115205  0.70412467  0.80649589
  O  2.00678973  1.19360550  1.56877268
  C  2.18869436 -1.59065156 -0.17711787
  C  1.31547551 -2.27272637  0.93271554
  C  0.02553006 -1.49254685  0.72927022
  C -1.42972414 -1.22296372  1.06774760
  H -2.02441431  0.70233417 -2.47104487
  H -3.58075488 -0.16685107 -2.61380627
  H -3.44750111  1.27405946 -1.56603890
  H -3.54786690  0.18396484  2.33351319
  H -4.29554914  0.14624872  0.71806803
  H -4.17810010  1.68548422  1.61316519
  H  3.73931717 -0.29036355 -1.86995615
  H  2.96869556  1.30541280 -1.94539325
  H  2.17568462 -0.10454544 -2.64732189
  H  4.69638471  0.36792190 -0.09028845
  H  4.47133405  0.06352256  1.64221232
  H  4.51623033  1.71218270  1.05465587
  H  1.97697573 -2.10049927 -1.11835283
  H  3.24621489 -1.74433501  0.05334720
  H  1.25661590 -3.34358337  0.72782672
  H  1.75249598 -2.12891723  1.92068496
  H -0.06411417 -1.57095183 -0.35805984
  H  0.41902901 -0.53188976  1.05194638
  H -2.12164960 -2.00843054  0.76694528
  H -1.59346797 -0.94163585  2.10548103
