39
opt_min/./Reactant_1227_1_opt.xyz
  C -2.40804635  2.44722153  0.28290742
  C -2.03844541  1.03904653  0.75723613
  C -2.79268420  0.69976049  2.05142936
  C -0.60366283  0.87792321  0.92124742
  C  0.48924765  0.40015440  0.77052279
  C  1.44782770 -0.63916915  0.42210487
  C  2.12144385 -1.19584821  1.67785177
  C  2.43784262 -0.15854052 -0.62210935
  C  2.00789620  0.75227120 -1.58340854
  C  2.86089381  1.19815613 -2.57488631
  C  4.16550542  0.73701846 -2.62664046
  C  4.60288399 -0.17029217 -1.67941466
  C  3.74709086 -0.61499283 -0.68545421
  C  0.52078058 -1.71341415 -0.23907587
  C -0.78312595 -1.99292663  0.53489119
  C -2.10237617 -1.48084708 -0.07693861
  C -2.34456543  0.01426986 -0.36946519
  H -2.01505705  3.19078690  0.97305870
  H -1.99152682  2.64201476 -0.70337574
  H -3.48968134  2.55495740  0.22969186
  H -3.00139780  1.60439448  2.61813339
  H -3.73809956  0.21301722  1.82403945
  H -2.20696562  0.03302904  2.67969349
  H  2.64228721 -2.12519103  1.46077652
  H  2.82948947 -0.47405822  2.07993088
  H  1.37276606 -1.40002126  2.44031908
  H  0.99280832  1.12034951 -1.54087889
  H  2.50739620  1.90809658 -3.30864949
  H  4.83594531  1.08397209 -3.39910490
  H  5.61926201 -0.53693207 -1.71146110
  H  4.11689227 -1.32406792  0.03842718
  H  1.09998406 -2.63587823 -0.33235407
  H  0.27493835 -1.37759675 -1.24840900
  H -0.69081312 -1.61564335  1.55169901
  H -0.90919001 -3.07712987  0.60668609
  H -2.89843851 -1.82995532  0.58658566
  H -2.24223589 -1.99936285 -1.03080622
  H -3.39816496  0.11297225 -0.64547256
  H -1.75052135  0.29904412 -1.24100630
