34
opt_min/./Reactant_4762_1_opt.xyz
  C  0.90301700  1.04368800  4.29250200
  O  0.44564156  0.60379245  3.02375756
  C  1.35411835  0.39872130  2.07012479
  O  2.54732076  0.51369906  2.21442627
  C  0.69704570  0.01083349  0.78720866
  O -0.56646678  0.28249773  0.76280305
  C -1.49847430 -0.07325941 -0.13070358
  C -1.36549167 -1.29989099 -0.89364426
  C -2.40250895 -1.63623659 -1.92838268
  O -0.43770461 -2.06393237 -0.65804974
  C -2.68517594  0.78066464  0.01171671
  O -2.68820119  1.78414832  0.68792399
  O -3.76502769  0.35511479 -0.67167014
  C -4.92576321  1.16716783 -0.55755070
  C  1.53491541 -0.49747937 -0.28438674
  C  1.34291254 -0.05594294 -1.59972544
  C  2.19220076 -0.46437344 -2.60572291
  C  3.23421825 -1.33564512 -2.32716971
  C  3.43266784 -1.77955430 -1.02968856
  C  2.60032976 -1.35986365 -0.01105887
  H  1.99395359  1.01605784  4.33293231
  H  0.47797207  0.38546396  5.04962645
  H  0.55473784  2.06471297  4.45654345
  H -2.55695487 -0.80536199 -2.61136077
  H -2.05999107 -2.50976213 -2.47881516
  H -3.35574148 -1.86128214 -1.45853111
  H -5.03419398  1.53469899  0.46440289
  H -4.85488061  2.01898870 -1.23691250
  H -5.76986373  0.53740865 -0.82930307
  H  0.53775413  0.63172219 -1.81603049
  H  2.03410631 -0.10728595 -3.61256013
  H  3.88470219 -1.66679093 -3.12280101
  H  4.24209498 -2.45997134 -0.81217542
  H  2.76032776 -1.72034134  0.99154927
