28
opt_min/./Reactant_1612_0_opt.xyz
  C  4.71335202 -2.18909794  1.20705310
  O  3.36941673 -1.77122169  1.00895912
  C  3.21003217 -0.50929644  0.55295210
  O  4.10453489  0.27892479  0.34081827
  C  1.85189039 -0.19970933  0.38110585
  N  0.73524673  0.09231569  0.13641158
  C -0.46444525  0.44284697 -0.12611927
  C -0.73593438  1.80036692 -0.59902154
  O -1.83498048  2.22726246 -0.85845356
  O  0.40132392  2.51601721 -0.72267188
  C  0.25869395  3.84899749 -1.18563360
  C -1.58862439 -0.49741938  0.06828319
  C -1.65931412 -1.67272961 -0.67065536
  C -2.72971249 -2.53205888 -0.49834267
  C -3.73187673 -2.22331187  0.40576274
  C -3.66412576 -1.05176686  1.14114011
  C -2.59495540 -0.18998999  0.97688090
  H  4.69807676 -2.91132729  2.02025211
  H  5.08841100 -2.65993234  0.29592846
  H  5.33919174 -1.33139226  1.45966837
  H  1.22027998  4.13377768 -1.60611392
  H -0.52968226  3.90386207 -1.93865938
  H  0.00727250  4.50962489 -0.35283987
  H -0.88037217 -1.91176808 -1.38004579
  H -2.78471712 -3.44292859 -1.07591250
  H -4.56805831 -2.89452919  0.53528801
  H -4.44434536 -0.80674670  1.84616351
  H -2.53838357  0.72880376  1.53984549
