24
opt_min/./Reactant_5068_0_opt.xyz
  C  3.05513782  2.66481507  2.42881914
  N  2.40099370  1.71958973  1.55936155
  C  1.05098878  1.69489164  1.42795750
  O  0.28065214  2.44478218  1.99187408
  C  0.57203799  0.69160502  0.53138271
  N  0.05846478 -0.11781768 -0.14559250
  C -0.52680760 -0.98780059 -0.89363897
  C  0.25058293 -1.97910420 -1.64389181
  C  1.74343036 -1.93322970 -1.38882285
  O -0.24664534 -2.75853801 -2.41831160
  C -1.99930605 -0.94034365 -0.98471517
  O -2.68981419 -1.69712567 -1.60728378
  O -2.48210907  0.07190413 -0.23103628
  C -3.89418636  0.21068485 -0.21633932
  H  3.55077598  2.15338311  3.25732702
  H  2.28907179  3.33088432  2.82579684
  H  3.79234847  3.24852176  1.87466395
  H  2.97172870  1.05559006  1.06119763
  H  2.20061859 -2.82094409 -1.82178604
  H  2.16088779 -1.05449123 -1.88147426
  H  1.96549370 -1.88557405 -0.32556795
  H -4.36602953 -0.73990250  0.04203234
  H -4.11284218  0.96763016  0.53269131
  H -4.24965798  0.52566739 -1.20034490
