22
opt_min/./Reactant_2924_1_opt.xyz
  C  3.51988302 -0.55389185  1.21659302
  C  2.13402904 -0.18405838  1.65392540
  C  1.84230470 -0.01283994  2.99580001
  N  1.61046287  0.09107277  4.12286144
  N  1.18684978 -0.03106196  0.71606728
  C -0.09267225  0.29319185  0.85022145
  C -0.99854218  0.40480330 -0.24238994
  C -2.31286145  0.83505529  0.00983295
  C -3.22462263  0.97183009 -1.01324961
  C -2.86080186  0.68523552 -2.32042836
  C -1.57283689  0.24771035 -2.58998758
  C -0.65252340  0.10572343 -1.57269110
  H  4.18550354 -0.56595997  2.07452315
  H  3.90411176  0.16743990  0.49279949
  H  3.54351979 -1.54312432  0.75640049
  H  1.51107754 -0.17002504 -0.23770641
  H -0.43945258  0.47801557  1.85463436
  H -2.59890147  1.05980978  1.02606092
  H -4.22806206  1.30543421 -0.79379798
  H -3.57421039  0.79614104 -3.12375787
  H -1.28623037  0.01320337 -3.60504651
  H  0.33647053 -0.25833594 -1.81834771
