23
opt_min/./Reactant_1072_0_opt.xyz
  C  3.20310399  1.32266201 -1.90568301
  O  2.36659019  1.00294406 -0.80293885
  C  1.24083616  0.34437737 -1.10360774
  O  0.91127694  0.02417858 -2.23233150
  C  0.42316379  0.01714407  0.05781591
  C  0.84992894  0.33252309  1.44435587
  N -0.64638603 -0.70156716 -0.25870437
  C -1.63068151 -1.23743736  0.47489445
  C -2.37726163 -2.26579572 -0.11308679
  N -2.97966404 -3.12150231 -0.58905399
  C -2.08455215 -0.77398441  1.80257094
  C -2.16627830  0.73067138  1.97167178
  O -2.49219905 -1.53652071  2.64918312
  H  4.00258576  1.94398560 -1.51064764
  H  3.61159088  0.41273644 -2.34892293
  H  2.63835659  1.86162727 -2.66857939
  H  0.43005762 -0.39350072  2.13856755
  H  1.93646662  0.29694703  1.49392957
  H  0.54534900  1.33195745  1.75271029
  H -0.64479800 -0.93476419 -1.26285199
  H -1.83570619  1.27093291  1.09014389
  H -3.20814099  0.97440217  2.17079724
  H -1.59399505  1.04663652  2.84060244
