30
opt_min/./Reactant_3094_1_opt.xyz
  C  4.70339900 -0.27856000 -0.37219700
  N  3.37568394 -0.69388451  0.00736662
  C  2.29024651  0.07562869 -0.21856361
  O  2.34503885  1.16813396 -0.77318519
  C  0.98346765 -0.45985100  0.21620220
  C  0.80708194 -1.67693489  1.05118240
  N -0.00511705  0.32773664 -0.14259704
  C -1.34167414  0.28404283 -0.02221112
  C -2.06376326  1.53454816 -0.24817435
  O -3.25784637  1.68424886 -0.26892563
  O -1.18394926  2.56857972 -0.39878413
  C -1.74824985  3.84978790 -0.62851497
  C -2.13603792 -0.93233138  0.13697752
  O -3.19229121 -1.01926105  0.70585454
  O -1.53486278 -2.00078121 -0.46651747
  C -2.26764544 -3.21525429 -0.44381132
  H  4.60821125  0.65638489 -0.92150526
  H  5.17184261 -1.03064295 -1.00721646
  H  5.32548965 -0.11209115  0.50954548
  H  3.26998012 -1.60334724  0.42260041
  H  1.64942271 -1.80195703  1.72896482
  H  0.69816825 -2.57434537  0.44343934
  H -0.09994760 -1.57129275  1.64425947
  H  0.35952495  1.20913625 -0.55228967
  H -1.84999870  4.38181460  0.31917664
  H -2.73061000  3.74699944 -1.09197153
  H -1.06421912  4.38208003 -1.28633053
  H -1.54461198 -4.02912460 -0.45987488
  H -2.88220357 -3.26577954  0.45671281
  H -2.91379142 -3.27495769 -1.32127384
