32
opt_min/./Reactant_2328_1_opt.xyz
  N -3.28994960 -0.62432731  1.05289237
  C  14.15100932  20.13621454 -0.00484793
  C -16.27477931  34.36030654  32.48862597
  C -20.72954898  33.04539140  25.12488203
  N -33.75246678  48.15067644 -7.70307526
  C -58.78215921 -0.45401651  23.82257806
  C  18.51894070 -4.44887234 -18.21595957
  C -3.72805970 -5.42467218  0.80851481
 Cl -31.94572241  67.96479313 -7.21107990
  C -1.88301106 -9.56902848  8.25849415
  C  11.94821128 -0.62408770 -9.31977757
  C  35.49530478 -2.59668380  3.88211297
  C  31.25787516 -28.34884196  42.28627337
  C  1.42008757 -4.61805351  17.27814900
  C -0.81470370  3.43111701  37.46404075
  C  38.65237246 -25.88186262  50.07059662
  C -12.95169780 -5.94133697 -4.45997323
  C -24.58438602 -3.55309556  18.95207492
  C -21.71072603  3.83461608  15.32880033
  H  0.48473163 -8.23957657 -39.48194658
  H -28.93581162  19.74745090 -48.54125093
  H -71.64718120 -69.89989996 -26.94364953
  H -11.50042264  38.73542447  9.67630870
  H -8.28156348  39.38105820 -6.03684913
  H  13.46578776 -10.31460179  11.91877458
  H  15.72480875 -59.10413498  8.82887229
  H -28.14377595 -73.58346381  15.12412744
  H -21.34405550 -13.32064987 -17.95375279
  H  10.96558561 -16.66143167  41.18223700
  H  12.88294788 -0.36458304  4.86554966
  H -13.65918028  0.99052745  32.36980502
  H -58.14033770  21.36109445  29.81022240
