13
opt_min/./Reactant_934_0_opt.xyz
  C  3.09388173 -1.68927566  0.75104783
  N  2.11417098 -0.94465274  0.45704166
  C  1.25793309 -0.20169974  0.11089292
  C  0.12656816  0.63524371  0.17058851
  O  0.16924258  1.68973359  0.78625739
  N -0.95305618  0.22329253 -0.55977466
  C -2.16372006  0.99964099 -0.61503477
  H  3.14343210 -2.68300145  0.34803219
  H  3.86716235 -1.32443262  1.39910544
  H -0.93428871 -0.68465478 -0.99738992
  H -2.43782802  1.21402256 -1.64999985
  H -1.96604563  1.93553089 -0.09330000
  H -2.99177254  0.48245206 -0.12285475
