31
opt_min/./Reactant_5226_0_opt.xyz
  C  4.25530300  1.52012000  0.14136100
  N  3.05553294  0.73235204  0.30621508
  C  3.04602169 -0.60705600 -0.03655044
  O  4.04376369 -1.14649950 -0.49951101
  C  1.78823244 -1.30604042  0.16270563
  C  1.82157182 -2.79904591  0.06283259
  N  0.66833046 -0.56816026  0.23149851
  C -0.61477420 -0.81675594  0.51670955
  C -0.99783250 -2.11970769  1.14536921
  C -1.57541369  0.21970614  0.25126964
  C -2.84260044  0.24584561  0.85517881
  C -3.73838924  1.26551147  0.61677159
  C -3.41864581  2.30836190 -0.23900867
  C -2.18594268  2.29265782 -0.87302919
  C -1.28973019  1.27061765 -0.64534177
  H  4.65105245  1.84716069  1.10489167
  H  4.98996413  0.89114399 -0.35724894
  H  4.04941219  2.39638885 -0.47898714
  H  2.40207802  1.07768262  0.98896694
  H  1.80955178 -3.28430799  1.03989867
  H  0.99598159 -3.17768248 -0.53459802
  H  2.76030159 -3.06107887 -0.41993317
  H  0.82676696  0.40403498 -0.03207909
  H -1.82096610 -1.98427200  1.84282874
  H -1.32500341 -2.84873996  0.40337491
  H -0.16205654 -2.52662088  1.70160452
  H -3.13443853 -0.53720199  1.53849501
  H -4.70151085  1.24845938  1.10661869
  H -4.11939205  3.10818492 -0.42042076
  H -1.92601077  3.07991250 -1.56662206
  H -0.37018538  1.27536791 -1.21644509
