22
opt_min/./Reactant_1241_0_opt.xyz
  C -0.94892300 -2.59533100 -0.88949000
  N  0.39090689 -2.04688370 -0.94939302
  C  0.20584320 -0.70138561 -0.44974707
  C  1.23422448  0.21744832 -0.05034530
  O  0.96510882  1.35610073  0.34077902
  N  2.50724660 -0.25032578 -0.15205143
  C  3.64023123  0.50165301  0.31996388
  C -1.13096950 -0.44435792 -0.35562972
  O -1.88379457 -1.52499189 -0.71581330
  N -1.70741712  0.71810303 -0.02050691
  C -3.08136061  0.82070884  0.40155387
  H -1.02809982 -3.25081284 -0.00507222
  H -1.23171411 -3.16560061 -1.77859210
  H  0.74711203 -2.02429158 -1.90479701
  H  2.62339315 -1.23415682 -0.33513150
  H  3.28788459  1.51042725  0.53085430
  H  4.41786701  0.53985090 -0.44518556
  H  4.05885448  0.07017868  1.23331251
  H -1.02000552  1.38618868  0.32924655
  H -3.18450887  0.72243920  1.48741224
  H -3.65592828  0.03184569 -0.07944034
  H -3.47633163  1.78998545  0.09813441
