36
opt_min/./Reactant_2018_0_opt.xyz
  C -1.52530441 -4.67442654  0.75401378
  N -1.18883881 -3.27810525  0.85887025
  C -0.53882026 -2.61413118 -0.13726017
  O -0.20902181 -3.17430217 -1.17790845
  C -0.32016218 -1.19255680  0.13513126
  C -1.12056147 -0.48984195  1.18646849
  O -0.57092062  0.11245804  2.09175024
  N -2.46141161 -0.67296979  1.10933071
  C -3.36789454  0.00687443  2.00336895
  N  0.61919891 -0.46278947 -0.48983017
  C  1.73949297 -1.13231961 -1.12227666
  C  0.51139049  0.87369200 -0.58341521
  C -0.75456993  1.45893566 -0.46797506
  N -1.79257680  1.95776486 -0.45070376
  C  1.63242733  1.77462948 -0.82113354
  C  1.44078209  2.92431128 -1.59358239
  C  2.47891603  3.81170289 -1.79462685
  C  3.71924939  3.57819056 -1.22120094
  C  3.91138477  2.45488114 -0.43416860
  C  2.87950130  1.55921437 -0.23035662
  H -2.59935385 -4.82280604  0.88308878
  H -1.22982480 -5.00453762 -0.24084018
  H -0.99134236 -5.26334429  1.50321290
  H -1.37265318 -2.80370385  1.72746712
  H -2.83728758 -1.04404493  0.25083400
  H -2.76578621  0.58552859  2.70191356
  H -3.97350581 -0.71409948  2.55715236
  H -4.02066380  0.67873463  1.44693210
  H  1.34343211 -1.96134788 -1.71133464
  H  2.27748715 -0.44034367 -1.76600935
  H  2.41029505 -1.54265997 -0.36708405
  H  0.47371238  3.10730646 -2.03848800
  H  2.32081982  4.69065613 -2.40143221
  H  4.52872047  4.27562498 -1.37583883
  H  4.86836518  2.28081093  0.03567555
  H  3.02874920  0.71029435  0.41986233
