30
opt_min/./Reactant_2041_1_opt.xyz
  C  2.55433600 -2.70929800  0.83689200
  N  1.77339211 -1.50533824  0.71855523
  C  2.24738399 -0.39263258  0.10558169
  O  3.34668347 -0.33944676 -0.41346486
  C  1.32484193  0.75166714  0.10232740
  C -0.00408117  0.89383938  0.20494758
  C -1.09964422 -0.05697740  0.27239587
  C -1.09638788 -1.19439132 -0.53792368
  C -2.14850325 -2.08865363 -0.49042891
  C -3.21396286 -1.86762401  0.36799219
  C -3.22630289 -0.74183536  1.17450475
  C -2.18207035  0.16263646  1.12426314
  C -0.22153003  2.42126090  0.11109328
  C  0.08122162  2.75606682 -1.35000808
  C  1.39126933  2.61038191 -1.46248327
  C  1.85474934  2.18778197 -0.06862143
  O  0.94487097  2.90148027  0.75497078
  H  1.99371285 -3.56482426  0.45645477
  H  3.45851853 -2.57125133  0.24631882
  H  2.83174881 -2.89893948  1.87680325
  H  0.87174797 -1.47746310  1.16600148
  H -0.27128315 -1.35475771 -1.21625612
  H -2.14034230 -2.96103952 -1.12713350
  H -4.03454622 -2.56862398  0.40570996
  H -4.05477091 -0.56568430  1.84509279
  H -2.18756814  1.03373880  1.76236891
  H -1.13075404  2.82528823  0.54038866
  H -0.66533206  3.01162829 -2.07405198
  H  2.04472766  2.71610498 -2.30300987
  H  2.89180901  2.35163020  0.19529939
