21
opt_min/./Reactant_4000_1_opt.xyz
  C -4.80468592 -0.67718247 -0.09274730
  O -3.40815645 -0.42494515 -0.05862381
  C -2.95397120  0.53964745 -0.89818100
  O -3.64329467  1.17858246 -1.66362601
  C -1.57178954  0.71313317 -0.76187364
  N -0.40303615  0.87460951 -0.72230944
  C  0.85183309  1.10421061 -0.65267372
  C  1.50847749  2.13750625 -1.51149713
  C  1.65291204  0.33701048  0.30151932
  O  2.83921809  0.50344180  0.47013124
  O  0.89955256 -0.53937967  0.99482272
  C  1.57015650 -1.31660305  1.97816687
  H -5.15291660 -0.74793401  0.93675785
  H -5.31815081  0.13332267 -0.61538271
  H -4.98543235 -1.61998206 -0.61304614
  H  0.99309885  3.09390989 -1.44715847
  H  1.51659999  1.81697955 -2.55384839
  H  2.53471701  2.25170046 -1.17092181
  H  1.52641726 -0.80120594  2.93983459
  H  2.61102783 -1.46676053  1.68723943
  H  1.04136460 -2.26524648  2.04044901
