24
opt_min/./Reactant_3059_1_opt.xyz
  C -2.35602383  0.61441891  2.65761071
  C -1.85772854 -0.14031695  1.46669938
  C -2.55210941 -1.28910969  1.08797324
  N -3.16072493 -2.23725137  0.85050617
  N -0.76766425  0.21720129  0.78713812
  C -0.03972302  1.39765787  1.25289431
  N -0.48034734 -0.38627503 -0.31481989
  C  0.75918749 -0.37809926 -0.88521235
  C  1.96258370 -0.43562278 -0.16707758
  C  3.16695157 -0.53327529 -0.83342236
  C  3.20619008 -0.56718709 -2.21774806
  C  2.02071880 -0.53596544 -2.93680764
  C  0.80976553 -0.45148768 -2.28518447
  H -1.67110954  0.52593000  3.50462084
  H -3.31539397  0.20135327  2.95980650
  H -2.49169724  1.67488940  2.44400183
  H -0.71542934  2.25307432  1.27110413
  H  0.77725556  1.61347324  0.56827396
  H  0.35333328  1.23115307  2.25507921
  H  1.94117582 -0.46303392  0.91488443
  H  4.08401526 -0.58687312 -0.26425808
  H  4.15333616 -0.63454973 -2.73106062
  H  2.04147158 -0.58138538 -4.01614574
  H -0.12142877 -0.43136043 -2.82867904
