22
opt_min/./Reactant_2237_0_opt.xyz
  C -3.52596790 -0.14185794 -1.27489335
  N -2.17252701 -0.48467827 -0.90077698
  C -1.86675307 -0.86002785  0.35683697
  O -2.67536905 -0.97932348  1.25078154
  C -0.41391727 -1.17290753  0.60141357
  C -0.17270655 -2.24055811  1.49066375
  N  0.01329702 -3.11098703  2.21479520
  O  0.64318262 -0.54695775  0.18652019
  C  0.84179139  0.53430605 -0.51992740
  C -0.12950907  1.40637958 -1.03589883
  N -0.87965123  2.16266516 -1.46846863
  C  2.26185627  0.89686332 -0.75807213
  O  2.60732914  1.87478278 -1.36894110
  O  3.07697087 -0.01200490 -0.21551045
  C  4.47684067  0.19795220 -0.34845468
  H -3.50052208  0.60649852 -2.06252317
  H -4.07190401 -1.02382097 -1.61636731
  H -4.02914697  0.26100005 -0.39737889
  H -1.49050655 -0.50046910 -1.64206425
  H  4.91610697  0.14896746  0.64690445
  H  4.66780705  1.17076368 -0.80514342
  H  4.88716715 -0.59533535 -0.97419521
