22
opt_min/./Reactant_2043_0_opt.xyz
  C  0.10522200  2.75446200 -0.46763300
  N  0.63818782  1.60686283 -0.15493991
  C  0.12421117  0.35152543 -0.14646581
  C  1.02983092 -0.73993127  0.15076558
  O  0.67809247 -1.83399643  0.58662538
  N  2.36847051 -0.47241098 -0.05801004
  C  3.36415672 -1.49151484  0.19733327
  C -1.30996843  0.15404871 -0.41236217
  O -2.03744345  1.06792441 -0.79454557
  N -1.76522440 -1.09916252 -0.21037372
  C -3.13909536 -1.46423886 -0.42705255
  H  0.67861867  3.65020808 -0.31167814
  H -0.91345221  2.78721890 -0.80668538
  H  1.59013353  1.64040589  0.21023434
  H  2.62551406  0.19960378 -0.76342958
  H  4.14789874 -1.09238032  0.84420727
  H  2.86625123 -2.31736393  0.70109368
  H  3.81345735 -1.85265941 -0.72855321
  H -1.10416404 -1.78426739  0.13623377
  H -3.22679783 -2.17554819 -1.25298587
  H -3.69017470 -0.55886182 -0.67466518
  H -3.55983853 -1.91551807  0.47297441
