33
opt_min/./Reactant_2274_0_opt.xyz
  C -2.93215800  3.00358800 -1.63503800
  N -2.36057470  1.77441084 -1.14275726
  C -1.12374073  1.74972413 -0.61503686
  O -0.43257298  2.76028274 -0.52580195
  C -0.59747646  0.41057915 -0.24414554
  C -1.41687169 -0.78827321 -0.30867457
  O -2.54257387 -0.82767572 -0.80405121
  N -0.93486742 -1.88288326  0.35130981
  C -1.70972852 -3.09549865  0.46667482
  N  0.69097129  0.39035568  0.23086613
  C  0.99933701  1.37748929  1.25312427
  C  1.60255582 -0.44941498 -0.26599374
  C  1.23483316 -1.21374523 -1.49712231
  C  2.97955100 -0.68848610  0.17912468
  C  3.65727703  0.10432330  1.27438823
  O  3.62304369 -1.56552706 -0.38183838
  H -2.13608888  3.62995391 -2.03996116
  H -3.66035857  2.77907950 -2.41023985
  H -3.42167808  3.55704526 -0.82806477
  H -2.88766642  0.91351275 -1.23635264
  H -0.06245103 -1.84063089  0.84955925
  H -1.37095313 -3.84648350 -0.25219110
  H -2.74818908 -2.84794383  0.25109938
  H -1.62376733 -3.50006692  1.47408427
  H  1.50493752  0.89741455  2.08604890
  H  1.60596956  2.18469413  0.84636828
  H  0.06796077  1.80725092  1.61176530
  H  0.54967234 -0.61704067 -2.10350283
  H  0.73386648 -2.15962173 -1.29136876
  H  2.14249433 -1.44329038 -2.05087542
  H  3.25145598 -0.15103777  2.25202373
  H  4.70852800 -0.17648161  1.26192876
  H  3.57693542  1.17425233  1.11414891
