34
opt_min/./Reactant_5938_1_opt.xyz
  C -4.16075300 -2.32683000 -1.33755400
  N -3.45783621 -1.32498720 -0.57943896
  C -2.11912342 -1.19203157 -0.65024843
  O -1.39478179 -1.91236006 -1.33603134
  C -1.57218554 -0.06657152  0.11083229
  O -0.23394697  0.15701512  0.05096699
  C  0.65515280 -0.80081842  0.05968382
  C  0.36147663 -2.13475411  0.64096453
  C  1.97292521 -0.42537617 -0.39265996
  C  3.04298350 -1.33272168 -0.38558077
  C  4.28882409 -0.95154575 -0.83899289
  C  4.50642842  0.33520413 -1.30947417
  C  3.45607757  1.23976360 -1.33606271
  C  2.20512167  0.86628739 -0.89260712
  C -2.37201242  1.01767712  0.64365396
  O -3.60265598  0.99288791  0.70881365
  N -1.66488585  2.07222038  1.13279934
  C -2.31135256  3.20563570  1.74513005
  H -4.96118664 -2.75203495 -0.73380722
  H -3.44787728 -3.10043989 -1.62163466
  H -4.59365825 -1.90746396 -2.25212539
  H -3.98458943 -0.59454133 -0.10675882
  H  1.20904426 -2.47859131  1.23017152
  H  0.12194497 -2.87588147 -0.12307568
  H -0.52227261 -2.04594332  1.27757152
  H  2.90082186 -2.34300985 -0.03866970
  H  5.10415748 -1.65976020 -0.83140345
  H  5.48409503  0.62640808 -1.66243853
  H  3.60889835  2.24048116 -1.71254303
  H  1.38873247  1.57097358 -0.93729189
  H -0.66226218  2.07789049  1.05561576
  H -2.32026112  3.11195593  2.83489924
  H -1.79658671  4.12297925  1.46466976
  H -3.34111318  3.23577012  1.39079482
