16
opt_min/./Reactant_1113_1_opt.xyz
  C  2.77470100  0.76890800 -0.43614700
  C  1.89431183 -0.42449631 -0.18935558
  O  2.33098094 -1.54480417 -0.12950227
  C  0.43203734 -0.12435233 -0.03368359
 Cl  0.11161189  1.49599267  0.44079964
  C -0.55351883 -1.03087879 -0.23798982
 Cl -0.14522571 -2.62125454 -0.73410752
  C -2.06015415 -0.89336992 -0.12984644
  C -2.64364401  0.42511651  0.28104793
  O -2.74769175 -1.85015261 -0.37512074
  H  3.75280625  0.41473838 -0.75591114
  H  2.89136435  1.31723566  0.49928151
  H  2.34971348  1.43860686 -1.17890355
  H -2.35852749  1.19937935 -0.42733416
  H -3.72681436  0.32146828  0.29898092
  H -2.28281968  0.70558483  1.26735954
