22
opt_min/./Reactant_2093_1_opt.xyz
  N  3.94839765  0.99913431 -0.01051157
  C  2.93167487  0.68311100  0.40146204
  C  1.62898698  0.27765031  0.89635264
  C  1.69532289  0.10183507  2.33688009
  N  1.72973170 -0.03593938  3.46916475
  C  0.60272156  1.25195600  0.53244663
  C -0.45803903  1.55577737  0.05588936
  C -1.67069681  1.42662387 -0.69645930
 Br -3.24007656  1.29028217  0.51862433
  C -1.47501645  0.12737115 -1.49631588
  C -1.35666643 -1.17452513 -0.68151327
  C -0.34523873 -1.32700608  0.47369468
  C  1.14062504 -1.03222285  0.19343634
  H -1.88934678  2.27444933 -1.34716598
  H -2.32712131  0.00368265 -2.17010100
  H -0.58249538  0.26554552 -2.11185329
  H -1.16260990 -1.96537398 -1.41117411
  H -2.33532820 -1.38149055 -0.24185243
  H -0.42886991 -2.37030194  0.78757149
  H -0.67749550 -0.72413062  1.32105872
  H  1.76504793 -1.85691837  0.54841783
  H  1.31351066 -0.91647418 -0.87800989
