31
opt_min/./Reactant_1785_0_opt.xyz
  C  4.25530300  1.52012000  0.14136100
  N  3.05553295  0.73235203  0.30621510
  C  3.04602168 -0.60705599 -0.03655045
  O  4.04376367 -1.14649949 -0.49951104
  C  1.78823242 -1.30604040  0.16270558
  C  1.82157179 -2.79904589  0.06283252
  N  0.66833044 -0.56816024  0.23149847
  C -0.61477421 -0.81675594  0.51670954
  C -0.99783249 -2.11970769  1.14536922
  C -1.57541371  0.21970613  0.25126963
  C -2.84260042  0.24584565  0.85517887
  C -3.73838923  1.26551151  0.61677165
  C -3.41864584  2.30836189 -0.23900868
  C -2.18594276  2.29265776 -0.87302927
  C -1.28973025  1.27061760 -0.64534184
  H  4.65105237  1.84716081  1.10489166
  H  4.98996418  0.89114394 -0.35724883
  H  4.04941221  2.39638877 -0.47898725
  H  2.40207798  1.07768265  0.98896689
  H  1.80955180 -3.28430799  1.03989858
  H  0.99598153 -3.17768245 -0.53459806
  H  2.76030153 -3.06107886 -0.41993329
  H  0.82676692  0.40403500 -0.03207914
  H -1.82096613 -1.98427202  1.84282871
  H -1.32500334 -2.84873999  0.40337493
  H -0.16205653 -2.52662084  1.70160456
  H -3.13443847 -0.53720192  1.53849515
  H -4.70151082  1.24845945  1.10661881
  H -4.11939208  3.10818490 -0.42042077
  H -1.92601087  3.07991241 -1.56662218
  H -0.37018547  1.27536781 -1.21644520
