20
opt_min/./Reactant_497_0_opt.xyz
  C  3.53010200  0.94639700  0.52495800
  C  2.59556716 -0.19341002  0.34588788
  N  1.31301859  0.00077615  0.20084095
  N  0.42311564 -0.92523683  0.04263520
  C -0.89788723 -0.56681659 -0.04399199
  C -1.44051288  0.70222697  0.21193379
  C -2.79720134  0.92033041  0.09122899
  C -3.65154535 -0.10421377 -0.27561645
  C -3.13054080 -1.36713036 -0.51659166
  C -1.77825718 -1.59713822 -0.40200884
  H  4.47828117  0.73007301  0.03502477
  H  3.74039830  1.12633516  1.58323428
  H  3.11639235  1.86184236  0.09954044
  H  2.94124655 -1.21305224  0.35952773
  H  1.02311237  0.99512972  0.20068097
  H -0.80375812  1.52196061  0.52197439
  H -3.19920298  1.90597532  0.29192590
  H -4.71333163  0.07020774 -0.36798804
  H -3.78679619 -2.18049709 -0.79803999
  H -1.34719209 -2.56996282 -0.58450695
