44
opt_min/./Reactant_2397_0_opt.xyz
  C  1.53108100 -0.02845300  3.65236000
  N  1.45320333 -0.56223075  2.31521129
  C  2.13702792  0.00297351  1.28000449
  O  2.87036672  0.95600657  1.43759652
  C  1.94776838 -0.68441330 -0.02832817
  C  3.15799267 -0.85873446 -0.79728656
  O  4.26844632 -0.92708686 -0.31994673
  O  2.94897639 -0.93160938 -2.15377899
  C  4.10571163 -1.06023308 -2.96270527
  N  0.70161756 -1.05211455 -0.43065860
  C  0.57469606 -2.15332959 -1.37443481
  C -0.39064456 -0.42825166  0.00814021
  C -1.68994553 -1.09385978  0.05521823
  C -2.84756780 -0.40443710 -0.31291797
  C -4.08576143 -1.00881898 -0.22560974
  C -4.19927998 -2.30860750  0.24046097
  C -3.06137650 -2.99951724  0.62550158
  C -1.82018749 -2.40241993  0.53511318
  C -0.32963176  0.93960296  0.52103350
  C -1.13737124  1.32063072  1.59507782
  C -1.13204823  2.62338412  2.05412030
  C -0.33207040  3.57357210  1.44296857
  C  0.45821936  3.21177299  0.36325268
  C  0.46732460  1.90989846 -0.09119894
  H  1.66298460 -0.83283136  4.37531455
  H  0.62871065  0.53894915  3.90000317
  H  2.38775333  0.64298726  3.68776145
  H  0.90327170 -1.39284352  2.17746434
  H  4.94568432 -1.39992218 -2.35328675
  H  3.88211237 -1.78443774 -3.74669573
  H  4.35010784 -0.09280620 -3.40659374
  H -0.47144406 -2.40772897 -1.51720731
  H  1.12705186 -3.02143217 -1.01518375
  H  0.99841844 -1.85143345 -2.33072750
  H -2.76050700  0.60880847 -0.67632483
  H -4.96815471 -0.46210265 -0.52394783
  H -5.16810353 -2.77898308  0.30994342
  H -3.14327754 -4.00735912  1.00575265
  H -0.94235167 -2.94421281  0.85979047
  H -1.76098081  0.58189269  2.07885493
  H -1.75136151  2.89736301  2.89596229
  H -0.32122287  4.59038925  1.80491040
  H  1.07880116  3.94876868 -0.12317067
  H  1.08920210  1.64437735 -0.93279372
