26
opt_min/./Reactant_5236_1_opt.xyz
  C  1.04515300 -0.77544700  0.95507900
  O -0.09898659 -0.34632819  0.53383877
  N -1.21745961 -0.96334763  0.94061365
  C -2.36998788 -0.42995786  0.44387327
  C -3.55484640 -1.06392024  0.84538043
  C -4.77418090 -0.60451609  0.39844363
  C -4.84610358  0.48916060 -0.45198704
  C -3.68029077  1.12386438 -0.85480046
  C -2.45333380  0.67659025 -0.41633502
  C  2.25277820 -0.14915097  0.53474377
  C  3.48324738 -0.62562564  1.01498572
  C  4.66317262 -0.03262287  0.62032650
  C  4.64858208  1.04272231 -0.25672979
  C  3.43973948  1.52343012 -0.73989358
  C  2.25366156  0.93968781 -0.35358921
  H  1.07214019 -1.62147650  1.63333257
  H -3.48569664 -1.91368267  1.50568108
  H -5.68096843 -1.10019959  0.71425387
  H -5.80566364  0.84400741 -0.79706291
  H -3.73216716  1.97595790 -1.51742510
  H -1.54933764  1.17682727 -0.73194805
  H  3.49420602 -1.46179526  1.69756431
  H  5.60439530 -0.40624317  0.99522080
  H  5.57689779  1.50182464 -0.56098996
  H  3.43077405  2.36008545 -1.42299004
  H  1.31346930  1.31174663 -0.73011206
