18
opt_min/./Reactant_1729_1_opt.xyz
  C  2.75440800  0.69885200  0.35875200
  O  2.06506453 -0.38866264  0.96350534
  C  1.05184800 -0.91665000  0.23909049
 Cl  1.28906579 -2.57161611 -0.23689255
  C -0.08757046 -0.30515563 -0.10265609
  O -1.02836268 -0.90651799 -0.88589348
  C -2.11146449 -1.47630033 -0.15656409
  O -0.33490870  0.96479989  0.34579919
  C -1.04199678  1.80173771 -0.55838674
  H  3.56360440  0.94711922  1.04317227
  H  3.16557466  0.41116784 -0.61281477
  H  2.09395671  1.56080215  0.23889342
  H -2.80072298 -1.85938194 -0.90802847
  H -1.76076914 -2.29531086  0.47691779
  H -2.61292373 -0.73083817  0.46620442
  H -1.16695173  2.75242003 -0.04144091
  H -2.02067844  1.38749811 -0.81244234
  H -0.47096270  1.94998892 -1.47970802
