28
opt_min/./Reactant_1297_1_opt.xyz
  N -1.20338999 -1.66791701  3.76209800
  C -0.69887872 -1.16388716  2.85762883
  C -0.06542863 -0.57448093  1.75935633
  O -0.65327818 -0.80809070  0.59756387
  C -0.22559162 -0.54568545 -0.59678072
  C -1.02391030 -0.89288647 -1.72713044
  C -2.28882843 -1.48534093 -1.58468033
  C -3.03919359 -1.80458309 -2.69508844
  C -2.55278794 -1.54160433 -3.96877285
  C -1.30445927 -0.95619100 -4.12336677
  C -0.54370495 -0.63134665 -3.02091083
  C  1.14653268  0.19679799  1.98724063
  C  1.45604508  1.34146228  1.24348023
  C  2.60757930  2.05555345  1.51455139
  C  3.46635725  1.65483230  2.52418580
  C  3.15319667  0.53944875  3.28729825
  C  2.00677765 -0.18170793  3.02495153
  H  0.74883692 -0.09754148 -0.75198684
  H -2.66603286 -1.69040032 -0.59374256
  H -4.01003239 -2.26062595 -2.57407319
  H -3.14503013 -1.79207653 -4.83546279
  H -0.92496841 -0.75171616 -5.11400918
  H  0.42847481 -0.17682939 -3.14143233
  H  0.77669886  1.71095923  0.48929589
  H  2.83045463  2.93870784  0.93325220
  H  4.36728127  2.21447588  2.72465430
  H  3.80888220  0.23035252  4.08724112
  H  1.76199263 -1.04973042  3.61959112
