36
opt_min/./Reactant_5878_0_opt.xyz
  C  2.37486000 -1.87058900  2.87882200
  O  2.22150822 -1.27284161  1.60178154
  C  0.99836516 -1.28901641  1.07443779
  O  0.02331746 -1.74351139  1.64778921
  C  0.95225812 -0.76469909 -0.28293236
  N -0.23345056 -0.59049426 -0.91941936
  C -1.47124605 -0.49563981 -0.49449426
  C -1.79467182 -0.33278149  0.96068235
  O -2.67972665 -0.88816415  1.55219790
  O -1.05526418  0.66348338  1.46872978
  C -1.24093579  0.90987045  2.85553880
  C -2.55632471 -0.41547707 -1.46646310
  C -3.84801552 -0.83170825 -1.12601894
  C -4.87015169 -0.77500033 -2.05409682
  C -4.63467859 -0.29364604 -3.33096113
  C -3.36364424  0.13879380 -3.67617628
  C -2.33289684  0.07918247 -2.76002605
  C  2.14173334 -0.66959990 -1.10548291
  O  3.27936269 -0.89453205 -0.77789357
  O  1.80661228 -0.29487789 -2.38893592
  C  2.87103204 -0.18522738 -3.32092937
  H  2.60422677 -2.93214759  2.76418173
  H  3.20550102 -1.36173094  3.36259955
  H  1.45735504 -1.76271066  3.46143246
  H -0.11029703 -0.53586244 -1.93366059
  H -2.20480564  1.39360139  3.02774790
  H -0.42646154  1.56230217  3.16057592
  H -1.21265800 -0.03347888  3.40319006
  H -4.03243676 -1.21301847 -0.13519288
  H -5.85845806 -1.10981838 -1.77742198
  H -5.43617552 -0.24802117 -4.05244604
  H -3.17642815  0.53093705 -4.66477426
  H -1.36150593  0.45764736 -3.04665655
  H  2.94154401  0.85218825 -3.65064635
  H  3.80569248 -0.48879771 -2.84595637
  H  2.65222661 -0.83311667 -4.17028510
