20
opt_min/./Reactant_3654_1_opt.xyz
  C  2.66404214  0.86817949  1.63902989
  N  1.34977089  0.65492005  1.07058721
  C  1.12091886 -0.39402339  0.23179871
  O  1.98630596 -1.13474247 -0.16709090
  C -0.31636781 -0.52002350 -0.18805547
  O -1.00305776  0.45069952 -0.72087972
  C -0.58836278  1.63413571 -1.05126341
  C -1.48275433  2.52589342 -1.63592554
  N -2.19752607  3.29359561 -2.11002870
  C -0.98096073 -1.82960073 -0.06791552
  C -2.29768751 -1.94336789 -0.80013008
  O -0.48215909 -2.73494540  0.55843833
  H  3.17316065  1.68915524  1.12735519
  H  2.58932577  1.10531851  2.69726966
  H  3.24732997 -0.04064997  1.49912902
  H  0.57580106  1.10105241  1.53655490
  H  0.43378254  1.96315932 -0.90027555
  H -2.79663807 -2.85370883 -0.48208272
  H -2.93276298 -1.08411865 -0.61459921
  H -2.10068923 -2.00591797 -1.86899466
