17
opt_min/./Reactant_2971_1_opt.xyz
  C  3.15288486  1.69478022 -1.24173308
  C  2.11759806  0.83938217 -1.94187937
  O  2.16201028  0.50581206 -3.10252370
  C  1.07553555  0.47373764 -1.06239890
  N  0.23807625  0.17404331 -0.29707996
  C -0.72243538 -0.15270943  0.50278452
  C -0.65905613  0.28335878  1.83358800
  N -0.61601473  0.62759822  2.92833829
  C -1.83725560 -0.97470985 -0.00519194
  C -2.86354549 -1.33974110  1.03131842
  O -1.88957509 -1.31888783 -1.16290747
  H  3.89337517  2.01627622 -1.96939617
  H  2.68179342  2.56617211 -0.79086390
  H  3.64084920  1.11879097 -0.45786814
  H -2.46323562 -2.14119463  1.65216503
  H -3.76366274 -1.69866677  0.53893521
  H -3.09583553 -0.49440573  1.67442483
