35
opt_min/./Reactant_5946_1_opt.xyz
  C -0.77323000  3.65763500 -0.62054300
  C -1.78710216  2.55428038 -0.85585140
  O -2.95987447  2.80257861 -1.09862523
  C -1.26852358  1.20497609 -0.82979596
  O  0.02856356  1.09937675 -0.54200191
  C  0.87198361  0.11632079 -0.68658241
  C  0.57095262 -1.14040689 -1.44178539
  C  2.17940952  0.33407975 -0.11851187
  C  2.42767187  1.46267957  0.68261330
  C  3.67052110  1.68276963  1.23441162
  C  4.70343978  0.78297158  1.01566250
  C  4.47517198 -0.34111417  0.23630762
  C  3.23661457 -0.56798662 -0.32565906
  C -2.19451203  0.07921622 -0.97485334
  C -2.16204895 -0.98218814 -0.06283053
  C -3.09616048 -1.99551473 -0.13363080
  C -4.07844434 -1.97145343 -1.11117183
  C -4.12422694 -0.92128698 -2.01390123
  C -3.19414181  0.09782272 -1.94939266
  H -1.29326729  4.61055778 -0.60414953
  H -0.03903832  3.66346530 -1.42380091
  H -0.25003281  3.51233398  0.31902341
  H  0.66270496 -2.01797267 -0.80426370
  H  1.28381221 -1.23945896 -2.26071183
  H -0.42733104 -1.12228141 -1.86685664
  H  1.62662881  2.16029025  0.87018828
  H  3.83636021  2.55741038  1.84491375
  H  5.67530485  0.95419215  1.45097054
  H  5.27465331 -1.04712186  0.06413915
  H  3.08918941 -1.44721995 -0.93044325
  H -1.41616936 -0.99505913  0.72016528
  H -3.06419692 -2.80067688  0.58568875
  H -4.80721998 -2.76537922 -1.16520193
  H -4.88988754 -0.89736801 -2.77525262
  H -3.23177025  0.91664340 -2.64946257
