35
opt_min/./Reactant_3187_1_opt.xyz
  C  4.51741232  0.30132763 -0.09668635
  O  3.27039059 -0.28607672 -0.44795035
  C  2.60603152 -0.90435597  0.51762547
  O  2.96793141 -0.99439074  1.65746609
  C  1.27558734 -1.46923706 -0.00760932
  C  1.51272559 -2.47220658 -1.13625462
  F  2.30227259 -2.02191734 -2.11591885
  F  0.36026430 -2.83742847 -1.72052471
  F  2.07803328 -3.60702203 -0.68766348
  C  0.45250679 -0.35815016 -0.42793097
  C -0.36256570  0.52053601 -0.46599158
  C -1.40043289  1.40285627  0.02600298
  C -2.75629844  1.05569190 -0.61732176
  C -1.00566230  2.88028815 -0.17463704
  C -1.38540044  1.04723724  1.53975277
  C -1.46653621 -0.45233598  1.91012902
  C -0.17257052 -1.25676204  2.19898711
  C  0.47231554 -2.15434133  1.12516548
  H  4.34909298  1.27331395  0.37069425
  H  5.05629527 -0.34271493  0.60040943
  H  5.07078608  0.41828671 -1.02452961
  H -3.26243104  1.94778206 -0.97616571
  H -3.41056359  0.56707693  0.10000079
  H -2.62226271  0.38204402 -1.46020376
  H -1.72733936  3.40404359 -0.79581700
  H -0.94948761  3.39741349  0.78024151
  H -0.03363893  2.95578199 -0.65558201
  H -0.48253578  1.46232787  1.99177322
  H -2.24554795  1.54874818  1.99052898
  H -2.08695918 -0.99443138  1.19907802
  H -1.99451358 -0.45891480  2.86964338
  H  0.57802038 -0.60710068  2.64846755
  H -0.46784158 -1.98407644  2.96003063
  H -0.31702921 -2.75429670  0.66261125
  H  1.15690030 -2.83214967  1.64098478
