28
opt_min/./Reactant_2265_0_opt.xyz
  C  0.36373700  3.83410800  0.41965400
  O  0.15381522  2.46570890  0.72993665
  C -0.67476359  1.81594452 -0.11654541
  O -1.30649680  2.36138419 -0.97458853
  C -0.83038503  0.39275798  0.28578069
  C -2.17628404 -0.14960401  0.08257386
  O -3.19015995  0.49859851  0.07814321
  O -2.15978876 -1.49081348 -0.13093727
  C -3.41145876 -2.09090012 -0.42628348
  N  0.16024717 -0.30461360  0.84284252
  C -0.15413502 -1.44207358  1.69154685
  C  1.45666071 -0.03093597  0.67462221
  C  1.97832782  0.63901977 -0.48173373
  C  3.48199307  0.55854367 -0.63300177
  O  1.27621619  1.13840290 -1.34680456
  H -0.55402882  4.40385597  0.58003083
  H  1.15013554  4.18004626  1.08637851
  H  0.66617305  3.93602914 -0.62401754
  H -4.21021077 -1.58094077  0.11543821
  H -3.60989696 -2.02487070 -1.49756640
  H -3.33963918 -3.13295331 -0.12123451
  H -0.15180563 -2.35920304  1.10224353
  H  0.59903990 -1.52064873  2.47403380
  H -1.13441368 -1.31921061  2.14542216
  H  2.15009225 -0.53705956  1.32607471
  H  3.83088173  1.42439068 -1.18963910
  H  3.98019458  0.50720913  0.32965342
  H  3.73115573 -0.32932921 -1.21265621
