14
opt_min/./Reactant_514_1_opt.xyz
  C -0.02364096 -2.69753401 -0.04469971
  O  0.06293348 -1.27907706 -0.02343275
  C -1.09090089 -0.63067587  0.21385718
  O -2.15080479 -1.15990117  0.40819563
  C -0.87256983  0.82854450  0.21530122
  C -1.95474901  1.69522595  0.44139796
  N -2.83988184  2.40275057  0.61343790
  N  0.30103933  1.30797637  0.00185414
  C  1.39511272  1.70389936 -0.17607444
  C  2.64029861  2.14663883 -0.38216297
  N  3.71841184  2.52500251 -0.56096276
  H -0.61896509 -3.02615059 -0.89891449
  H -0.48804308 -3.06327457  0.87291379
  H  0.99717698 -3.06046914 -0.13006008
