29
opt_min/./Reactant_4804_0_opt.xyz
  C  3.96143900 -0.50410100  1.90768000
  N  2.74963892 -1.02888966  1.31757651
  C  1.65974518 -0.23128947  1.18723842
  O  1.65566230  0.92667408  1.55639119
  C  0.45247897 -0.86777748  0.57021931
  C  0.44801869 -2.31498521  0.19476589
  O -0.47536254 -0.01527154  0.34384675
  C -1.68765759 -0.01618919 -0.16920017
  C -2.64505613 -1.11500225 -0.26979128
  O -3.60163542 -1.13103648 -1.00194072
  O -2.39710941 -2.10747592  0.63675040
  C -3.37136643 -3.13612150  0.74161057
  C -2.17694790  1.33914124 -0.50385317
  O -3.31305948  1.63635939 -0.77166922
  O -1.15894536  2.22044348 -0.49599355
  C -1.51034679  3.56744248 -0.76320776
  H  4.71802276 -1.28263481  1.93570507
  H  3.75940174 -0.14970691  2.92018044
  H  4.32694343  0.34358813  1.32452674
  H  2.74510316 -1.97958238  0.99386355
  H  1.19927313 -2.48724391 -0.57911132
  H  0.67571616 -2.94646061  1.05279670
  H -0.51610545 -2.61253041 -0.20155070
  H -4.01809359 -3.12309886 -0.13781751
  H -2.84328984 -4.08617647  0.81635671
  H -3.96931138 -2.96992164  1.63900441
  H -0.57434938  4.11909911 -0.80228012
  H -2.04561086  3.64127079 -1.71263788
  H -2.15064631  3.95880488  0.03044666
