24
opt_min/./Reactant_5714_1_opt.xyz
  C  4.69152400 -0.47702400  0.52610500
  N  3.32633970 -0.04994248  0.34098001
  C  3.01775712  1.25178586  0.17408033
  O  3.83299634  2.15396601  0.16003160
  C  1.55907025  1.51380337  0.01016197
  O  0.79325902  0.50364469  0.04527468
  C -0.52007315  0.29426720 -0.05329478
  C -1.40547121  1.41602021 -0.32407786
  C -2.86467926  1.16733970 -0.61457745
  O -0.95106271  2.54959127 -0.36130379
  C -0.75306942 -1.15099125  0.13103160
  C -2.14972423 -1.68637849  0.28421669
  O  0.21396523 -1.88855693  0.21176027
  H  5.17797862  0.16638219  1.26116137
  H  4.70517214 -1.50744944  0.86755951
  H  5.24937320 -0.39310548 -0.40975741
  H  2.59374004 -0.74502386  0.33961966
  H  1.22613870  2.53478714 -0.13370724
  H -2.99552917  0.37943519 -1.34841269
  H -3.38580364  0.89363840  0.29903039
  H -3.29057761  2.09423561 -0.99053827
  H -2.65694977 -1.69358117 -0.67709976
  H -2.08050931 -2.71038557  0.64334257
  H -2.72603537 -1.09183624  0.98535365
