47
opt_min/./Reactant_3210_0_opt.xyz
  C  4.08080687  1.65608110 -1.12763477
  O  2.76658171  1.72907337 -0.61796817
  C  2.13470587  0.52654922 -0.25426687
  C  2.94247358 -0.24207667  0.81579865
  F  2.21320583 -1.21559619  1.38315110
  F  4.04232009 -0.84870838  0.32848947
  F  3.36367537  0.55306161  1.80630350
  C  0.82209006  0.82757091  0.29494066
  C -0.33251119  0.54822487  0.47840882
  C -1.71000364  0.22199902  0.16263201
  C -2.04348587 -1.12754102  0.77246743
  C -1.52160496 -1.44538412  2.02072713
  C -1.81518084 -2.65535265  2.62259065
  C -2.64161327 -3.56490746  1.98623780
  C -3.17279929 -3.25315603  0.74669928
  C -2.87753937 -2.04314536  0.14348114
  C -2.69718237  1.28967595  0.60826992
  C -2.28022736  2.61040967  0.71744731
  C -3.17210973  3.60009579  1.08790505
  C -4.49412963  3.28360336  1.35122869
  C -4.91645700  1.97028381  1.24135136
  C -4.02403977  0.97907631  0.87155265
  C -1.65312364  0.21804581 -1.39034126
  C -0.70447769 -0.79688384 -2.06073947
  C  0.59214573 -1.30582908 -1.39713906
  C  1.84845750 -0.40881374 -1.47591665
  H  4.29938708  2.66127831 -1.48300930
  H  4.16333534  0.94873872 -1.95726949
  H  4.80819215  1.39009400 -0.35464191
  H -0.87334995 -0.73923357  2.51966709
  H -1.39613583 -2.88786688  3.59015101
  H -2.87273355 -4.51134307  2.45175611
  H -3.82254607 -3.95449566  0.24363760
  H -3.30662833 -1.81894602 -0.82132025
  H -1.24826199  2.86032839  0.51651866
  H -2.83337264  4.62214525  1.17213206
  H -5.19125571  4.05505633  1.64282037
  H -5.94583580  1.71490169  1.44582241
  H -4.36558970 -0.04285228  0.79562828
  H -2.66348815  0.05720008 -1.77496637
  H -1.37078355  1.23097802 -1.68782012
  H -1.26932533 -1.70294755 -2.28481835
  H -0.41083804 -0.35750710 -3.01808689
  H  0.85491132 -2.21541127 -1.94440145
  H  0.41446648 -1.60986215 -0.36524040
  H  1.77399491  0.24066363 -2.35123352
  H  2.71612686 -1.06108319 -1.60139663
