29
opt_min/./Reactant_5057_1_opt.xyz
  C -1.45330500  3.72739500  0.58792200
  N -0.69711418  2.50132868  0.48897343
  C -1.05652145  1.52342738 -0.37630618
  O -1.99433216  1.62797858 -1.14030736
  C -0.20196459  0.28648766 -0.30184576
  O  1.09981888  0.32609158 -0.31958482
  C  1.89794041  1.35415896 -0.48422187
  C  3.31904463  1.16091030 -0.48736816
  C  3.80540525 -0.25948456 -0.29336670
  O  4.08194603  2.10007544 -0.65365990
  C -0.81315690 -1.02106644 -0.20242258
  C -2.20341962 -1.17343736 -0.11132742
  C -2.76299469 -2.43101609 -0.01805129
  C -1.95961191 -3.56150951 -0.00710762
  C -0.58311564 -3.42437983 -0.09507359
  C -0.01264606 -2.17319668 -0.19330389
  H -0.80352945  4.52536161  0.94117861
  H -2.30171312  3.61923808  1.26897585
  H -1.83564214  3.96842855 -0.40359430
  H  0.01208450  2.32677127  1.18377311
  H  1.50307772  2.34612858 -0.65845802
  H  3.27265016 -0.74577731  0.51962954
  H  4.87193664 -0.25036277 -0.08620463
  H  3.63024822 -0.82109902 -1.21032987
  H -2.83946991 -0.30363121 -0.13240848
  H -3.83585067 -2.53402439  0.04722128
  H -2.40549340 -4.54207762  0.06566045
  H  0.04660411 -4.30207268 -0.09165289
  H  1.05980865 -2.07522426 -0.26746840
