26
opt_min/./Reactant_780_1_opt.xyz
  C  3.25318600  1.91061000 -0.05941400
  N  2.34715112  0.82918002 -0.35720653
  C  1.02041839  0.91784250 -0.08021082
  O  0.53073225  1.91021525  0.41680462
  C  0.24687030 -0.30258038 -0.40436359
  C -1.04782416 -0.59279643 -0.20372500
  C -2.23273487  0.14039327  0.27383644
  O -3.22864366 -0.42822242  0.65936252
  O -2.10690210  1.45587358  0.18716955
  C -3.21008462  2.23501315  0.62191924
  C -1.18323516 -2.08063106 -0.57028628
  C -0.44175258 -2.82153279  0.54435742
  C  0.83592958 -2.54609549  0.33605591
  C  0.84062381 -1.64462802 -0.90078468
  O -0.24948976 -2.17104137 -1.63093805
  H  3.91411359  2.09138381 -0.90714891
  H  3.85612468  1.68799358  0.82552722
  H  2.65342042  2.79836641  0.13729327
  H  2.74223237 -0.01601264 -0.73153193
  H -3.25064084  2.24802763  1.71337418
  H -3.04071376  3.23839067  0.23928157
  H -4.14465600  1.81828942  0.23819463
  H -2.17424132 -2.42399903 -0.84056217
  H -0.92112434 -3.39396260  1.31065017
  H  1.70789936 -2.83414010  0.88716967
  H  1.73757681 -1.62237521 -1.51117411
