36
opt_min/./Reactant_2665_0_opt.xyz
  C  3.79287065  2.31066975 -1.64245640
  N  2.76005845  1.31655314 -1.48025335
  C  2.81067078  0.36562851 -0.52655701
  O  3.73372119  0.22016478  0.24058392
  C  1.57978818 -0.56390366 -0.54352326
  C  1.69501049 -1.52770996 -1.73290002
  C  0.33779397  0.17342008 -0.60470133
  C -0.77923434  0.50661224 -0.31843747
  C -2.11543292  0.54451415  0.23674300
  C -3.15247750  0.42019712 -0.88915212
  F -2.97794025 -0.72430318 -1.56782828
  F -3.06751225  1.40301132 -1.78888526
  F -4.40971399  0.40569451 -0.43676691
  C -2.33625278  1.85701395  1.00938312
  F -1.37733662  2.04404524  1.92461073
  F -2.31742464  2.93281917  0.21782877
  F -3.49891945  1.87493999  1.66836805
  C -2.21210181 -0.68249880  1.19178287
  C -0.89636541 -1.05520544  1.90531165
  C  0.09590113 -1.94049215  1.10835694
  C  1.47198356 -1.31194740  0.81176881
  H  4.15280968  2.31765922 -2.67226346
  H  4.60935881  2.04464997 -0.97315642
  H  3.42478670  3.30504284 -1.38303178
  H  1.91397925  1.42998527 -2.01777936
  H  0.72413584 -1.95661399 -1.97119214
  H  2.38295392 -2.33258406 -1.48709882
  H  2.07026178 -1.01676127 -2.61694689
  H -2.54124660 -1.54018117  0.60215833
  H -2.98331288 -0.47877654  1.93755231
  H -0.39199604 -0.14892241  2.23786884
  H -1.19012544 -1.60162270  2.80256726
  H  0.27642567 -2.84265026  1.69361421
  H -0.36762409 -2.25525017  0.17339061
  H  1.72255273 -0.60339940  1.60270370
  H  2.23962292 -2.08623385  0.82773668
