18
opt_min/./Reactant_1151_0_opt.xyz
  C  3.60055632 -0.97008326 -0.49162038
  N  2.36361523 -0.30715811 -0.15447435
  C  2.32480783  1.01387008  0.15534012
  O  3.27544312  1.75016110  0.15537404
  N  1.05399382  1.48874706  0.51889288
  N -0.00569910  0.99510581  0.21647430
  C -1.08731844  0.61860378 -0.03578708
  C -2.39335881  0.14941143 -0.35366868
  O -2.60113116 -0.84130311 -1.00941988
  O -3.33013506  0.93110764  0.19860382
  C -4.67751414  0.54764579 -0.04158289
  H  4.34467987 -0.20168281 -0.69429004
  H  3.95083532 -1.59340107  0.33501520
  H  3.46166845 -1.59046050 -1.37700061
  H  1.52950765 -0.87147261 -0.11140376
  H -4.78549038 -0.53568724  0.03771658
  H -4.98271711  0.86279649 -1.04189566
  H -5.27715230  1.05215956  0.71201441
