15
opt_min/./Reactant_986_1_opt.xyz
  N  4.29375795 -0.05421423 -0.04448903
  N  3.09674541  0.12090269  0.12816775
  C  1.92995121  0.12616995  0.21828909
  C  0.53930366  0.05633386  0.30207095
  C -0.15230616 -1.00736779 -0.29332015
  C -1.52657322 -1.07528483 -0.20558464
  C -2.23722204 -0.09408262  0.47100095
  C -1.55988932  0.96071094  1.06061907
  C -0.18584967  1.04644321  0.98165174
  H  4.89382800  0.67789502  0.31945951
  H  0.40412630 -1.76901781 -0.81928723
  H -2.04936664 -1.89964414 -0.66822049
  H -3.31303572 -0.15385455  0.53590913
  H -2.11067504  1.72630417  1.58812984
  H  0.34241079  1.86880992  1.44135714
