33
opt_min/./Reactant_5796_1_opt.xyz
  C  0.78965990 -2.59461305 -0.68088190
  N -0.21975377 -1.69520172 -0.15318165
  C -0.06156817 -0.38136285 -0.20998105
  C  0.89171743  0.23801890 -1.12671032
  C  1.00102901 -0.17111251 -2.45878674
  C  1.87454304  0.46810396 -3.31694200
  C  2.65518288  1.51982822 -2.86525381
  C  2.54728190  1.94070243 -1.54905875
  C  1.67034494  1.31209276 -0.68779718
  C -0.82897576  0.52082124  0.65016837
  C -1.36781844  1.69432728  0.12188776
  C -2.04574660  2.58163034  0.93464451
  C -2.17930938  2.32243674  2.28825681
  C -1.62823494  1.17090493  2.82704752
  C -0.96325073  0.27249078  2.01862309
  C -1.31042386 -2.30879990  0.41117718
  C -1.27506577 -3.66583060  0.71195906
  N -1.23464369 -4.78030346  1.00258844
  C -2.50574812 -1.63325823  0.64934161
  N -3.53494416 -1.13667537  0.79696956
  H  1.70971349 -2.05117023 -0.88608302
  H  0.43987608 -3.07895497 -1.59452855
  H  0.98867433 -3.37546812  0.05572607
  H  0.37446165 -0.96904370 -2.82871927
  H  1.94210104  0.14727710 -4.34569983
  H  3.33926834  2.01428390 -3.53819921
  H  3.14925167  2.76402538 -1.19463305
  H  1.58595449  1.63875926  0.33848906
  H -1.26758254  1.89347793 -0.93535676
  H -2.47241007  3.47718000  0.50839457
  H -2.71185191  3.01500057  2.92275594
  H -1.72093924  0.96963802  3.88357301
  H -0.52785806 -0.61778736  2.45122712
