30
opt_min/./Reactant_2884_0_opt.xyz
  C  5.14338400  0.11845200 -0.29781900
  N  3.98284699 -0.68239148 -0.00424139
  C  2.72952939 -0.16812273 -0.00209907
  O  2.48364973  1.01337824 -0.24388979
  C  1.64780609 -1.09446277  0.28175675
  N  0.45854561 -0.51885949  0.25177398
  C -0.81776815 -0.85594542  0.40062950
  C -1.32136404 -2.14754849  0.84448741
  C -0.32337532 -3.20501776  1.27056942
  O -2.51495960 -2.39299074  0.90092212
  C -1.77570650  0.24042978  0.16008157
  C -2.97650855  0.01729168 -0.51254234
  C -3.85400579  1.06079210 -0.74088967
  C -3.55209386  2.34046855 -0.30896201
  C -2.36265403  2.57427462  0.36098784
  C -1.48247474  1.53605577  0.59502226
  H  5.85850807  0.08049758  0.52636308
  H  5.63276372 -0.22503323 -1.21242683
  H  4.80217233  1.14301319 -0.43632365
  H  4.11693838 -1.66214908  0.18186101
  H  1.80687853 -2.12915709  0.50014811
  H  0.60417144  0.47449142 -0.00831872
  H  0.38847980 -2.80433631  1.98815463
  H -0.87350009 -4.02377034  1.72802682
  H  0.20673415 -3.59082708  0.40070431
  H -3.21608318 -0.97354414 -0.86001865
  H -4.77978222  0.87485246 -1.26531818
  H -4.24088673  3.15286488 -0.48865867
  H -2.12167227  3.56869238  0.70791222
  H -0.57544462  1.72982053  1.15261268
