26
opt_min/./Reactant_4623_1_opt.xyz
  C -1.81143700  2.98957400  1.05349800
  N -0.85431796  1.97557909  0.68357244
  C -1.24144877  0.68268659  0.48133193
  O -2.39840834  0.33245472  0.61718067
  C -0.15622956 -0.22022858  0.06750415
  O  1.01975170  0.37333461 -0.19321451
  C  2.20719470 -0.10387861 -0.29658069
  C  2.59341306 -1.51327917 -0.08185016
  C  3.26591097  0.90547128 -0.60790126
  C -0.43485039 -1.60638169 -0.24972896
  O  0.16158021 -2.23462438 -1.11524998
  O -1.45206818 -2.10515173  0.45874547
  C -1.97605242 -3.36112826  0.06385597
  H -1.92633836  3.04478354  2.14005981
  H -1.49177552  3.95821418  0.67353863
  H -2.77635515  2.72387160  0.62179140
  H  0.10303523  2.24583659  0.53971368
  H  2.26791351 -1.84214696  0.90861689
  H  3.66835007 -1.63271077 -0.17267967
  H  2.07479420 -2.16688006 -0.79529333
  H  3.76483943  0.64638193 -1.54175577
  H  2.83513555  1.89875319 -0.70614414
  H  4.01882962  0.91944381  0.17969855
  H -1.92406478 -4.04013543  0.91635155
  H -1.39921610 -3.76536569 -0.77085644
  H -3.01691629 -3.21970555 -0.23017204
