21
opt_min/./Reactant_3902_1_opt.xyz
  C  4.25512915  0.64226366  0.20338977
  O  3.26833395 -0.35396442  0.43471059
  C  2.00262318  0.07246731  0.43606954
  O  1.65920161  1.21718043  0.26112703
  C  1.06874343 -1.02477486  0.74189546
  C  1.57817843 -2.21672784  1.27819433
  N  2.00297603 -3.18915113  1.71758917
  N -0.25004405 -0.88891167  0.62982428
  C -1.04371574  0.02071071  0.07214918
  C -0.64691088  1.05119637 -0.78882502
  N -0.47955180  1.83613236 -1.61198313
  C -2.47503837 -0.25604418  0.31988824
  C -3.48729492  0.69967337 -0.22368752
  O -2.75901197 -1.24968768  0.96765052
  H  5.21104083  0.12672879  0.22719801
  H  4.20979082  1.40791393  0.98043002
  H  4.09464562  1.11585818 -0.76720215
  H -0.83974705 -1.62855984  1.05845198
  H -3.97365325  1.20274658  0.61157347
  H -3.04079813  1.43715771 -0.88199469
  H -4.25883817  0.14202807 -0.75173766
