25
opt_min/./Reactant_3874_1_opt.xyz
  C  4.42745093  2.32819574 -1.46725597
  O  3.18357310  1.73966341 -1.12477401
  C  3.27583520  0.59212691 -0.40049055
  O  4.31585109  0.07692921 -0.03081824
  C  2.03211721  0.04445360 -0.11514935
  N  1.01090853 -0.47890466  0.19276086
  C -0.06082854 -1.07857827  0.53634018
  C  0.07098404 -2.33660834  1.34400998
  C -1.34655491 -0.52331829  0.15319128
  C -1.44110589  0.78841702 -0.32769327
  C -2.66071407  1.31977509 -0.69124114
  C -3.81606419  0.56062867 -0.58151610
  C -3.73673807 -0.73737340 -0.10318919
  C -2.51984837 -1.27696364  0.26219975
  H  4.86001004  1.81928233 -2.33109399
  H  5.12622431  2.26315028 -0.63107022
  H  4.21564117  3.36839772 -1.70328434
  H -0.36399398 -2.19901163  2.33356728
  H  1.11958501 -2.60025226  1.45517504
  H -0.44107910 -3.16800505  0.86242474
  H -0.54671432  1.38865702 -0.41132981
  H -2.71604545  2.33387917 -1.05841015
  H -4.77145646  0.97579917 -0.86403917
  H -4.63713698 -1.32854474 -0.01877683
  H -2.47909660 -2.29011299  0.63017829
