25
opt_min/./Reactant_2181_1_opt.xyz
  O -0.97280000 -3.18988600 -0.79767200
  O  0.07201825 -2.39466839 -0.70724624
  C -0.02921108 -1.16883859 -0.35006301
  C -1.27087056 -0.48199375 -0.01609547
  C -2.46898578 -0.80959351 -0.65558125
  C -3.63484620 -0.14459899 -0.32223943
  C -3.62915046  0.83225821  0.65941549
  C -2.44805946  1.14692684  1.31222954
  C -1.27459277  0.50093116  0.97918063
  C  1.25553238 -0.47414911 -0.29083810
  C  2.42132064 -1.18707339  0.00044728
  C  3.64087551 -0.53978652  0.03802359
  C  3.71935609  0.81961883 -0.22107232
  C  2.56991007  1.52910304 -0.52744651
  C  1.34455557  0.89245608 -0.56527046
  H -2.48091146 -1.57926577 -1.41005878
  H -4.55214010 -0.39996659 -0.83059477
  H -4.54668348  1.33822562  0.91928962
  H -2.44529474  1.89790312  2.08829587
  H -0.36240331  0.73396515  1.50733151
  H  2.35712768 -2.24344290  0.20879563
  H  4.53454427 -1.09859284  0.27216683
  H  4.67555792  1.31920118 -0.18826226
  H  2.62779923  2.58532925 -0.74459145
  H  0.45509285  1.44287040 -0.83061240
