34
opt_min/./Reactant_2667_0_opt.xyz
  C  5.18201900 -0.53402900  0.90159400
  N  3.80015777 -0.16702977  0.72353518
  C  3.44317119  1.09801972  0.36031013
  O  4.26192274  1.99725299  0.22756162
  C  2.02206055  1.32157791  0.19121432
  O  1.18713038  0.31765607  0.27611064
  C -0.11320440  0.32052937  0.15639858
  C -0.90540272  1.54398143  0.01769589
  C -1.90875598  1.61960892 -0.95131213
  C -2.67507833  2.76119597 -1.07939411
  C -2.45857935  3.84555318 -0.24368372
  C -1.47402863  3.77697927  0.72829157
  C -0.70170669  2.63891683  0.85947257
  C -0.74285049 -0.98706455  0.16061935
  C -2.10201051 -1.13244744  0.46178057
  C -2.68786670 -2.38193572  0.46884171
  C -1.93720402 -3.51225769  0.18505590
  C -0.58907665 -3.38291996 -0.11085013
  C  0.00331329 -2.13741073 -0.12693883
  H  5.70907151  0.30168550  1.36244674
  H  5.25000240 -1.41132593  1.54058802
  H  5.66166152 -0.74618235 -0.05903335
  H  3.09044627 -0.87228250  0.82117422
  H  1.68211788  2.31875506 -0.04808675
  H -2.07528075  0.77573697 -1.60474278
  H -3.44438026  2.80725450 -1.83609461
  H -3.05819445  4.73725011 -0.34704824
  H -1.30702633  4.61504204  1.38860231
  H  0.04397625  2.58541467  1.64000688
  H -2.69015719 -0.25922928  0.70044294
  H -3.73792110 -2.47867030  0.70237795
  H -2.39972207 -4.48775633  0.19178855
  H  0.00048214 -4.25949045 -0.33648101
  H  1.04806366 -2.04058069 -0.38351988
