48
opt_min/./Reactant_3125_0_opt.xyz
  C  4.27076825 -2.59142300  0.51640851
  C  2.81763163 -2.49210086  0.15128913
  O  2.02906813 -3.36736303  0.37581706
  C  2.34341104 -1.16747164 -0.50605338
  C  2.65657753 -1.25223475 -2.00736939
  F  2.49727935 -0.08154341 -2.64661716
  F  1.86853480 -2.12840739 -2.63781635
  F  3.92388221 -1.62846095 -2.26360607
  C  0.90964583 -0.99470033 -0.37227368
  C -0.13066452 -0.43932948 -0.15674926
  C -1.10458133  0.63561549 -0.03640047
  C -1.69159475  0.66473517  1.35793273
  C -1.79691581 -0.51668936  2.08094632
  C -2.36553598 -0.52542652  3.34197773
  C -2.84085884  0.64881945  3.89894195
  C -2.74796658  1.82959412  3.18240076
  C -2.17915279  1.83835115  1.92075675
  C -2.18412843  0.52927292 -1.10383369
  C -1.83534678  0.09074982 -2.37662213
  C -2.78281705  0.01740917 -3.38043323
  C -4.09224769  0.39239235 -3.13042595
  C -4.44344056  0.83917228 -1.87071957
  C -3.49606783  0.91121558 -0.86380458
  C -0.16574963  1.83809691 -0.32934503
  C  1.08901269  1.87985308  0.56339943
  C  2.42431120  1.48089124 -0.10381466
  C  2.98487838  0.07046579  0.17233455
  H  4.39326987 -2.19193624  1.52360219
  H  4.55395092 -3.64157190  0.53833822
  H  4.92128675 -2.04562478 -0.15804175
  H -1.43143876 -1.43749878  1.64834977
  H -2.43487672 -1.45284801  3.89137036
  H -3.28452960  0.64340028  4.88374531
  H -3.12373788  2.74983604  3.60484475
  H -2.12777253  2.76933007  1.37551658
  H -0.81834620 -0.21043589 -2.58002142
  H -2.49612328 -0.33316483 -4.36104901
  H -4.83299790  0.33829818 -3.91450983
  H -5.46172033  1.13723289 -1.66592169
  H -3.79338727  1.26265029  0.11300475
  H -0.71113237  2.77923571 -0.25345997
  H  0.14412220  1.74232612 -1.37181387
  H  0.93149069  1.25958977  1.44967554
  H  1.20727851  2.90455255  0.92095913
  H  2.37147005  1.67814825 -1.17251356
  H  3.19177038  2.14229431  0.30886641
  H  4.04171839  0.08890004 -0.10648078
  H  2.91661400 -0.10519424  1.24917670
