26
opt_min/./Reactant_5661_1_opt.xyz
  C  4.49237800  0.39895300  0.36370700
  C  3.03318691  0.72267137  0.13011648
  O  2.65789663  1.82605575 -0.27987544
  C  2.09176794 -0.29644626  0.43226538
  N  0.81007838  0.03971171  0.21264973
  C -0.33080112 -0.60324400  0.33872622
  C -0.32472739 -2.01935952  0.82186876
  C -1.56726837  0.08091069  0.03245295
  C -2.79597649 -0.42315448  0.49025301
  C -3.98254086  0.22220904  0.21016711
  C -3.99181795  1.38961709 -0.53459919
  C -2.79047416  1.90434822 -0.99637712
  C -1.59983595  1.26741411 -0.72007218
  H  4.70685662 -0.63711435  0.11592831
  H  4.72906410  0.56163699  1.41466554
  H  5.11315699  1.06188798 -0.23319420
  H  2.36411205 -1.25611551  0.82525826
  H  0.78332903  1.01251921 -0.11672211
  H -0.44570935 -2.08143781  1.90411075
  H -1.13291698 -2.57854208  0.35537441
  H  0.61311597 -2.50068720  0.55886922
  H -2.81848256 -1.31647406  1.09304230
  H -4.91192284 -0.18640835  0.58052533
  H -4.92113334  1.89331249 -0.75299246
  H -2.78477732  2.81191755 -1.58285662
  H -0.68777772  1.68692515 -1.12050404
