21
opt_min/./Reactant_1768_0_opt.xyz
  C  4.24078000 -0.33750200  0.13586400
  O  2.92161824  0.03675548  0.50604108
  C  1.94013763 -0.52310694 -0.21217394
  O  2.11625613 -1.26135815 -1.15530645
  N  0.73811953 -0.22976691  0.37187763
  N -0.36642558 -0.03676632 -0.25294287
  C -0.41815796  0.14393137 -1.69374824
  C -1.48093402  0.03385612  0.45131753
  C -2.79871943  0.30673003 -0.07068281
  C -3.88009311  0.31212216  0.98688333
  O -3.05585846  0.49992751 -1.24795954
  H  4.89252663  0.03204666  0.92346471
  H  4.50942664  0.11124865 -0.82393754
  H  4.31683056 -1.42338646  0.04814171
  H  0.58455696  0.08868982 -2.11084016
  H -1.04184212 -0.63286131 -2.13509657
  H -0.88021643  1.10326043 -1.92825543
  H -1.35797554 -0.12653497  1.51100205
  H -4.72724143  0.89562396  0.63576021
  H -3.51708592  0.70721576  1.93041480
  H -4.21639779 -0.71190085  1.14546179
