37
opt_min/./Reactant_1138_1_opt.xyz
  C -2.94057464  1.79328110  0.92280180
  C -2.06944059  1.04733870 -0.08843778
  C -2.10694136  1.75619392 -1.44877618
  C -0.69980925  0.90460648  0.37105433
  C  0.36038889  0.42463914  0.66482435
  C  1.42264781 -0.56049214  0.81729855
  C  1.41731692 -0.97195420  2.20735621
  N  1.37492865 -1.28190787  3.30693891
  C  2.79240830 -0.09045178  0.37910602
  C  2.90356928  0.83616281 -0.64911931
  C  4.15072609  1.24062760 -1.08877416
  C  5.29508344  0.72265378 -0.50598434
  C  5.18762320 -0.20125578  0.51905985
  C  3.94111753 -0.60933466  0.96077786
  C  0.95280694 -1.75681998 -0.07415393
  C -0.53764764 -2.10836051  0.08824738
  C -1.51750235 -1.38612419 -0.86891883
  C -2.53323403 -0.43399421 -0.20594913
  H -2.91282928  1.30217744  1.89330428
  H -3.97147319  1.82238152  0.57480336
  H -2.58732448  2.81462675  1.04936648
  H -1.22595228  1.51838979 -2.04126138
  H -2.13721894  2.83490018 -1.31217421
  H -2.98834316  1.45538215 -2.01095863
  H  2.00786736  1.24497216 -1.09568322
  H  4.22922294  1.96325152 -1.88783819
  H  6.26857662  1.04023710 -0.84898672
  H  6.07673996 -0.60684031  0.97882214
  H  3.86114148 -1.32976524  1.76269249
  H  1.16066340 -1.48833108 -1.11265681
  H  1.56846957 -2.62438145  0.17595853
  H -0.63610084 -3.18366346 -0.07175864
  H -0.82890037 -1.91783460  1.12345986
  H -2.08268784 -2.14771785 -1.40890520
  H -0.94912718 -0.82979689 -1.61562532
  H -2.75153203 -0.79949477  0.79938230
  H -3.46707353 -0.45378153 -0.77241720
