43
opt_min/./Reactant_5786_1_opt.xyz
  C  1.86270500  3.79570200 -0.60658400
  N  1.86988517  2.36411605 -0.43585964
  C  0.84605076  1.59665452 -0.85627939
  O -0.09007556  2.00014464 -1.52297774
  C  0.99983043  0.13707416 -0.54841119
  C  2.29162834 -0.48431632 -0.76234661
  C  3.13861503 -0.04034499 -1.78318795
  C  4.38711239 -0.60662074 -1.95044801
  C  4.81869079 -1.61416342 -1.10260223
  C  3.99380262 -2.05319515 -0.07833347
  C  2.74196757 -1.49846880  0.09409557
  N -0.09232345 -0.53138617 -0.19906398
  C -0.27566500 -1.92470537 -0.56742898
  C -1.08465456  0.08612419  0.50440481
  C -0.71711586  1.08213125  1.46078891
  C -1.83921124  1.76196134  2.21379038
  O  0.45760194  1.38746805  1.69081833
  C -2.45393060 -0.42018647  0.32867824
  C -3.13637964 -1.09311395  1.34067893
  C -4.42083493 -1.55815387  1.12868871
  C -5.03795532 -1.36640863 -0.09651657
  C -4.36334316 -0.70864180 -1.11182785
  C -3.07996165 -0.23951369 -0.90339012
  H  1.80715097  4.30166224  0.35793230
  H  0.98734878  4.05308721 -1.20153636
  H  2.76589190  4.11633780 -1.13017921
  H  2.46380913  1.98179271  0.28300020
  H  2.79776962  0.73672358 -2.45013627
  H  5.02754256 -0.26136311 -2.74866718
  H  5.79649758 -2.05253832 -1.23495362
  H  4.33424917 -2.82692835  0.59418494
  H  2.11312353 -1.81781391  0.91186140
  H -0.61367412 -2.50220328  0.29216438
  H -1.03897026 -1.98864179 -1.34498207
  H  0.65378793 -2.33369075 -0.95365305
  H -2.27635270  2.50872806  1.55126746
  H -1.42658000  2.26609588  3.08395693
  H -2.62448649  1.07685055  2.51295995
  H -2.64667427 -1.26355147  2.28951903
  H -4.94159542 -2.07831945  1.91983089
  H -6.04201272 -1.72909729 -0.25958534
  H -4.84312311 -0.55643867 -2.06775432
  H -2.55348049  0.29289431 -1.68260413
