13
opt_min/./Reactant_1142_0_opt.xyz
 Cl  2.58977100  1.38691600  0.84261700
  C  1.36066146  0.43893946  0.17798596
  C  1.17669238 -0.87578166  0.17980100
  C -0.16844861 -1.05474183 -0.53719956
  C -1.21306102 -0.50802372  0.44799360
  C -1.02407840  0.80090385  0.44716074
  C  0.12878865  1.02782150 -0.53921856
  O -0.11738610  0.00346752 -1.48133574
  H  1.77562435 -1.65542170  0.59703107
  H -0.36180112 -2.01158004 -1.01151407
  H -1.90688529 -1.10399280  1.00206365
  H -1.51228650  1.56998684  1.00737607
  H  0.23277860  2.00393223 -1.00143251
