24
opt_min/./Reactant_5340_1_opt.xyz
  C -2.05525415 -0.61481573 -1.50333490
  N -2.11319776 -0.13458671 -0.13291288
  C -0.99448740  0.10341712  0.55227710
  C -1.00517234  0.24175334  1.94652655
  N -0.89835235  0.31814185  3.08828084
  C  0.32932723  0.24830521 -0.06146524
  C  1.43093076 -0.37872717  0.52502867
  C  2.69235840 -0.21328583 -0.01274523
  C  2.87683834  0.58734062 -1.12806949
  C  1.79348740  1.23516622 -1.70045107
  C  0.52735622  1.07290490 -1.17345161
  C -3.35863252 -0.00495702  0.38639934
  C -4.46466811 -0.50434111 -0.30675310
  N -5.37424718 -0.95951845 -0.84473852
  C -3.62693689  0.64525424  1.59589525
  N -3.93775165  1.25912645  2.51798459
  H -2.56352326  0.08147758 -2.17046464
  H -2.56701714 -1.57678947 -1.56688016
  H -1.02317671 -0.73996188 -1.81853448
  H  1.28475830 -0.99892925  1.39668046
  H  3.53538686 -0.70955813  0.44307219
  H  3.86452970  0.71647723 -1.54364079
  H  1.93633324  1.87795309 -2.55658376
  H -0.30580621  1.61071731 -1.60253186
