25
opt_min/./Reactant_2438_0_opt.xyz
  C -0.59131422 -2.51503454 -2.38760540
  C  0.29152106 -1.44468622 -1.82317466
  C  1.58024928 -1.35419203 -2.32353201
  N  2.64136259 -1.30655637 -2.77922106
  N -0.13838704 -0.57524079 -0.88097142
  C -1.51857470 -0.70346211 -0.46041843
  C  0.61843838  0.41589033 -0.41938494
  C  0.37460507  1.27160967  0.70455738
  C -0.32654943  0.88323227  1.85903515
  C -0.49494006  1.76141572  2.91092179
  C  0.03243962  3.04065105  2.85440996
  C  0.76361610  3.42681649  1.74114992
  C  0.93991032  2.55679841  0.68691012
  H -1.03860214 -3.12777660 -1.60318100
  H  0.01025801 -3.16330382 -3.02114233
  H -1.39712780 -2.10814846 -3.00469286
  H -1.64944335 -1.56601544  0.19455767
  H -2.15141302 -0.83541891 -1.33804310
  H -1.82657447  0.19797101  0.06252855
  H  1.54253534  0.57343159 -0.95800175
  H -0.69069309 -0.12796640  1.95761494
  H -1.03494312  1.43645395  3.78889697
  H -0.10662230  3.72619169  3.67681489
  H  1.19997567  4.41392187  1.69599025
  H  1.51114935  2.86294713 -0.17716224
