33
opt_min/./Reactant_2751_1_opt.xyz
  C  1.97557460 -2.36383956  2.90296813
  N  1.26886645 -1.69156237  1.83835997
  C  1.50416695 -1.96324223  0.53880122
  O  2.32945777 -2.76111936  0.15693456
  C  0.66537596 -1.11638579 -0.44724298
  O  0.30747197 -1.84663986 -1.59882884
  C -0.47376132 -2.99136674 -1.35019090
  C -0.49221272 -0.47213823  0.15840024
  C -1.30855301  0.37101324  0.41471355
  C -1.97397328  1.66720502  0.43109801
  C -3.40941684  1.54574695  0.26252632
  N -4.53496672  1.42372122  0.11950277
  C -1.69216882  2.31194147  1.70328074
  N -1.43313821  2.78911339  2.70739898
  C -1.33444736  2.46308443 -0.75021167
  C  0.19894648  2.33077741 -0.80881209
  C  0.75216640  1.16834332 -1.66878194
  C  1.54106949  0.07974618 -0.91865969
  H  2.90376840 -2.75836414  2.49179048
  H  2.19459141 -1.65972320  3.70391879
  H  1.38825894 -3.19467362  3.30266745
  H  0.53765293 -1.04185538  2.08630668
  H -0.72229066 -3.39902943 -2.32781798
  H -1.39697617 -2.73233597 -0.81552566
  H  0.07994317 -3.73999761 -0.77539552
  H -1.61589674  3.51356461 -0.64152229
  H -1.77254659  2.09025599 -1.67875792
  H  0.59042662  2.25781528  0.20863537
  H  0.57801471  3.26735752 -1.22208788
  H  1.42404293  1.59327206 -2.41546936
  H -0.05782723  0.68223883 -2.21367851
  H  2.04485560  0.50729212 -0.04976891
  H  2.29549495 -0.34772556 -1.57958534
