27
opt_min/./Reactant_2739_0_opt.xyz
 Br -0.25740200  2.75535300  1.21440800
  C -0.79217099  1.28634987  0.15723832
  C -0.05822946  0.24168726 -0.24779061
  C  1.34112306 -0.07656059 -0.00718133
  C  2.11523241 -0.59267499 -1.04934430
  C  3.45051514 -0.88438138 -0.85297996
  C  4.03560814 -0.67471342  0.38886285
  C  3.27201338 -0.17122377  1.43059626
  C  1.93623534  0.12687964  1.23689112
  C -1.03014144 -0.65577839 -0.99639986
  C -1.93580399 -1.27102812  0.09460626
  C -2.76676425 -0.05973021  0.57417573
  C -2.21645119  1.09657413 -0.29339213
  C -1.97487200  0.37787310 -1.62669454
  H  1.67771075 -0.74840506 -2.02481261
  H  4.04699020 -1.27593354 -1.66291912
  H  5.07976018 -0.90355893  0.53956913
  H  3.72691666 -0.01391947  2.39587905
  H  1.34745355  0.50745199  2.05971006
  H -0.57795133 -1.38439450 -1.66808524
  H -2.56881937 -2.05042368 -0.32206878
  H -1.34622620 -1.70857126  0.89406529
  H -3.82502765 -0.20311570  0.37842617
  H -2.64053738  0.13571353  1.63416046
  H -2.82327234  2.00183687 -0.31643041
  H -2.87645167 -0.06772926 -2.03873528
  H -1.48343472  1.00755657 -2.36334863
