26
opt_min/./Reactant_4820_0_opt.xyz
  C -2.28656795  0.69521912  0.99642303
  C -2.61025487  0.53680336 -0.46322737
  O -3.71131797  0.79159504 -0.91001173
  C -1.54690528  0.06392376 -1.36082300
  C -1.90131885 -0.04020060 -2.71644517
  N -2.19207090 -0.11174793 -3.82556865
  N -0.28388001 -0.24359143 -1.02422793
  C  0.58467541 -0.68769723 -2.11973375
  N  0.10956011 -0.22368734  0.18562691
  C  1.41505396 -0.31468320  0.59318677
  C  2.46298426  0.42184221  0.02406844
  C  3.72588950  0.37349091  0.57846312
  C  3.97700187 -0.41175045  1.69200562
  C  2.94247775 -1.13076753  2.27063786
  C  1.67056724 -1.07522902  1.74003698
  H -3.16581656  1.08076365  1.50634610
  H -1.99707437 -0.26012654  1.42640003
  H -1.45293000  1.38129451  1.12794395
  H  1.47911275 -1.14968054 -1.70497717
  H  0.04814986 -1.41239447 -2.73191701
  H  0.86552724  0.15346436 -2.75237794
  H  2.26762279  1.06966764 -0.81911657
  H  4.52157613  0.95492391  0.13651338
  H  4.96947301 -0.45246072  2.11330575
  H  3.12792336 -1.73459055  3.14640447
  H  0.86063570 -1.63042221  2.18658136
