18
opt_min/./Reactant_2203_0_opt.xyz
  C  0.88948052  0.11437305 -4.47098443
  O  0.61611986  0.25514194 -3.08201194
  C  0.35916627 -0.86610341 -2.40718922
  O  0.35628645 -1.99183555 -2.84547344
  C  0.09309439 -0.60697304 -1.03607359
  N -0.18132917 -0.57081226  0.10369039
  C -0.37996612 -0.39654753  1.36750816
  C -0.67792011 -1.50790484  2.16680153
  N -0.95348097 -2.39326544  2.84403763
  C -0.38931458  0.99353007  1.87772527
  C -0.20488710  1.13361815  3.36174105
  O -0.51261301  1.93053082  1.12271329
  H  1.20756958 -0.90678958 -4.69031061
  H  1.67518259  0.82427092 -4.71817903
  H -0.01369438  0.34418822 -5.03894115
  H -0.24663310  0.17750692  3.87500357
  H  0.76177131  1.60257798  3.53955535
  H -0.96812104  1.80058282  3.75821323
