35
opt_min/./Reactant_2725_0_opt.xyz
  C -0.84815829 -3.14286322 -2.24629003
  N -0.82810930 -2.10907930 -1.23923937
  C -0.73599422 -0.80337256 -1.54059970
  O -0.70605744 -0.34501709 -2.65619832
  C -0.70626444  0.08172280 -0.25958277
  C -2.08362682 -0.08752097  0.36623672
  O -2.32140209 -0.84967317  1.26749824
  O -2.98108669  0.66549542 -0.26072981
  C -4.33589043  0.58434301  0.16748044
  C  0.37353786 -0.34597626  0.58845836
  C  1.42063922 -0.39847970  1.17245495
  C  2.77252203  0.01199341  1.52025273
  C  2.79059232  0.65139319  2.82438164
  N  2.79386173  1.16860213  3.84179397
  C  3.67137790 -1.12916779  1.53282321
  N  4.32240298 -2.06690551  1.53874070
  C  3.17488801  1.02797844  0.40540941
  C  2.12589726  2.11550085  0.10327826
  C  1.07887427  1.84796051 -1.00541611
  C -0.37858251  1.55267975 -0.60607338
  H  0.10640958 -3.67281175 -2.28040226
  H -1.64519969 -3.85514000 -2.03532892
  H -1.02608610 -2.66780174 -3.20965713
  H -0.84323259 -2.39336347 -0.27064754
  H -4.93834580  0.24518181 -0.67504983
  H -4.65515884  1.58024814  0.47399270
  H -4.42459382 -0.11415095  1.00112281
  H  3.38737961  0.46596332 -0.50684153
  H  4.10025025  1.51094123  0.73272388
  H  1.62748168  2.42799419  1.02324274
  H  2.71396440  2.97166387 -0.23755029
  H  1.43876465  1.08630164 -1.69748949
  H  1.01037453  2.77703434 -1.57725240
  H -0.65171662  2.18692487  0.23951628
  H -1.01509524  1.80914198 -1.45484356
