22
opt_min/./Reactant_2098_0_opt.xyz
  C  3.43672004 -1.32365799 -1.60282492
  N  2.43538056 -0.32902957 -1.30415558
  C  1.29815460 -0.63889844 -0.62806263
  O  1.08813024 -1.75244988 -0.19312933
  C  0.34417331  0.48858216 -0.46424303
  N  0.61860229  1.60007738 -1.00787424
  N  0.90607575  2.58696234 -1.48565715
  C -0.92925723  0.35418072  0.25923478
  C -1.11087590 -0.62578308  1.23200477
  C -2.31823354 -0.72223418  1.89898062
  C -3.35083564  0.15682200  1.62158071
  C -3.17291680  1.14018793  0.66276107
  C -1.97435645  1.24072177 -0.01574238
  H  4.42133274 -0.97125517 -1.29206324
  H  3.18314034 -2.22785421 -1.05280782
  H  3.45593459 -1.54875485 -2.67238833
  H  2.57201109  0.58484716 -1.70464066
  H -0.31503746 -1.31567641  1.45575663
  H -2.45176834 -1.48895482  2.64828786
  H -4.29102829  0.07812055  2.14744949
  H -3.97070623  1.83321568  0.43767484
  H -1.84920219  2.00456518 -0.77090406
