24
opt_min/./Reactant_579_1_opt.xyz
  C  3.96222000  0.38561600 -0.17726300
  N  2.59292296 -0.07333281 -0.28508984
  C  1.61593131  0.49944664  0.45890730
  O  1.82753573  1.37727892  1.27271090
  C  0.27304559 -0.09315273  0.27601521
  C -0.19395392 -1.06163561 -0.51663712
  F  0.47679256 -1.78258347 -1.43336631
  C -1.67832104 -1.18801890 -0.35180411
  C -2.25793979  0.09764822 -0.99960622
  C -1.75861305  1.20849769 -0.05929880
  C -0.95133102  0.42529894  1.00337980
  C -1.79622701 -0.84415020  1.13288148
  H  4.13195235  1.26464477 -0.80542928
  H  4.16535270  0.66617801  0.85422705
  H  4.63561196 -0.40872967 -0.48990041
  H  2.40281503 -0.79262466 -0.96039668
  H -2.11713125 -2.11737230 -0.71062877
  H -3.34425000  0.04687157 -1.02605345
  H -1.90610125  0.22197362 -2.02217079
  H -1.13080248  1.93908784 -0.56418209
  H -2.58495998  1.74255182  0.40439873
  H -0.72374650  0.99038572  1.90442925
  H -1.34256026 -1.59112914  1.78190494
  H -2.81537743 -0.65362144  1.45866692
