34
opt_min/./Reactant_1581_1_opt.xyz
  C  3.83428049  0.26262949  0.14811100
  C  2.49666756  0.77539222  0.60704346
  O  2.35315595  1.86917862  1.07774444
  C  1.28258426 -0.16940649  0.42118301
  C  1.48994724 -1.41047121  1.28672610
  F  2.38394314 -2.27527291  0.76852778
  F  1.94005135 -1.10249955  2.51017969
  F  0.37109043 -2.12555881  1.46504318
  C  0.04597128  0.49437342  0.79243294
  C -1.05737487  0.96219698  0.73496240
  C -2.37194472  1.13332957  0.14060710
  C -3.47171528  0.60135535  1.06106051
  C -2.61507369  2.59839065 -0.22078920
  C -2.24042486  0.26922330 -1.15108004
  C -1.58846440 -1.11148078 -0.92016748
  C -0.16127977 -1.36697220 -1.44974591
  C  1.06172768 -0.49630763 -1.07696471
  H  3.80740565 -0.75134798 -0.23294702
  H  4.21982969  0.93391112 -0.61804797
  H  4.52349988  0.31376106  0.99083271
  H -3.63698613  1.28924166  1.88687966
  H -3.19380460 -0.36598066  1.47255479
  H -4.40412234  0.48778295  0.51120771
  H -2.81368632  3.18364778  0.67367907
  H -1.74284850  3.01493505 -0.71976649
  H -3.47224654  2.68297195 -0.88750434
  H -1.67478798  0.83232588 -1.89361494
  H -3.24146376  0.11726630 -1.55870892
  H -1.62320826 -1.35883865  0.13816345
  H -2.20490635 -1.86108230 -1.42514402
  H -0.19817983 -1.34244235 -2.54184326
  H  0.06734010 -2.39471856 -1.15383075
  H  0.98695247  0.46509738 -1.59038390
  H  1.93048418 -1.02630272 -1.47589626
