21
opt_min/./Reactant_3019_1_opt.xyz
  C -1.53884156 -1.14792618  3.24618607
  N -0.72405403 -0.53631488  2.22588915
  C -1.00033729 -0.77380881  0.92223598
  O -1.90291752 -1.49407824  0.56046451
  C -0.09865012 -0.05789419 -0.04455818
  O  0.87093175  0.73312850  0.25284847
  N  1.29073893  1.01026522  1.50310784
  C  2.29366320  1.83392156  1.61263733
  N  3.14807485  2.55000533  1.90559771
  C -0.33585456 -0.20285144 -1.53124607
  O -1.26193540 -0.81989373 -1.99398009
  N  0.59796591  0.42347479 -2.28779646
  C  0.54927106  0.37652614 -3.72865533
  H -2.54743363 -0.72917998  3.22843459
  H -1.08779435 -0.97502380  4.21857169
  H -1.62171094 -2.21943049  3.05568010
  H  0.05908567  0.05160376  2.48637823
  H  1.37118416  0.91118162 -1.86536445
  H  0.73252274  1.36806724 -4.13982349
  H  1.29409342 -0.31959174 -4.12131378
  H -0.44162468  0.03210740 -4.01943593
