15
opt_min/./Reactant_3959_0_opt.xyz
  C  2.29749900 -0.38458597  0.18917505
  O  1.91661079  0.74486609 -0.27250356
  C  0.71886941  1.16701650 -0.60669915
  C  0.65843825  2.45119675 -1.17381325
  N  0.60813520  3.50111584 -1.63794488
  C -0.55590929  0.41199882 -0.48334541
  O -1.43932414  0.49345756 -1.31049223
  N -0.63937605 -0.39649658  0.62007922
  C -1.88104080 -1.07808825  0.91767564
  H  1.63608886 -1.22363130  0.33704079
  H  3.35866219 -0.49055730  0.32806141
  H -0.06083653 -0.18423955  1.42114303
  H -2.37992302 -1.28908220 -0.02654268
  H -1.66583796 -2.00948029  1.43958993
  H -2.54524142 -0.46177607  1.53005827
