29
opt_min/./Reactant_5755_1_opt.xyz
  C  2.10285200 -1.73614300 -0.25748200
  C  2.45176544 -0.34991913 -0.63844483
  N  1.91438064  0.73749498 -0.13778870
  C  2.58781213  1.98473360 -0.47807423
  C  0.77701110  0.77097645  0.63088295
  C  0.64546318  1.78617493  1.63523811
  C -0.72632261  1.98975589  2.26294097
  O  1.58619777  2.49078025  2.00487042
  C -0.25459143 -0.23555437  0.37766719
  C -0.91461069 -0.90010816  1.41261009
  C -1.92061811 -1.80763336  1.14629867
  C -2.29302110 -2.07865674 -0.16009067
  C -1.64268848 -1.43512540 -1.19956925
  C -0.63481856 -0.52759283 -0.93572038
  H  2.98360392 -2.36797675 -0.36760268
  H  1.30529516 -2.15342905 -0.88323024
  H  1.75897029 -1.76919524  0.77670744
  H  3.22796851 -0.20877696 -1.37495989
  H  2.74715382  2.02101845 -1.55691744
  H  1.98694161  2.83589634 -0.16890308
  H  3.54976547  2.04818389  0.02955790
  H -0.85963485  3.05714650  2.43326918
  H -1.52835189  1.60659532  1.63944518
  H -0.75849479  1.49973130  3.23526942
  H -0.61514088 -0.71866296  2.43268482
  H -2.41625935 -2.31296273  1.96268525
  H -3.08046189 -2.78820004 -0.36720222
  H -1.92481557 -1.63926100 -2.22379581
  H -0.14564721 -0.02070301 -1.75676264
