25
opt_min/./Reactant_5373_1_opt.xyz
  C  2.22739095  2.40498204 -3.12776900
  N  1.61819310  1.62470400 -2.07791737
  C  2.23913336  1.44266235 -0.89536241
  O  3.32974965  1.89318411 -0.61550077
  C  1.44400997  0.61973426  0.08038036
  C  1.90451924  0.52212161  1.40171581
  N  2.26495245  0.49192466  2.49308637
  O  0.34883505  0.10064169 -0.38116938
  C -0.60439411 -0.62307066  0.14889819
  C -0.52648275 -1.34407974  1.43879952
  C  0.73475567 -2.14682630  1.65788509
  O -1.46011041 -1.38985860  2.20656514
  C -1.77303951 -0.69795999 -0.76147775
  C -2.95785392 -1.47401281 -0.27981085
  O -1.71591158 -0.13800443 -1.83851125
  H  1.45545127  2.85154319 -3.74840842
  H  2.87505953  1.78174548 -3.74866964
  H  2.83734620  3.18590526 -2.67328719
  H  0.70194711  1.23326727 -2.24049176
  H  1.47185549 -2.03033672  0.86918415
  H  1.17789625 -1.88163084  2.61494558
  H  0.43991462 -3.19504018  1.71003152
  H -2.68561067 -2.51745787 -0.13641180
  H -3.28920766 -1.09084052  0.68248755
  H -3.76027670 -1.40253829 -1.00743259
