28
opt_min/./Reactant_1332_0_opt.xyz
  C  0.44399600  2.26488600  1.15073700
  N -0.33717040  1.40377614  0.52274195
  C -1.60791363  1.94432797  0.05462325
  C -0.07954478  0.10623293  0.29710087
  C  1.23051035 -0.53111984  0.29826315
  O  1.34940652 -1.74803781  0.36224253
  N  2.33110477  0.27586963  0.15861838
  C  3.64837528 -0.28808499  0.01172351
  C -1.19621139 -0.82763513  0.00464016
  C -1.38585330 -1.34065771 -1.27404195
  C -2.40622989 -2.24019438 -1.52434661
  C -3.24882996 -2.63863065 -0.50057288
  C -3.06161646 -2.14060396  0.77797706
  C -2.04062719 -1.24302669  1.03081656
  H  1.32284119  1.93458528  1.66426805
  H  0.18264952  3.30436503  1.15348965
  H -1.42351313  2.63117460 -0.77273461
  H -2.10298179  2.48902158  0.85723932
  H -2.25511060  1.14189362 -0.28968721
  H  2.21485753  1.24925519 -0.07212375
  H  3.93189718 -0.39728630 -1.04045074
  H  3.63057991 -1.27623926  0.46880791
  H  4.38141850  0.34213407  0.51616119
  H -0.71951986 -1.04121967 -2.07044882
  H -2.54352255 -2.63349749 -2.52120676
  H -4.04440323 -3.34275448 -0.69560701
  H -3.70793747 -2.45988494  1.58286211
  H -1.88631991 -0.86240575  2.03038923
