23
opt_min/./Reactant_3935_1_opt.xyz
  C -3.67498100  1.26072100  0.80722000
  C -2.28217797  0.65471532  0.78425650
  O -2.04941931 -0.40778275  1.36015371
  C -1.31139524  1.41351917  0.07622126
  N -0.01447359  1.06400932 -0.04290442
  C  0.60779163 -0.00261138  0.40993279
  C  2.00026270 -0.25616257  0.21134709
  C  2.53623682 -1.45280714  0.71530929
  C  3.86959273 -1.76046844  0.54903042
  C  4.70985022 -0.88793906 -0.12612454
  C  4.20050583  0.29999006 -0.62839760
  C  2.86812472  0.61582901 -0.46469554
  H -3.78142319  1.85866489  1.71101992
  H -4.41214889  0.46384213  0.84499663
  H -3.85601692  1.89352744 -0.05631503
  H -1.59081322  2.33693575 -0.40230726
  H  0.56321983  1.72399931 -0.56047149
  H  0.00789882 -0.71028164  0.96117756
  H  1.88347339 -2.13324210  1.24050727
  H  4.26126066 -2.68518532  0.94646815
  H  5.75302002 -1.13042008 -0.26092978
  H  4.85130859  0.98411015 -1.15325753
  H  2.50689066  1.55392794 -0.86612318
