25
opt_min/./Reactant_1592_0_opt.xyz
  C -1.92208700  4.09785800 -0.31343500
  O -1.30279988  2.82251465 -0.22356677
  C -2.11058126  1.72918569 -0.32061998
  O -3.29620817  1.80275055 -0.48688279
  C -1.31050411  0.49864004 -0.20751993
  N -0.00103011  0.65636092 -0.01207837
  C  1.02437881 -0.14775698  0.12912362
  C  2.30642233  0.50546633  0.32400513
  C  3.50796044 -0.38991541  0.45804971
  O  2.37795489  1.72536042  0.33277563
  C -2.00007545 -0.79193270 -0.31269670
  O -3.18022915 -0.93356246 -0.49032256
  O -1.14287200 -1.84063492 -0.20829427
  C -1.71558691 -3.13707479 -0.31636093
  H -1.84862282  4.59257686  0.65552112
  H -2.97035873  3.97958935 -0.59311940
  H -1.38887342  4.67501821 -1.06791355
  H  0.28885888  1.64983140  0.03952670
  H  0.90864774 -1.21490379  0.10176107
  H  4.03035125 -0.41517554 -0.49722681
  H  4.19211108  0.02653147  1.19317960
  H  3.22789092 -1.40040402  0.73617031
  H -1.59822474 -3.50353546 -1.33777893
  H -2.77687942 -3.09673705 -0.06614695
  H -1.18050850 -3.78313639  0.37736016
