29
opt_min/./Reactant_5505_0_opt.xyz
  C  4.99658700  0.23455100 -1.14046900
  N  3.61147331 -0.02163481 -0.81362125
  C  3.28247099 -0.60924427  0.38182975
  O  4.10048105 -0.82927839  1.24559087
  C  1.84995552 -0.90813609  0.52611851
  C  1.29925764 -2.08896149  1.10228672
  O  1.75060850 -3.11670382  1.52487915
  O -0.10516819 -1.88836346  1.01678745
  C -0.35041254 -0.69881629  0.47480034
  C -1.71060859 -0.24321991  0.33741333
  C -2.67583559 -0.82245111  1.17440120
  C -3.99663124 -0.43641123  1.09524197
  C -4.39316324  0.52755709  0.18095783
  C -3.45210232  1.08674159 -0.66832393
  C -2.12459839  0.70989291 -0.60136914
  N  0.80063090 -0.09847099  0.16746790
  C  0.94750261  1.27239960 -0.25572383
  H  5.06978822  1.12806141 -1.76033632
  H  5.53200864  0.38465629 -0.20419066
  H  5.45413849 -0.60794531 -1.66683009
  H  2.97723030 -0.09321163 -1.59296042
  H -2.36277494 -1.57121864  1.88392680
  H -4.72479917 -0.88870249  1.75138619
  H -5.42667738  0.83098091  0.12330163
  H -3.75571572  1.82170490 -1.39956469
  H -1.42886552  1.13037423 -1.30913738
  H  1.91744327  1.63874454  0.07841593
  H  0.88865192  1.35839392 -1.34265229
  H  0.15538861  1.87569645  0.18946207
