21
opt_min/./Reactant_1312_0_opt.xyz
  C -4.80468592 -0.67718247 -0.09274730
  O -3.40815645 -0.42494518 -0.05862382
  C -2.95397119  0.53964746 -0.89818097
  O -3.64329465  1.17858250 -1.66362594
  C -1.57178953  0.71313317 -0.76187361
  N -0.40303613  0.87460950 -0.72230942
  C  0.85183311  1.10421059 -0.65267372
  C  1.50847751  2.13750624 -1.51149712
  C  1.65291207  0.33701047  0.30151930
  O  2.83921813  0.50344178  0.47013121
  O  0.89955259 -0.53937965  0.99482275
  C  1.57015655 -1.31660302  1.97816689
  H -5.15291658 -0.74793405  0.93675785
  H -5.31815081  0.13332270 -0.61538266
  H -4.98543238 -1.61998204 -0.61304618
  H  0.99309887  3.09390988 -1.44715846
  H  1.51659998  1.81697955 -2.55384839
  H  2.53471702  2.25170045 -1.17092181
  H  1.52641737 -0.80120589  2.93983460
  H  2.61102787 -1.46676053  1.68723941
  H  1.04136462 -2.26524644  2.04044907
