10
opt_min/./Reactant_3640_0_opt.xyz
  O  2.88813886 -0.84774212  0.48997443
  C  2.68168434 -0.14624301 -0.38986412
  O  2.49208104  0.54764880 -1.27844371
  C -0.31413589 -0.29709887  0.46454406
  C -0.73310256  0.41968930 -0.39372406
  C -3.79771992  0.43158344  0.24994253
  O -3.66462452 -0.25930714  1.15124611
  O -3.94723390  1.13751257 -0.63824416
  H  0.04780431 -0.92551772  1.22419431
  H -1.09294205  1.05056669 -1.15241475
