19
opt_min/./Reactant_2362_1_opt.xyz
  C  3.00511000 -1.04923900  0.56568901
  O  1.66075378 -0.67053735  0.29654503
  C  1.37006618  0.64956670  0.42632670
  O  2.17766761  1.47875387  0.74835264
  C -0.02681122  0.93120988  0.13529496
  C -0.64256024  2.23255995  0.25985646
  O -0.25549572  3.31447370  0.57620893
  O -1.99588860  2.01207706 -0.10459342
  C -2.14143006  0.72496450 -0.40631205
  C -3.35460576  0.16849808 -0.81611183
  N -4.34458838 -0.30940065 -1.15161413
  N -0.99135097  0.06341052 -0.27287303
  C -0.85585374 -1.34466053 -0.53442821
  H  3.56381196 -1.10102373 -0.37024225
  H  2.97019272 -2.02944787  1.03744521
  H  3.47273583 -0.31686235  1.22586109
  H -0.03263058 -1.51442853 -1.22686579
  H -0.63166192 -1.87338984  0.39265061
  H -1.78757430 -1.72005225 -0.95573743
