23
opt_min/./Reactant_1852_1_opt.xyz
  C  2.62168336 -0.00829719  0.46579549
  C  1.44361256 -0.97975786  0.36305004
  C  0.29368434 -0.52176790  1.10440054
  C -0.79825779 -0.05547539  1.28268205
  C -2.09035134  0.48561642  0.99811123
 Cl -2.69213414  1.61321870  2.25893479
 Cl -3.26690817 -0.87362156  0.85671140
  C -2.00760103  1.18378589 -0.36249066
  C -1.37972845  0.32926305 -1.48627835
  C  0.16344046  0.20556972 -1.59051624
  C  0.85810790 -1.07189647 -1.07048190
  H  3.23859170 -0.07066734 -0.42710811
  H  2.27206548  1.01482806  0.57386529
  H  3.23775592 -0.24783320  1.32823340
  H  1.75937180 -1.97657537  0.68050404
  H -1.42928179  2.10645213 -0.25985656
  H -3.02699833  1.43686502 -0.65647028
  H -1.85513269 -0.65147854 -1.50373985
  H -1.67866314  0.84664403 -2.40155562
  H  0.62704344  1.08900118 -1.15422764
  H  0.37955592  0.23446230 -2.66035803
  H  1.68177517 -1.31748356 -1.74483245
  H  0.14803568 -1.90048591 -1.10311371
