23
opt_min/./Reactant_1480_0_opt.xyz
  C  3.27682018  1.47011443 -1.04541230
  C  2.43883529  1.85333598 -2.24483454
  O  2.90423300  2.41886885 -3.21427497
  C  1.03297314  1.47874229 -2.16524435
  C  0.14542019  1.78643608 -3.20609306
  N -0.60408403  2.02918154 -4.04518741
  O  0.61726849  0.82473812 -1.08302878
  C -0.59031414  0.42689269 -0.86459760
  C -0.92059605 -0.28305769  0.32850488
  C -2.24699499 -0.68472218  0.54688386
  C -2.58616793 -1.37080929  1.69373243
  C -1.61873006 -1.66875979  2.64261963
  C -0.30313746 -1.27758442  2.43838307
  C  0.04952811 -0.59199752  1.29581416
  H  4.19106972  2.05775263 -1.05287185
  H  2.74138435  1.62557916 -0.11251951
  H  3.54461747  0.41672546 -1.12768265
  H -1.36398456  0.64052274 -1.59648243
  H -2.99831834 -0.45205875 -0.19233577
  H -3.60928753 -1.67723347  1.85273304
  H -1.88880219 -2.20481335  3.53954653
  H  0.44915735 -1.50976430  3.17691076
  H  1.07334740 -0.29041033  1.13620928
