20
opt_min/./Reactant_2308_1_opt.xyz
 Cl -2.87456940  0.28826300  1.62377562
  C -1.61365806 -0.97011188  1.43408766
 Cl -2.11026706 -2.41357003  2.37690569
  C -0.33836251 -0.45717373  1.83550390
  C  0.78400705 -0.03497679  1.73279959
  C  1.85890566  0.54921465  0.99138362
 Cl  2.10662568  2.26811988  1.45582307
 Br  3.55101451 -0.43197200  1.25361300
  C  1.41450620  0.44022125 -0.48279666
  C -0.04325198  0.89640984 -0.70603669
  C -1.10175183 -0.18213729 -1.01258480
  C -1.42658583 -1.34282082 -0.04409268
  H  1.53817025 -0.59679227 -0.79802430
  H  2.09276271  1.04666718 -1.08505060
  H -0.05040071  1.55418030 -1.57867849
  H -0.37058864  1.50221435  0.13683495
  H -0.83384193 -0.65673326 -1.95806993
  H -2.02903402  0.37170650 -1.17412941
  H -0.63505511 -2.09393581 -0.08544360
  H -2.34696834 -1.80660490 -0.40352449
