25
opt_min/./Reactant_2127_0_opt.xyz
  C  4.11369500 -0.36601500 -0.08296700
  N  2.67993327 -0.48812156 -0.00181046
  C  2.08600111 -1.69315721  0.17414414
  O  2.68444907 -2.73895968  0.24842326
  N  0.67971253 -1.70435693  0.25449526
  O  0.13178362 -0.51792442  0.19696570
  C -1.13615745 -0.26836620  0.25271247
  C -1.45277627  1.18435249  0.16771997
  O -2.54574362  1.67075214  0.19890875
  O -0.31377134  1.89830202  0.06273468
  C -0.48200664  3.30894640 -0.02069581
  C -2.22427402 -1.27696390  0.38731560
  O -3.39073274 -0.99793493  0.46895135
  O -1.71834857 -2.50794743  0.42060733
  C -2.62467481 -3.59437775  0.55734282
  H  4.37739820  0.46703989 -0.73197403
  H  4.51424376 -1.29459968 -0.48997680
  H  4.55255803 -0.20576948  0.90628298
  H  2.12203181  0.35116886 -0.04001173
  H  0.50180985  3.74427893  0.13777249
  H -0.86670466  3.58261039 -1.00494866
  H -1.18491232  3.65130699  0.74074138
  H -3.63442894 -3.22180126  0.74143850
  H -2.28252034 -4.20582827  1.39142706
  H -2.59990482 -4.17969063 -0.36245010
