29
opt_min/./Reactant_2528_0_opt.xyz
  C  5.08280600  0.23752800 -0.91451900
  N  3.67343696  0.04366575 -0.65497579
  C  3.28133770 -0.72508301  0.40771109
  O  4.06180505 -1.17574548  1.21831031
  C  1.82849101 -0.92120401  0.53341928
  O  1.36351684 -1.99592914  1.17235431
  C -0.03154256 -1.91483367  1.24113912
  O -0.69623566 -2.77315917  1.76837252
  C -0.36828967 -0.69587276  0.57639893
  C -1.70692623 -0.19539727  0.35901456
  C -2.69294525 -0.49861436  1.30529867
  C -3.98830859 -0.05645539  1.13406219
  C -4.33223093  0.69400199  0.02008503
  C -3.37152550  0.97801501 -0.93524995
  C -2.07145831  0.53634969 -0.77420075
  N  0.80593983 -0.13229922  0.17192040
  C  0.94595138  1.20449239 -0.34987610
  H  5.22947907  1.18870427 -1.42429581
  H  5.59931468  0.24377434  0.04362883
  H  5.49885644 -0.56876306 -1.52569621
  H  3.06177035  0.15161489 -1.44785384
  H -2.42366430 -1.09091229  2.16412633
  H -4.73702777 -0.29776505  1.87461834
  H -5.34441184  1.04438032 -0.11123086
  H -3.63857888  1.54015280 -1.81846133
  H -1.35383090  0.72624189 -1.55804417
  H  1.86353975  1.64936073  0.03351634
  H  0.97484264  1.20357000 -1.44135522
  H  0.09022550  1.79776237 -0.02553413
