21
opt_min/./Reactant_1665_0_opt.xyz
  C  3.18927418  0.72719187 -1.11698759
  N  2.02125670  0.22566027 -0.43819943
  C  0.84989845  0.88328941 -0.46068101
  O  0.72191336  1.99407585 -0.96694299
  C -0.29046553  0.18340515  0.19130549
  N -1.46843985  0.82852694  0.31628139
  C -1.82451651  2.05409132 -0.00815905
  C -3.11199591  2.50015389  0.26827768
  N -4.17908822  2.86749994  0.49840907
  C -0.23368884 -1.19005234  0.64264695
  C -1.50457488 -1.81001149  1.20340455
  O  0.78246630 -1.87561844  0.58825987
  H  3.46478621  0.07498199 -1.94811507
  H  4.02659526  0.78762183 -0.42020292
  H  2.96177089  1.72141915 -1.49903929
  H  2.02587641 -0.73346287 -0.10189618
  H -2.20411262  0.27125903  0.75250240
  H -1.11522902  2.70281803 -0.50269578
  H -1.85963531 -1.28429203  2.08884416
  H -1.26932018 -2.83223260  1.48960044
  H -2.29063690 -1.84079804  0.44943614
