31
opt_min/./Reactant_5105_1_opt.xyz
  C -0.79953800 -3.05126900 -1.71476100
  C -1.82726937 -2.11750328 -1.11450705
  O -2.99481986 -2.45744603 -1.09725147
  C -1.34495696 -0.81511717 -0.59499096
  O -0.03295628 -0.80274450 -0.53840670
  N  0.70417589  0.24964461 -0.17831597
  C  2.04481423  0.00215524 -0.09625278
  C  2.65282145 -1.26055138 -0.15939236
  C  4.02129553 -1.37641043 -0.05014997
  C  4.81266533 -0.25078555  0.12786815
  C  4.21958674  1.00116061  0.20433474
  C  2.85216206  1.13319049  0.09719054
  C -2.21831093  0.27384686 -0.20473553
  C -1.70688695  1.51976781  0.20034815
  C -2.55060915  2.54546959  0.57670828
  C -3.92435119  2.37571790  0.56037420
  C -4.44658042  1.15545202  0.16133838
  C -3.61585876  0.12118674 -0.21669409
  H  0.22404427 -2.72364837 -1.58492842
  H -0.93597497 -4.03848190 -1.27663588
  H -1.01266482 -3.13798316 -2.78008818
  H  2.04045629 -2.14256560 -0.27327930
  H  4.47948369 -2.35406096 -0.09962396
  H  5.88381450 -0.35055024  0.21351596
  H  4.83249619  1.87891302  0.34921860
  H  2.38000918  2.10120023  0.15034559
  H -0.64401282  1.68040050  0.21942306
  H -2.12655708  3.49144347  0.88325070
  H -4.57910931  3.18338379  0.85240964
  H -5.51611112  1.00665210  0.14360452
  H -4.04991911 -0.81475838 -0.51929657
