44
opt_min/./Reactant_2741_0_opt.xyz
  C  4.37163168 -3.46196070  0.20408596
  N  3.54649608 -2.28512424  0.09288992
  C  2.20622666 -2.34460205  0.16114337
  O  1.58790040 -3.36938714  0.36001362
  C  1.49740836 -0.97464483  0.05959971
  C  2.02951091 -0.11438016 -1.09461644
  O  3.15503966 -0.21511599 -1.55380570
  N  1.15627364  0.80150635 -1.54577442
  C  1.48593890  1.71451290 -2.61418060
  C  0.06355283 -1.16447775 -0.00213191
  C -1.10031558 -1.12697584  0.29332791
  C -2.26728002 -0.62420793  0.98851954
  C -3.23945761  0.12233506  0.10569092
  C -4.48654780  0.46202115  0.61690845
  C -5.38565814  1.19091256 -0.13908335
  C -5.04992897  1.59279275 -1.42100959
  C -3.81616585  1.24842303 -1.94361472
  C -2.91697807  0.51896774 -1.18409637
  C -1.64115694  0.31268677  2.06318047
  C -0.58045039  1.27399347  1.48646511
  C  0.92009855  1.03038873  1.76424036
  C  1.69501858 -0.26946342  1.42956880
  H  5.10603491 -3.33287603  1.00167045
  H  4.89209019 -3.66406233 -0.73522291
  H  3.72220411 -4.30466758  0.43841787
  H  3.99781701 -1.42285543 -0.18261175
  H  0.21887480  0.79419759 -1.17358856
  H  2.12513700  2.52183708 -2.24678033
  H  2.02904188  1.17916751 -3.39470468
  H  0.57346306  2.13985145 -3.02423693
  H -2.79513334 -1.45212656  1.47721020
  H -4.75637662  0.14723438  1.61527488
  H -6.35237983  1.44533626  0.27188917
  H -5.75060035  2.16369031 -2.01219365
  H -3.55045182  1.54559840 -2.94751818
  H -1.96863922  0.22314568 -1.60957333
  H -2.44084315  0.90759684  2.50929843
  H -1.20618092 -0.28825826  2.86171683
  H -0.76740372  1.39838241  0.42085058
  H -0.76762864  2.26139557  1.92428135
  H  1.43470733  1.85223373  1.25412834
  H  1.06815273  1.16215304  2.83949100
  H  2.75428942 -0.01778331  1.54068924
  H  1.45028080 -1.01738247  2.19012455
