30
opt_min/./Reactant_1401_1_opt.xyz
  C  2.55433600 -2.70929800  0.83689200
  N  1.77339211 -1.50533823  0.71855524
  C  2.24738397 -0.39263257  0.10558168
  O  3.34668343 -0.33944677 -0.41346487
  C  1.32484193  0.75166715  0.10232742
  C -0.00408117  0.89383939  0.20494758
  C -1.09964422 -0.05697739  0.27239586
  C -1.09638785 -1.19439135 -0.53792363
  C -2.14850322 -2.08865365 -0.49042888
  C -3.21396284 -1.86762401  0.36799219
  C -3.22630290 -0.74183534  1.17450473
  C -2.18207037  0.16263649  1.12426311
  C -0.22153002  2.42126091  0.11109328
  C  0.08122163  2.75606684 -1.35000807
  C  1.39126933  2.61038190 -1.46248325
  C  1.85474934  2.18778197 -0.06862142
  O  0.94487098  2.90148026  0.75497080
  H  1.99371284 -3.56482427  0.45645477
  H  3.45851854 -2.57125133  0.24631881
  H  2.83174881 -2.89893949  1.87680325
  H  0.87174797 -1.47746308  1.16600152
  H -0.27128311 -1.35475776 -1.21625605
  H -2.14034226 -2.96103957 -1.12713345
  H -4.03454621 -2.56862400  0.40570997
  H -4.05477094 -0.56568426  1.84509275
  H -2.18756818  1.03373883  1.76236886
  H -1.13075403  2.82528824  0.54038867
  H -0.66533205  3.01162831 -2.07405197
  H  2.04472767  2.71610496 -2.30300986
  H  2.89180901  2.35163018  0.19529940
