28
opt_min/./Reactant_5138_1_opt.xyz
  C -2.41290298  0.86723500  0.22677821
  C -2.18685730 -0.52444981  0.71551096
  C -3.23665818 -1.41714898  0.61635462
  N -4.13541871 -2.14055086  0.52537977
  N -1.03151134 -0.91686613  1.31136853
  C -1.12691877 -2.15988968  2.06412201
  C  0.11610567 -0.22488751  1.29262258
  C  1.12432477 -0.43920045  2.38482561
  C  0.47087509  0.63925806  0.18234172
  C  0.13919312  0.27237441 -1.13162383
  C  0.54970400  1.02942955 -2.21000999
  C  1.28310045  2.18791409 -2.01568302
  C  1.60862576  2.57509613 -0.72461384
  C  1.21585626  1.81407977  0.35599159
  H -2.04949959  1.02773313 -0.79405600
  H -1.89341789  1.57578077  0.87273515
  H -3.48128474  1.07921019  0.24083124
  H -0.15622201 -2.47242397  2.43125666
  H -1.81879477 -2.04411734  2.89937594
  H -1.51787327 -2.94102381  1.41006867
  H  0.65236107 -0.53891498  3.36130266
  H  1.80617699  0.40419195  2.42892272
  H  1.73383779 -1.32719064  2.19674554
  H -0.40784293 -0.64491207 -1.30232601
  H  0.29184631  0.71293648 -3.21046698
  H  1.59529883  2.78441906 -2.85930211
  H  2.17351456  3.48153479 -0.56045228
  H  1.46285869  2.15240871  1.35173276
