24
opt_min/./Reactant_5065_0_opt.xyz
  C  3.05513782  2.66481507  2.42881914
  N  2.40099371  1.71958973  1.55936155
  C  1.05098878  1.69489165  1.42795747
  O  0.28065214  2.44478220  1.99187405
  C  0.57203799  0.69160503  0.53138268
  N  0.05846478 -0.11781767 -0.14559252
  C -0.52680761 -0.98780058 -0.89363900
  C  0.25058292 -1.97910419 -1.64389182
  C  1.74343035 -1.93322972 -1.38882285
  O -0.24664535 -2.75853800 -2.41831161
  C -1.99930605 -0.94034363 -0.98471520
  O -2.68981419 -1.69712567 -1.60728379
  O -2.48210909  0.07190414 -0.23103630
  C -3.89418637  0.21068482 -0.21633931
  H  3.55077596  2.15338311  3.25732703
  H  2.28907179  3.33088433  2.82579683
  H  3.79234848  3.24852175  1.87466396
  H  2.97172871  1.05559005  1.06119765
  H  2.20061857 -2.82094410 -1.82178605
  H  2.16088779 -1.05449123 -1.88147423
  H  1.96549366 -1.88557409 -0.32556794
  H -4.36602952 -0.73990254  0.04203235
  H -4.11284220  0.96763013  0.53269132
  H -4.24965802  0.52566735 -1.20034490
