17
opt_min/./Reactant_3834_1_opt.xyz
  C -3.02829600 -0.11699200 -0.28787400
  C -1.81527635 -0.09289337  0.60289304
  O -1.86359672 -0.08427701  1.82524021
  C -0.54460399 -0.02810532 -0.06989788
  N  0.61827528  0.03994304  0.68046540
  C  1.67077994  0.07155689 -0.10181717
  C  3.09266194  0.13388657  0.30004576
  O  1.30392500  0.02922845 -1.36314176
  C -0.14344248 -0.03612081 -1.42689178
  O -0.69720460 -0.08955978 -2.49049784
  H -3.45952679  0.88377469 -0.31433496
  H -3.77461707 -0.79308385  0.12346492
  H -2.75460045 -0.40386543 -1.29765385
  H  0.58776318  0.05365624  1.69289367
  H  3.58594525 -0.81257226  0.07200679
  H  3.60535575  0.91064684 -0.26608637
  H  3.17257741  0.33176575  1.36529417
