22
opt_min/./Reactant_1795_1_opt.xyz
  N  3.22477809  1.71866864  1.86847667
  C  2.55112287  1.20371289  1.10446654
  C  1.63453511  0.54574397  0.18930574
  C  2.27391708  0.30782775 -1.08941232
  N  2.76685696  0.07519662 -2.09203586
  C  0.42282896  1.34078991  0.04111526
  C -0.73744241  1.64891055  0.06583793
  C -2.15343296  1.35037129  0.06074522
  F -2.75311449  1.72072977 -1.12568042
  C -2.21603911 -0.19022327  0.21331678
  C -1.17618782 -0.94446782 -0.64701061
  C  0.07147091 -1.57097895  0.01075544
  C  1.11741280 -0.77963038  0.82512845
  H -2.69434432  1.87768681  0.85732283
  H -3.21207195 -0.49891621 -0.10793250
  H -2.11723376 -0.45725756  1.26563250
  H -1.69452214 -1.80068129 -1.08747373
  H -0.87865439 -0.31370960 -1.48525323
  H -0.26278669 -2.36641395  0.68352670
  H  0.61111021 -2.04003929 -0.81878052
  H  1.97004460 -1.45726042  0.95156927
  H  0.73545381 -0.53792818  1.81990996
