18
opt_min/./Reactant_1115_0_opt.xyz
  C  0.88948052  0.11437305 -4.47098443
  O  0.61611979  0.25514195 -3.08201196
  C  0.35916636 -0.86610339 -2.40718920
  O  0.35628678 -1.99183549 -2.84547336
  C  0.09309443 -0.60697301 -1.03607361
  N -0.18132917 -0.57081220  0.10369045
  C -0.37996615 -0.39654749  1.36750822
  C -0.67792023 -1.50790479  2.16680158
  N -0.95348114 -2.39326538  2.84403768
  C -0.38931455  0.99353011  1.87772535
  C -0.20488712  1.13361810  3.36174116
  O -0.51261286  1.93053091  1.12271340
  H  1.20756975 -0.90678953 -4.69031057
  H  1.67518249  0.82427102 -4.71817903
  H -0.01369439  0.34418808 -5.03894119
  H -0.24663319  0.17750686  3.87500362
  H  0.76177134  1.60257786  3.53955552
  H -0.96812103  1.80058280  3.75821334
