29
opt_min/./Reactant_5164_0_opt.xyz
  N -0.11090494 -2.89291205 -0.16780640
  C -0.48048061 -1.83622876 -0.44372362
  C -0.94007847 -0.57571487 -0.82082638
  N -0.10907476  0.27048823 -1.47689618
  C  1.20949960  0.26685262 -1.61960796
  C  2.17197580 -0.47783081 -0.86125409
  C  3.40650867 -0.77673136 -1.45602702
  C  4.38414285 -1.45087272 -0.75713113
  C  4.16975507 -1.81984220  0.56149454
  C  2.97316824 -1.49240560  1.17781247
  C  1.98110636 -0.83574036  0.48056143
  C -2.33286631 -0.23522243 -0.63554107
  C -2.81835049  1.06483663 -0.82775578
  C -4.15824970  1.35023247 -0.65432400
  C -5.04650851  0.35885935 -0.27277181
  C -4.57730400 -0.92856677 -0.05847704
  C -3.24332871 -1.22470222 -0.23660692
  H -0.60345076  1.00651881 -1.97626788
  H  1.58512869  0.89926446 -2.41216973
  H  3.57655994 -0.48866751 -2.48353183
  H  5.32098224 -1.69054805 -1.23842348
  H  4.93486860 -2.35125682  1.10683531
  H  2.81003685 -1.75454263  2.21210319
  H  1.07272169 -0.55715066  0.99211727
  H -2.15061015  1.87620179 -1.08940248
  H -4.50959085  2.36018347 -0.80985807
  H -6.09202315  0.58941212 -0.13553578
  H -5.26043194 -1.70740273  0.24714848
  H -2.88320003 -2.23011313 -0.07594986
