33
opt_min/./Reactant_1371_1_opt.xyz
  C -4.78850400 -0.08413100  1.63941800
  N -3.79235786  0.76945659  1.03807975
  C -2.49309397  0.41115978  1.01651883
  O -2.10955347 -0.69113439  1.41621743
  C -1.52627303  1.34464891  0.42448559
  C -1.91311899  2.67549760 -0.11208313
  N -0.32075566  0.79765783  0.40285435
  C  0.92371950  1.05819867 -0.02889448
  C  1.39969234  2.33485924 -0.50113383
  C  2.65330185  2.31424765 -1.35322616
  O  0.84812214  3.40437562 -0.25636344
  C  1.82389073 -0.10913780  0.03328965
  C  1.38572169 -1.34129455 -0.45707734
  C  2.19844042 -2.45723042 -0.38971815
  C  3.45920703 -2.36593242  0.17659559
  C  3.89735257 -1.15363915  0.68424050
  C  3.08751003 -0.03604291  0.61673188
  H -5.77868642  0.26305491  1.35917079
  H -4.69421425 -0.08793312  2.72759394
  H -4.64329978 -1.10508471  1.28615880
  H -4.06258021  1.68513345  0.72615679
  H -1.02797938  3.30693399 -0.18606246
  H -2.63320060  3.16591801  0.54295158
  H -2.34979641  2.58938274 -1.10706487
  H -0.43530100 -0.15910021  0.80349970
  H  2.66143884  3.21035360 -1.96900028
  H  2.68863155  1.42993325 -1.98282992
  H  3.54182960  2.33166129 -0.72869107
  H  0.40891195 -1.41731549 -0.91437891
  H  1.84881792 -3.40076177 -0.78240589
  H  4.09566773 -3.23589153  0.22920801
  H  4.87172953 -1.08259500  1.14478052
  H  3.42064063  0.89590668  1.04747144
