31
opt_min/./Reactant_2779_0_opt.xyz
  C  4.18251596  1.74069580  0.27581255
  N  2.94598213  1.06086860  0.57203208
  C  2.17250988  0.51569835 -0.39555789
  O  2.48262514  0.57537510 -1.57957336
  C  0.92406274 -0.09762605  0.10469638
  C  0.57856979  0.19814731  1.42357234
  N  0.43502526  0.46956511  2.53578276
  N  0.08583122 -0.83546411 -0.67351059
  C  0.62271564 -1.41137665 -1.89280203
  C -1.18672830 -1.03730579 -0.39435481
  C -2.03175720 -2.10023184 -0.99624375
  C -1.48340431 -3.51095550 -0.92142167
  O -3.13650377 -1.85303503 -1.41776507
  C -1.91059523 -0.29267294  0.70436397
  O -2.41881469 -0.87145268  1.63622619
  N -1.97395699  1.03974647  0.49896320
  C -2.61677783  1.92772779  1.43749659
  H  4.14812427  2.77111316  0.63291981
  H  4.31134107  1.73534797 -0.80512110
  H  5.02559011  1.22850369  0.74350377
  H  2.66534939  0.99541123  1.53807190
  H  1.32221831 -2.21214550 -1.65095446
  H -0.18336318 -1.78135729 -2.51764117
  H  1.18233244 -0.64121890 -2.42818353
  H -0.70362482 -3.59321228 -0.17011138
  H -1.09208050 -3.83145290 -1.88463014
  H -2.30796255 -4.17279909 -0.66827928
  H -1.55840300  1.45088360 -0.32389296
  H -3.40603816  2.49658739  0.94578785
  H -1.88861057  2.61237188  1.87478971
  H -3.04519939  1.31120549  2.22476013
