31
opt_min/./Reactant_5378_1_opt.xyz
  C  4.60973300  1.66072300 -0.76099600
  N  3.79723759  0.50110817 -0.49812595
  C  2.45035897  0.62996961 -0.24966461
  O  1.95619603  1.75963900 -0.19328758
  C  1.73254709 -0.60945299 -0.07328481
  C  2.50282321 -1.89390178  0.08389463
  N  0.37013676 -0.65652778 -0.05380140
  C -0.24423227 -1.95924218 -0.26665662
  C -0.41608643  0.40655675  0.03451882
  C -1.84982662  0.46797810  0.06182032
  C -2.44792511  1.61789752 -0.48568295
  C -3.81474494  1.78698954 -0.48088538
  C -4.63704338  0.82621425  0.09082535
  C -4.06671413 -0.29039696  0.67797093
  C -2.69740221 -0.47170358  0.66887265
  H  4.07661735  2.52657299 -0.37225706
  H  5.57333531  1.56175557 -0.25913795
  H  4.77774377  1.80796216 -1.83335738
  H  4.17256144 -0.38201894 -0.79128247
  H  3.42857023 -1.69824796  0.62137778
  H  1.94992266 -2.61733761  0.67874002
  H  2.75680683 -2.36490437 -0.87185711
  H -1.23844755 -1.81764606 -0.68642046
  H  0.34750008 -2.53746327 -0.97193220
  H -0.33112132 -2.51657260  0.66690601
  H  0.10236612  1.35468911  0.01764732
  H -1.81156771  2.37054906 -0.92696732
  H -4.24771284  2.67340890 -0.92138272
  H -5.70883565  0.95684342  0.09406414
  H -4.69575207 -1.02691979  1.15771104
  H -2.28606775 -1.32199741  1.19062720
