26
opt_min/./Reactant_2164_0_opt.xyz
  C -0.53635763 -2.33185058  0.17969020
  C -0.48999914 -0.83696973  0.22716076
  C  0.81909727 -0.19400976  0.17358737
  C  1.19512231  0.71310644  1.16845314
  C  2.45406115  1.27812129  1.16953366
  C  3.35997031  0.95906318  0.17213040
  C  3.00192251  0.06148243 -0.81935436
  C  1.74774897 -0.51615863 -0.81515218
  N -1.60469138 -0.14548277  0.37448842
  C -2.83922004 -0.83632907  0.70014633
  C -1.70671197  1.20804672  0.16044866
  C -2.81719033  1.92158180  0.59740285
  N -3.71725682  2.52258646  0.99600018
  C -0.73374707  1.91825068 -0.54173901
  N -0.00215844  2.53528730 -1.18389572
  H -1.31879874 -2.68948412 -0.49092565
  H -0.71028082 -2.76208883  1.17043846
  H  0.41939354 -2.71460870 -0.17124776
  H  0.49742272  0.95997601  1.95541442
  H  2.72592918  1.97399024  1.94898135
  H  4.34097219  1.41261903  0.16633258
  H  3.70292524 -0.18778215 -1.60286878
  H  1.47336612 -1.19983850 -1.60752969
  H -3.56595635 -0.12211322  1.08694707
  H -3.26022164 -1.30648143 -0.19179216
  H -2.66078347 -1.60230658  1.45343147
