20
opt_min/./Reactant_2887_1_opt.xyz
  C  1.90339180 -1.10964637  2.10931150
  N  0.71100510 -1.05593449  1.29698316
  C -0.26337408 -0.14873698  1.52174363
  O -0.30691299  0.58432547  2.48303104
  C -1.35680510 -0.15946190  0.49302103
  C -2.66796186 -0.36945692  0.91540926
  N -3.75886233 -0.59305562  1.20996548
  N -1.17217190  0.13187545 -0.80373771
  C -0.08594447  0.43074251 -1.51263009
  C -0.25164032  0.70810321 -2.97826375
  C  1.18849182  0.55459396 -0.97154259
  N  2.28074850  0.68664195 -0.62453399
  H  2.74383025 -0.65799926  1.57709254
  H  1.70710798 -0.54433741  3.01791647
  H  2.13880886 -2.14349562  2.35961317
  H  0.70840034 -1.60716080  0.45433105
  H -2.03513559  0.13815484 -1.34866075
  H -0.83624149 -0.07740083 -3.45913413
  H  0.72150183  0.76163629 -3.45825166
  H -0.76130654  1.66047091 -3.14050934
