31
opt_min/./Reactant_2690_0_opt.xyz
  C  3.90667300  1.49402800 -1.68478800
  N  2.58786514  1.15097725 -1.20049570
  C  2.38956649 -0.04975146 -0.58275715
  O  3.29010519 -0.85905497 -0.50406870
  C  1.02033290 -0.32123766 -0.07576350
  N  0.06134015  0.58760095 -0.22241051
  C -1.24596714  0.61901690  0.00222123
  C -2.13804781 -0.53822343  0.25885123
  C -1.99014603 -1.70042750 -0.69809525
  O -3.03046611 -0.48461493  1.06854775
  C -1.76859045  1.98133832 -0.18060959
  C -3.22770721  2.22715320 -0.01239737
  O -0.96361258  2.85869255 -0.48341504
  C  0.74276819 -1.49935606  0.76504720
  O -0.23794635 -1.56409733  1.48072632
  O  1.68248088 -2.43004682  0.70614799
  C  1.56047710 -3.54697059  1.57426186
  H  4.52906152  1.90860517 -0.88723535
  H  4.38321545  0.58613026 -2.05059982
  H  3.81608531  2.21779588 -2.48991959
  H  1.92618831  1.90755132 -1.15679846
  H  0.32497942  1.55848001 -0.50162339
  H -1.82649264 -2.60843082 -0.12378511
  H -1.17960804 -1.56631039 -1.40698868
  H -2.93208095 -1.81216309 -1.23204501
  H -3.53248003  1.92490445  0.98743272
  H -3.44800181  3.27849229 -0.17219074
  H -3.79764749  1.61896270 -0.71143685
  H  2.50079406 -3.65052340  2.11371670
  H  0.73415342 -3.39719815  2.27157732
  H  1.38682686 -4.43750078  0.96919766
