29
opt_min/./Reactant_2329_0_opt.xyz
  C  2.92399200  3.84031800  0.16304500
  O  2.01234343  2.77341238 -0.07106602
  C  2.50069831  1.53477382  0.06094537
  O  3.63123210  1.26819748  0.36952548
  C  1.44320872  0.52021486 -0.19964632
  O  0.23698785  0.95408188 -0.10257574
  C -0.92297599  0.36499283 -0.35299341
  C -2.08616315  1.08745523  0.17513933
  C -1.75165405  2.27150439  1.04875599
  O -3.22973183  0.74306069 -0.03827791
  C -0.97551989 -0.75454791 -1.28839292
  C -2.31651004 -1.31259749 -1.65076050
  O  0.04880329 -1.13796501 -1.83546057
  C  1.88172180 -0.90747611 -0.40247786
  O  2.78813891 -1.25440364 -1.09921069
  O  1.20955793 -1.69570659  0.45343572
  C  1.54809374 -3.07641347  0.38982141
  H  3.49849490  4.03991930 -0.74333242
  H  2.32515803  4.70874777  0.42755597
  H  3.61104374  3.58020133  0.97013308
  H -1.37868486  1.90784846  2.00525637
  H -0.98738701  2.89619957  0.59523147
  H -2.65677346  2.84704068  1.22430865
  H -2.98343673 -0.52720955 -1.99693583
  H -2.18699359 -2.06816070 -2.42172857
  H -2.77507760 -1.75100529 -0.76672101
  H  1.37506180 -3.45384036 -0.61925297
  H  2.59954696 -3.21683565  0.64714412
  H  0.90428342 -3.57843711  1.10769901
