25
opt_min/./Reactant_2156_0_opt.xyz
  C  1.85930539  3.81829534 -0.01801610
  N  1.46739460  2.44799759  0.19218743
  C  0.30652131  1.95944251 -0.23892161
  O -0.56335561  2.62665192 -0.81001273
  C  0.01185096  0.51481084 -0.00473879
  N -1.24942100  0.28465254 -0.41909575
  C -2.18620862 -0.63145767 -0.35594683
  C -2.09988364 -1.97736616  0.28058173
  C -3.43280168 -0.28559221 -0.90253127
  N -4.47934817 -0.05404142 -1.31878516
  C  1.03596345 -0.38453495  0.45422487
  O  2.07631314 -0.01842038  0.98129998
  O  0.80367859 -1.69197573  0.19441703
  C  1.82236586 -2.60041962  0.59071012
  H  2.70513651  3.87840032 -0.70647310
  H  1.00977719  4.34881637 -0.44698456
  H  2.14113122  4.27912961  0.92904650
  H  2.11054313  1.80398749  0.64258896
  H -1.53056507  1.22402505 -0.83185381
  H -1.10327851 -2.39005974  0.17487154
  H -2.82813496 -2.64817209 -0.17242310
  H -2.32836671 -1.90017257  1.34568399
  H  2.27280947 -2.27479510  1.53000366
  H  1.34717849 -3.57241879  0.70643463
  H  2.59576843 -2.64746981 -0.17857442
