25
opt_min/./Reactant_4064_1_opt.xyz
  C  4.55158300  0.41763000 -0.22613400
  N  3.11253325  0.47076322 -0.18854369
  C  2.45166510  1.41689521  0.51119509
  O  2.98723108  2.32001361  1.12631742
  C  0.97311106  1.28652173  0.46773068
  O  0.48989906  0.31214308 -0.19093249
  C -0.71130688 -0.16598153 -0.44641795
  C -0.60216678 -1.39251156 -1.26520465
  C -1.86134566 -2.09380768 -1.66288523
  O  0.50649804 -1.78475335 -1.58210512
  C -1.96831269  0.44272645 -0.02052980
  O -3.06670382 -0.02357197 -0.21171549
  O -1.76455801  1.61598649  0.62291758
  C -2.91732921  2.31882950  1.06890969
  H  4.93387015  1.41713415 -0.02262878
  H  4.88245167  0.08509486 -1.20791954
  H  4.94142216 -0.26465948  0.53363488
  H  2.59360070 -0.26396419 -0.64869430
  H  0.37763192  2.01777244  0.99899043
  H -1.61386568 -2.96191142 -2.26743684
  H -2.41240007 -2.39813806 -0.77660055
  H -2.50503612 -1.41839907 -2.22053006
  H -3.77480593  1.64489907  1.09617242
  H -2.69804855  2.70237020  2.06386054
  H -3.11920833  3.14486778  0.38565458
