21
opt_min/./Reactant_5470_1_opt.xyz
  C  0.95980500 -2.94884700 -0.02751700
  O  1.30047487 -1.73891945 -0.21643060
  C  0.60261646 -0.62495021 -0.08349796
  C -0.81426061 -0.64946331  0.30030148
  O -1.51923013 -1.63998324  0.16133104
  N -1.30244218  0.51146326  0.83254051
  C -2.64230639  0.57920216  1.36582286
  C  1.41493124  0.57445355 -0.38452313
  O  2.62656660  0.58206645 -0.26796139
  N  0.71365784  1.66319577 -0.81519066
  C  1.38056063  2.88186120 -1.20563704
  H  1.73663848 -3.67547133 -0.19741625
  H -0.03507655 -3.24589193  0.26376669
  H -0.64702453  1.21025003  1.14541728
  H -2.65279153  0.46281655  2.45287657
  H -3.09549621  1.53547321  1.10413022
  H -3.21343242 -0.23419052  0.92098284
  H -0.25617956  1.55824850 -1.06263894
  H  1.19944931  3.10922456 -2.25721629
  H  1.03771333  3.72066545 -0.59512175
  H  2.44786044  2.73322665 -1.04678476
