24
opt_min/./Reactant_1110_1_opt.xyz
  C  4.96510800 -0.62959900 -0.90335400
  O  3.63351161 -0.26154015 -0.54842220
  C  3.47885115  0.90087733  0.10901260
  O  4.36561483  1.63929205  0.45044907
  C  2.06533884  1.09006001  0.43339782
  O  1.58922196  2.11945199  1.11583781
  C  0.19809161  1.96433160  1.23067245
  O -0.50153854  2.75340354  1.80244938
  C -0.05510477  0.72465844  0.53270028
  C -1.29507255  0.03623735  0.30796857
  C -2.48866968  0.57608783  0.80513477
  C -3.67969883 -0.08632930  0.58879982
  C -3.70561268 -1.28005174 -0.11549165
  C -2.52587942 -1.81721677 -0.60904910
  C -1.32598751 -1.16908708 -0.40245400
  O  1.11281317  0.26233456  0.08589207
  H  5.05549883 -0.59547244 -1.98972078
  H  5.13305601 -1.64479985 -0.54509731
  H  5.67214056  0.06529548 -0.44708207
  H -2.45618282  1.50395772  1.35074185
  H -4.59870239  0.33142254  0.97286251
  H -4.64142125 -1.79249969 -0.28075854
  H -2.54457921 -2.74684758 -1.15776495
  H -0.40389121 -1.58130545 -0.78373283
