14
opt_min/./Reactant_1947_1_opt.xyz
  C -2.53672793  1.45710834 -0.10652814
  O -1.27567695  0.82712274  0.06097757
  C -1.31544839 -0.46758780  0.42018441
  O -2.33335529 -1.09436790  0.60427598
  C  0.01468039 -1.03465116  0.57788426
  O  1.06032492 -0.31028803  0.36857103
  C  2.28968662 -0.69262411  0.46300830
  C  3.32032655  0.20051190  0.18036731
  N  4.19185536  0.91302235 -0.05740460
  H -2.32457430  2.49466678 -0.35075990
  H -3.12099337  1.38793796  0.81329452
  H -3.09662550  0.97860633 -0.91261284
  H  0.10298832 -2.07681133  0.86500874
  H  2.53145108 -1.72062146  0.72040997
