27
opt_min/./Reactant_5148_1_opt.xyz
  C -1.70322602 -0.05723401  3.29492699
  N -1.23173252  0.32679347  1.98518675
  C -0.92505145 -0.58103076  1.04095492
  O -1.11425620 -1.77253414  1.12631556
  C -0.32339102  0.00651002 -0.22336358
  O  0.90878552  0.37121689 -0.33533966
  C  1.84003219  0.45770787  0.57840401
  C  1.68755798  0.13658075  1.93623631
  N  1.60762543 -0.09751272  3.05900796
  C  3.16667404  0.94560188  0.13274175
  O  4.11930505  1.06436601  0.86207352
  O  3.16463348  1.19188794 -1.18046428
  C  4.38621475  1.62946674 -1.75804495
  C -1.10540230 -0.05162197 -1.47801507
  O -0.66210325  0.13838343 -2.58099450
  O -2.38395783 -0.33571684 -1.20201598
  C -3.24703856 -0.48077573 -2.32317766
  H -1.95997395 -1.11388242  3.25507205
  H -2.58325459  0.52631163  3.56318271
  H -0.91694807  0.09326827  4.03724536
  H -1.00411082  1.29907168  1.84179831
  H  5.23050161  1.29521869 -1.15159142
  H  4.43473973  1.20357514 -2.75792211
  H  4.39260388  2.71991185 -1.81491109
  H -4.13577460 -0.98940875 -1.95840691
  H -2.75860440 -1.06615361 -3.10408956
  H -3.50689179  0.50134437 -2.72515801
