20
opt_min/./Reactant_4436_0_opt.xyz
  C  4.63303658  0.76362984  0.42739118
  O  3.32741612  0.22706387  0.28178277
  C  2.33847630  1.13101807  0.09840673
  O  2.48648813  2.32760338  0.01797743
  C  1.08615902  0.50112006 -0.01773796
  N -0.00391077  0.05506199 -0.05361007
  C -1.22364575 -0.35774824 -0.02013862
  C -1.40313798 -1.84075998  0.13729632
  C -2.24423883  0.66507288 -0.19485071
  C -3.69931581  0.26864487 -0.11370904
  O -1.93560878  1.82733126 -0.39991674
  H  4.82832783  0.99392484  1.47707817
  H  5.32327736 -0.00249288  0.08137100
  H  4.73997466  1.67512363 -0.16347473
  H -0.73020264 -2.21480924  0.90606226
  H -1.16748173 -2.35324389 -0.79735242
  H -2.41826441 -2.09643944  0.41746635
  H -4.17536758  0.51594095 -1.05912045
  H -3.86898732 -0.77716536  0.11413457
  H -4.16761441  0.88171609  0.65470647
