13
opt_min/./Reactant_4665_1_opt.xyz
  C  1.98450100  0.43271500  0.12556900
  O  1.76185460 -0.77415971 -0.22515440
  C  0.64914531 -1.39053914 -0.51459064
  C -0.69652365 -0.88508005 -0.53979834
  O -1.65406204 -1.56916681 -0.83819084
  O -0.81010584  0.43069995 -0.20742652
  C -2.12791514  0.95664113 -0.21497436
  H  1.20910691  1.17302004  0.22787092
  H  3.01777480  0.67604808  0.30313526
  H  0.78487236 -2.42694899 -0.77803590
  H -2.02907765  2.03570411 -0.31078531
  H -2.63517351  0.70660590  0.71968537
  H -2.69312047  0.53779294 -1.04866452
