21
opt_min/./Reactant_268_1_opt.xyz
  C  3.50868388 -0.07310903  1.45262853
  N -9.62369275 -4.65645670 -5.40327949
  C -32.75162338  0.85532205  11.64840415
  O -1.15838928  15.01238987 -0.03911219
  C -11.45706079 -6.21904179 -28.05379978
  O  8.06639707 -47.47011771 -31.91833996
  C -6.23376321  4.36206979 -62.33909208
  C -2.28079779 -4.98331690 -2.12138831
  N -16.93098352 -13.08413166  22.79371864
  C  1.76725668 -0.73227473 -44.55769733
  N  7.59953500 -1.04741243 -25.53085426
  C  4.81664671  19.19117412  25.60555619
  C  18.87034125  17.87660856  20.02948509
  O  20.07865347 -9.16101395 -7.34456721
  H  6.26342323  2.58932749 -3.91965335
  H  4.19446853  0.70700043 -8.91672277
  H -8.20995089 -2.54957999 -12.66415337
  H  15.98748878 -6.70589207  7.14754468
  H  11.30972286  0.96815851 -0.15636435
  H -1.94070095  0.70071221 -7.15178359
  H -2.13087316 -13.03405606 -0.57295522
