22
opt_min/./Reactant_2565_0_opt.xyz
  C -3.57676083 -0.83197352 -0.85653777
  N -2.32717270 -0.15134127 -0.63005836
  C -1.19128626 -0.79463496 -0.39509075
  O -1.07118333 -2.02334328 -0.34360210
  C  0.05782379  0.01408950 -0.16197114
  N  1.03499089 -0.84528453  0.10395969
  C  2.28770330 -0.84548006  0.53915790
  C  2.97023271 -2.08106699  0.58067457
  N  3.56572508 -3.06187358  0.56716799
  C  3.01607068  0.22478655  1.07705586
  N  3.63887663  1.01594236  1.63125834
  C  0.10070545  1.44895703 -0.36484988
  C  1.43142345  2.14030073 -0.45590209
  O -0.93345475  2.08699870 -0.53196191
  H -3.38887498 -1.90472149 -0.87785261
  H -4.28266001 -0.60238238 -0.05595160
  H -4.00600867 -0.51750966 -1.80817716
  H -2.30120749  0.86842794 -0.63902745
  H  0.56180018 -1.79816351 -0.00707237
  H  1.78384852  2.39386674  0.54349280
  H  1.29733422  3.07174116 -1.00324759
  H  2.18452211  1.53034814 -0.94995156
