19
opt_min/./Reactant_765_0_opt.xyz
  C  0.99910306 -1.08582224 -3.06870823
  N  0.46579319 -0.38208218 -1.92987468
  C  0.47490439 -0.91399025 -0.68725381
  O  0.92086568 -2.03993880 -0.45055589
  C -0.06716292 -0.12246392  0.41245882
  C -0.69452716  1.22699822  0.34383751
  N  0.06009437 -0.75991267  1.56909633
  C -0.26542900 -0.45194367  2.81903377
  C -0.84299153  0.73184574  3.24890962
  N -1.29414522  1.69020426  3.70719169
  H  1.24527647 -2.09419973 -2.74009989
  H  1.90364534 -0.60122194 -3.44263189
  H  0.25893445 -1.12961787 -3.86873919
  H  0.14306845  0.55974156 -2.07198540
  H -1.65344863  1.21479047  0.86285037
  H -0.07100580  1.97329898  0.83949469
  H -0.86639695  1.54906504 -0.67861420
  H  0.49873836 -1.68026666  1.39781777
  H -0.05036233 -1.18912655  3.57605202
