21
opt_min/./Reactant_78_1_opt.xyz
  C  3.18958334  0.99883281  0.42634334
  N  1.78442770  0.68169619  0.55435561
  C  1.19660565 -0.24312472 -0.25071686
  O  1.74893722 -0.76513048 -1.18912937
  C -0.24087297 -0.51251558  0.10509298
  N -1.14196519  0.46192952 -0.00038963
  C -0.98242943  1.72090908 -0.39303615
  C -2.06565933  2.58527069 -0.42159245
  N -2.98392669  3.28083952 -0.45610415
  C -0.62727363 -1.86358636  0.47753016
  C -2.11855766 -2.14251158  0.58947844
  O  0.19960927 -2.71963055  0.71943732
  H  3.31936571  2.00309998  0.01575595
  H  3.68590430  0.94058684  1.39344337
  H  3.63249189  0.27705680 -0.25880324
  H  1.32428042  0.94819866  1.41088471
  H -2.10124758  0.20117258  0.23213238
  H -0.00750152  2.07164801 -0.69022566
  H -2.56758293 -1.55484976  1.39026094
  H -2.24893240 -3.19422547  0.82855750
  H -2.62591929 -1.93080490 -0.34990720
