32
opt_min/./Reactant_5893_1_opt.xyz
  C  4.04105221  2.67409779  1.20824780
  N  3.01963211  1.88638999  0.57024956
  C  2.49997241  0.76987576  1.15424849
  O  2.88690975  0.39984695  2.25793003
  C  1.47715743  0.10762433  0.34122038
  C  1.12746759  0.72335555 -0.85629903
  N  0.90436797  1.28014672 -1.84402092
  N  0.84335439 -1.06174936  0.69387594
  C  1.44968344 -1.83021399  1.76391402
  C -0.26812799 -1.46876914  0.09313206
  C -0.59531436 -2.92547158 -0.05543933
  C -1.21190294 -0.53637522 -0.50496162
  C -1.98912332 -0.88833669 -1.61308687
  C -2.96077376 -0.03694801 -2.09998526
  C -3.20335024  1.18027731 -1.48749406
  C -2.45723239  1.53555831 -0.37355416
  C -1.47474292  0.69710093  0.10377377
  H  4.86074479  2.86958759  0.51573411
  H  3.64019861  3.62562408  1.56954958
  H  4.40862648  2.10640476  2.06388314
  H  2.68283933  2.18576930 -0.33105622
  H  2.43846553 -2.18782366  1.47588928
  H  0.81502393 -2.65859669  2.05925994
  H  1.59347108 -1.16793570  2.61964978
  H -0.36854555 -3.21934534 -1.08508361
  H -0.01654387 -3.57724753  0.59024731
  H -1.65502363 -3.10593416  0.11436332
  H -1.80697675 -1.82158074 -2.12357678
  H -3.53378224 -0.32706547 -2.96915020
  H -3.96130507  1.84528449 -1.87247125
  H -2.64093153  2.47738435  0.12251777
  H -0.91737620  0.98804987  0.98486515
