31
opt_min/./Reactant_5227_0_opt.xyz
  C  4.25530300  1.52012000  0.14136100
  N  3.05553294  0.73235204  0.30621509
  C  3.04602169 -0.60705600 -0.03655044
  O  4.04376368 -1.14649949 -0.49951101
  C  1.78823244 -1.30604041  0.16270562
  C  1.82157181 -2.79904590  0.06283257
  N  0.66833046 -0.56816025  0.23149851
  C -0.61477421 -0.81675594  0.51670955
  C -0.99783250 -2.11970770  1.14536920
  C -1.57541369  0.21970613  0.25126963
  C -2.84260042  0.24584563  0.85517883
  C -3.73838924  1.26551149  0.61677161
  C -3.41864581  2.30836191 -0.23900866
  C -2.18594269  2.29265781 -0.87302921
  C -1.28973020  1.27061764 -0.64534178
  H  4.65105241  1.84716076  1.10489166
  H  4.98996415  0.89114396 -0.35724889
  H  4.04941220  2.39638881 -0.47898720
  H  2.40207800  1.07768264  0.98896691
  H  1.80955180 -3.28430799  1.03989864
  H  0.99598157 -3.17768247 -0.53459802
  H  2.76030157 -3.06107887 -0.41993322
  H  0.82676696  0.40403499 -0.03207908
  H -1.82096613 -1.98427203  1.84282871
  H -1.32500337 -2.84873999  0.40337490
  H -0.16205655 -2.52662088  1.70160452
  H -3.13443850 -0.53720197  1.53849506
  H -4.70151084  1.24845940  1.10661872
  H -4.11939204  3.10818493 -0.42042076
  H -1.92601077  3.07991248 -1.56662208
  H -0.37018540  1.27536787 -1.21644512
