26
opt_min/./Reactant_5598_0_opt.xyz
  C  0.71601900  1.41228200  0.33446500
  O  1.02052065  2.54485557  0.65430510
  C -0.56689779  1.13148725 -0.35591294
  O -1.23225654  2.28027052 -0.59905463
  C -2.61646206  2.29154050 -0.87806555
  C -0.94146116 -0.14047578 -0.69271509
  O -2.09982346 -0.30674581 -1.40030594
  C -2.70964064 -1.57459162 -1.54527673
  C -0.06130132 -1.28096871 -0.37987318
  O -0.34796984 -2.43040552 -0.68135685
  C  1.21615850 -0.99423178  0.31557952
  C  2.06957892 -2.17907126  0.62631707
  C  1.59750133  0.26016302  0.62066686
  C  2.90072876  0.57007399  1.27865565
  H -2.90236447  3.34174568 -0.84703225
  H -2.83276650  1.87975507 -1.86488008
  H -3.18085408  1.73885369 -0.12390324
  H -3.67989733 -1.36172750 -1.99286446
  H -2.13431772 -2.22469856 -2.20697992
  H -2.85007701 -2.07672683 -0.58659530
  H  2.35947382 -2.18085255  1.67408741
  H  1.52777598 -3.09153269  0.39506244
  H  2.97983557 -2.15317521  0.02939384
  H  2.96061218  0.09160104  2.25504152
  H  2.99617006  1.64413094  1.40461572
  H  3.72890429  0.20016147  0.67830324
