25
opt_min/./Reactant_1601_0_opt.xyz
  C -3.63366300  0.31828100  1.93745300
  N -2.65558311  0.01041142  0.92654681
  C -1.35611302  0.31837116  1.07879822
  O -0.91879208  0.89209853  2.06752705
  C -0.46377677 -0.10531485 -0.04363653
  N  0.86142909  0.11168347  0.05708689
  C  1.56783853  0.83715070  0.89262011
  C  3.01658722  0.89350723  0.81865853
  C  3.70128697 -0.02719032 -0.17688807
  O  3.65735915  1.65051336  1.52214270
  C -0.92413537 -0.87111891 -1.18180748
  C  0.07933824 -1.19137700 -2.28276371
  O -2.07790954 -1.26419857 -1.32172682
  H -3.15769659  0.92807453  2.70491908
  H -4.46419898  0.86926091  1.49196968
  H -4.01736886 -0.59741982  2.39509037
  H -2.94184879 -0.53236013  0.11681042
  H  1.41063035 -0.33636768 -0.67993218
  H  1.07363908  1.40682911  1.66357161
  H  3.40537877 -1.06330557 -0.01989229
  H  4.77761752  0.05508987 -0.04449240
  H  3.46117893  0.27566962 -1.19815626
  H -0.47756337 -1.58069155 -3.13328611
  H  0.75877381 -1.97872295 -1.94766992
  H  0.64282711 -0.31869777 -2.60982923
