23
opt_min/./Reactant_3998_0_opt.xyz
  C -2.66108100  2.89774600 -1.33050000
  O -1.40100865  2.25049987 -1.33955174
  C -1.26741096  1.20810225 -0.48177584
  O -2.18291227  0.81267089  0.25022537
  C  0.01518107  0.59351806 -0.46818242
  C  1.15163189  1.06400335 -1.31613609
  N  0.02981814 -0.45323894  0.39609039
  C  0.85255787 -1.36667889  0.83457642
  C  2.22139691 -1.62014537  0.29372875
  C  0.34064893 -2.30419653  1.88457133
  H -2.69178976  3.65555051 -0.54360041
  H -2.77819925  3.36677844 -2.30540255
  H -3.45781160  2.17308519 -1.15293669
  H  2.09324755  1.03045596 -0.76907607
  H  0.96121851  2.09543628 -1.60013883
  H  1.25452341  0.47774501 -2.23161691
  H -0.92728513 -0.45022959  0.80793193
  H  2.98252632 -1.37377807  1.03465615
  H  2.32518868 -2.68133913  0.05913467
  H  2.41523434 -1.05126647 -0.60722977
  H -0.25107514 -3.10465666  1.43635266
  H  1.16971921 -2.76042301  2.42001788
  H -0.29249627 -1.78371408  2.60148936
