21
opt_min/./Reactant_3500_1_opt.xyz
  C  3.80976095 -0.67216687  0.70997149
  O  2.60524371 -1.04178193  0.05914713
  C  1.48904267 -0.33918681  0.39630461
  O  1.47671912  0.54698329  1.22728730
  C  0.36152768 -0.86354976 -0.31317030
  N -0.87879862 -0.35529593 -0.23425882
  C -1.98441733 -1.27139671 -0.45275430
  C -1.16996900  0.91430015  0.05030265
  C -2.55853463  1.34493768  0.41642653
  C -0.22361950  1.93362511 -0.05600370
  N  0.45975446  2.85016704 -0.19091146
  H  4.14691470 -1.50390809  1.32993567
  H  4.55346738 -0.45061945 -0.05562621
  H  3.63572740  0.20912587  1.33119186
  H  0.47409239 -1.81910846 -0.79492517
  H -2.38116505 -1.60777971  0.50720884
  H -1.62333399 -2.14444965 -0.99212355
  H -2.78063298 -0.79700748 -1.02034999
  H -2.51293999  2.32099453  0.89354487
  H -3.02367009  0.64311546  1.10653666
  H -3.20130237  1.43831825 -0.46284233
