29
opt_min/./Reactant_5927_1_opt.xyz
  C  4.08350800  1.46349207  2.16331595
  O  3.11357406  0.77250269  1.39169995
  C  3.56049079 -0.29893072  0.70189067
  O  4.70364097 -0.68334915  0.70756035
  C  2.47435442 -0.92171653 -0.05529531
  C  2.77127967 -1.99447070 -0.89495975
  N  3.02353693 -2.85934822 -1.61196183
  O  1.27939783 -0.34969247  0.06607061
  C  0.13706719 -0.69050157 -0.43319245
  C -0.13820175 -2.01660787 -1.08411004
  C  0.12346581 -3.20562430 -0.19300608
  O -0.65589686 -2.10637543 -2.16826756
  C -0.94314448  0.25754260 -0.24544967
  C -2.23004265  0.01714459 -0.74977143
  C -3.23530613  0.94263601 -0.55508393
  C -2.98856269  2.11115470  0.14805121
  C -1.71959188  2.35913525  0.65230424
  C -0.70334365  1.44797360  0.46052759
  H  5.05614221  1.42427180  1.67011160
  H  3.73784714  2.49085155  2.25147649
  H  4.16631596  1.00687308  3.15152803
  H -0.75732481 -3.84346894 -0.21131796
  H  0.34909445 -2.91022988  0.82845606
  H  0.95351252 -3.79064349 -0.58915075
  H -2.42696591 -0.87998301 -1.31351269
  H -4.21996279  0.74846812 -0.95227618
  H -3.77953799  2.83011979  0.30038225
  H -1.52301478  3.27038972  1.19624879
  H  0.28253600  1.64494196  0.85200728
