23
opt_min/./Reactant_1889_0_opt.xyz
  C  3.71264500 -0.54161900  0.77943000
  N  2.45712362  0.02777678  0.36495685
  C  2.33346661  1.33647465  0.03055952
  O  3.25282477  2.13505613  0.08483649
  C  0.98589271  1.73897779 -0.37283959
  O  0.04567033  0.85321790 -0.42930409
  C -1.19731484  0.99138640 -0.78381659
  C -1.80423678  2.26493721 -1.26767581
  C -2.02121174 -0.20447261 -0.68150854
  O -3.19160583 -0.25511906 -0.98464690
  O -1.32841437 -1.25775204 -0.18797891
  C -2.06271950 -2.46395383 -0.05253024
  H  3.57122866 -1.16991573  1.65865462
  H  4.16036770 -1.13899258 -0.01944268
  H  4.38338404  0.28270407  1.01826222
  H  1.65592896 -0.57859428  0.29450624
  H  0.81679202  2.77432742 -0.63573535
  H -2.15352492  2.87478190 -0.43244638
  H -1.09032369  2.84549088 -1.84867471
  H -2.66634474  2.02393655 -1.88396494
  H -3.04830244 -2.26291791  0.37066913
  H -2.18908101 -2.93909477 -1.02791451
  H -1.48208815 -3.10403313  0.60741454
