36
opt_min/./Reactant_2921_0_opt.xyz
  C  3.49375226 -0.13144197 -2.59788335
  O  2.53094318 -0.50212404 -1.61770310
  C  1.37030334  0.15343771 -1.66383793
  O  1.09416481  0.98926514 -2.47553841
  C  0.44279045 -0.30640327 -0.53358577
  C  1.06436337  0.12334269  0.81149229
  O  0.83322160 -0.41301972  1.85822635
  O  1.85009042  1.18009421  0.65345371
  C  2.43382749  1.71787995  1.83642713
  C -0.84527641  0.40442855 -0.57245578
  C -1.99030470  0.76498103 -0.36783785
  C -3.31146922  0.29476725  0.10649125
  C -4.25153843  0.37940472 -0.99504317
  N -4.96376424  0.41857151 -1.88559633
  C -3.79062378  1.19830500  1.25066835
  F -3.10426008  0.97206146  2.38063866
  F -5.08389218  1.00524020  1.54560138
  F -3.64647700  2.49795956  0.97211480
  C -3.25512540 -1.26051574  0.61904406
  C -1.84142611 -1.66608633  0.24287497
  C -0.70154639 -2.67386694  0.28471047
  C  0.35165399 -1.90017231 -0.58513087
  H  3.84896960  0.88300536 -2.40862343
  H  4.30820385 -0.84523509 -2.50751059
  H  3.05242350 -0.17075216 -3.59530275
  H  1.66047342  1.91774067  2.57991282
  H  3.15442774  1.01191996  2.25331298
  H  2.92775212  2.63841595  1.53774517
  H -3.44985416 -1.28569880  1.68973147
  H -4.04064825 -1.80465648  0.09532104
  H -1.86905653 -1.46506478 -0.83145881
  H -1.31703517 -0.90374572  0.81370938
  H -0.90498995 -3.63463950 -0.18835400
  H -0.32854100 -2.83916584  1.29321167
  H  1.35443730 -2.24559255 -0.33194959
  H  0.16024085 -2.14688195 -1.63064463
