21
opt_min/./Reactant_4790_1_opt.xyz
  C  0.24851552  2.86639381 -1.13545646
  C -0.94680498  1.94908024 -0.99144875
  O -2.09116938  2.33142822 -1.10056558
  C -0.61607425  0.55445009 -0.68912510
  O  0.64077279  0.29215778 -0.43286244
  C  1.21933339 -0.86512153 -0.26030184
  C  2.69704081 -0.82079562 -0.00836646
  C  0.57913633 -2.09992134 -0.33712396
  N  0.09818947 -3.14659831 -0.38004269
  C -1.71673951 -0.46226891 -0.62377072
  C -1.95004899 -0.99389647  0.77548652
  O -2.39599022 -0.74895012 -1.57115012
  H  0.88625225  2.52625195 -1.94815303
  H  0.83394875  2.86542086 -0.21862945
  H -0.10167155  3.87223992 -1.34443382
  H  2.93887696 -0.01695292  0.68413447
  H  3.03736938 -1.76795791  0.40110150
  H  3.23881085 -0.63743196 -0.93822875
  H -2.08040139 -2.07436491  0.74099042
  H -1.15172578 -0.73780655  1.46667699
  H -2.88326045 -0.55528769  1.12667164
