33
opt_min/./Reactant_1863_0_opt.xyz
  C  5.06502300 -0.54095600 -1.44920200
  O  3.65088965 -0.55095389 -1.34354436
  C  3.08445143  0.38353799 -0.53580847
  O  3.73448258  1.19047551  0.10179221
  C  1.65393491  0.23831775 -0.58775726
  N  0.76679841  0.98990301  0.06289470
  C  1.26600361  2.10645658  0.83995566
  C -0.54500668  0.67633628  0.07251196
  C -1.59223204  1.68406299  0.11917849
  O -2.77550952  1.44027479  0.22352269
  O -1.13245140  2.95791617 -0.02671837
  C -2.11130676  3.98254950 -0.07917706
  C -0.96106770 -0.72592084 -0.05764445
  C -0.25628175 -1.71929249  0.63244068
  C -0.67102905 -3.03368784  0.59525205
  C -1.79177136 -3.39356799 -0.13805652
  C -2.49647771 -2.42179415 -0.82570543
  C -2.08689725 -1.10189892 -0.79022706
  H  5.49149771  0.10759957 -0.68071039
  H  5.34832775 -0.17383748 -2.43749210
  H  5.41681773 -1.56415231 -1.31967659
  H  1.27819019 -0.57705675 -1.18344570
  H  2.01494328  1.73310231  1.53926842
  H  1.75112014  2.83835952  0.19621229
  H  0.45924447  2.57769157  1.39064726
  H -3.01495730  3.66514974  0.44445309
  H -1.67644027  4.86156751  0.39379899
  H -2.35695945  4.20344974 -1.12020214
  H  0.60991250 -1.45222785  1.22115313
  H -0.12017197 -3.78343688  1.14437217
  H -2.11002132 -4.42490989 -0.16880311
  H -3.36952530 -2.69616342 -1.39913083
  H -2.64332232 -0.35317348 -1.32890181
