31
opt_min/./Reactant_1700_0_opt.xyz
  C  0.57859031 -2.35290445 -3.69197171
  O -0.21095496 -1.40163454 -2.98409349
  C -0.46481452 -1.63337476 -1.70861239
  O -0.09817742 -2.58394643 -1.07713819
  C -1.29101923 -0.48528343 -1.09259413
  C -2.25214611  0.11226972 -2.12896559
  F -3.03808447 -0.82317717 -2.67733123
  F -1.64016095  0.75415731 -3.12568018
  F -3.07432040  1.01479350 -1.56301896
  C -0.42034672  0.57333931 -0.62154111
  C  0.00374228  1.33734015  0.20136586
  C  0.00222900  2.22733071  1.34831419
  C  0.99487487  1.80995630  2.32459262
  N  1.77626119  1.51870326  3.10404888
  C  0.26453361  3.60319157  0.95368174
  N  0.39828063  4.69440439  0.65231982
  C -1.45723742  2.06856421  1.86070336
  C -1.85740420  0.64178543  2.30171048
  C -1.48157559 -0.65506038  1.54820901
  C -2.07897747 -0.97883695  0.16286090
  H  1.60949847 -2.00010321 -3.73450161
  H  0.54245852 -3.32040510 -3.19028391
  H  0.16560899 -2.41776413 -4.69601719
  H -2.11139420  2.40689935  1.05343756
  H -1.61103788  2.71767708  2.72655405
  H -2.94795829  0.65896252  2.39501681
  H -1.46110614  0.49478660  3.31282302
  H -1.87372572 -1.43924249  2.20378715
  H -0.39961767 -0.78289761  1.52523376
  H -3.10433059 -0.60789313  0.12007480
  H -2.10816633 -2.06744173  0.08520537
