36
opt_min/./Reactant_1136_1_opt.xyz
  C  2.29604900  3.24838900 -0.58277400
  C  0.84426802  2.87680490 -0.32411275
  O  0.01173085  3.77854357 -0.20903368
  C  0.57020677  1.47671538 -0.23609607
  C  1.69479414  0.51371903 -0.27683763
  C  1.85189379 -0.34111397 -1.36632602
  C  2.91255073 -1.22542459 -1.41844444
  C  3.83058341 -1.27355551 -0.38184883
  C  3.68027280 -0.43347039  0.70840194
  C  2.61998038  0.45284894  0.76210093
  N -0.67842336  0.94473017 -0.11465965
  C -1.82509197  1.82779635 -0.19897200
  C -0.86411792 -0.33695155  0.15922699
  C -2.08086057 -1.09749794  0.06072292
  C -3.07035623 -0.86622152 -0.90678751
  C -4.19132362 -1.66829198 -0.97516741
  C -4.35936258 -2.72272820 -0.09139881
  C -3.37455116 -2.98690620  0.84772589
  C -2.24768392 -2.19526181  0.91717197
  H  2.31260008  4.21357006 -1.08327056
  H  2.81651072  2.50871923 -1.18229794
  H  2.81406918  3.35715290  0.36860269
  H  1.13849786 -0.30333095 -2.17777440
  H  3.02605751 -1.87727618 -2.27222204
  H  4.65956791 -1.96398500 -0.42471576
  H  4.39103641 -0.47010153  1.52108588
  H  2.49993956  1.10488355  1.61508001
  H -2.72532293  1.29722285  0.09622772
  H -1.66229697  2.67720740  0.46459802
  H -1.92858281  2.23092248 -1.20580004
  H  0.01389319 -0.88910646  0.46395792
  H -2.93689622 -0.08438515 -1.63912456
  H -4.93912207 -1.47595266 -1.73088480
  H -5.24143801 -3.34224534 -0.14557662
  H -3.48636802 -3.81834404  1.52830097
  H -1.48231819 -2.40650284  1.64963870
