27
opt_min/./Reactant_2932_1_opt.xyz
  C -5.01141800 -0.80765900  0.64686900
  N -3.91864525 -0.40842688 -0.20133638
  C -2.62727562 -0.46498734  0.20590606
  O -2.29604301 -0.89357795  1.31158984
  C -1.61954675 -0.00575407 -0.74053206
  C -1.88228823  0.55524765 -2.09694116
  N -0.38512139 -0.11878744 -0.28427351
  N  0.69612835  0.18171812 -0.90667811
  C  1.89964262  0.05711386 -0.25968341
  C  3.03880263  0.14625799 -1.07303545
  C  4.30047671  0.04845351 -0.52836703
  C  4.46136908 -0.13308492  0.83747513
  C  3.34398776 -0.20703974  1.65344604
  C  2.07386130 -0.11230997  1.12167092
  H -5.62541564  0.05154853  0.92910757
  H -4.58242289 -1.24821363  1.54516665
  H -5.63778089 -1.54449911  0.14128886
  H -4.13401917 -0.03626147 -1.11040881
  H -2.31792972 -0.19339026 -2.75970255
  H -2.55567121  1.41133430 -2.05113708
  H -0.93183655  0.87668735 -2.51535019
  H -0.37548212 -0.51800350  0.67653051
  H  2.89708148  0.28382574 -2.13344680
  H  5.16741361  0.11522294 -1.16983875
  H  5.45025675 -0.20903541  1.26393104
  H  3.46360754 -0.33541620  2.71995929
  H  1.22365853 -0.14698975  1.79028203
