28
opt_min/./Reactant_4697_1_opt.xyz
  C  4.99911700 -1.38066604  2.23116133
  N  3.74254980 -1.00894216  1.65217859
  C  2.71240774 -1.86947892  1.46584562
  O  2.72090368 -3.03595688  1.78692495
  C  1.57615184 -1.16739985  0.82440072
  N  0.37385050 -1.56843688  0.56659034
  C -0.27486613 -0.49612530  0.01282194
  C  0.61565433  0.55118093 -0.05993939
  C  0.59110194  1.93353288 -0.59542609
  O  1.78681577  0.12163911  0.45813945
  C -1.67193360 -0.55356559 -0.38363723
  C -2.25965595 -1.77267650 -0.71135865
  C -3.57702952 -1.81435011 -1.12777431
  C -4.32089791 -0.64851996 -1.21600917
  C -3.74900263  0.56267355 -0.86409447
  C -2.43297236  0.61205612 -0.44738480
  H  5.81139646 -1.26671375  1.50919339
  H  4.93134771 -2.42640407  2.52899805
  H  5.21555790 -0.76916469  3.10951000
  H  3.64409548 -0.05849904  1.33380884
  H -0.06741708  1.99626036 -1.45686737
  H  0.25237210  2.63817328  0.16466981
  H  1.60225163  2.21114438 -0.88811886
  H -1.66873366 -2.67195701 -0.63615405
  H -4.02841838 -2.75995399 -1.38951377
  H -5.34699225 -0.68237469 -1.55079907
  H -4.32864643  1.47294193 -0.91286978
  H -1.99945299  1.55294547 -0.14782189
