30
opt_min/./Reactant_2001_0_opt.xyz
  C -0.52351400  3.71167700 -0.69961100
  N -0.48289880  2.34153079 -0.24023481
  C -0.86332246  1.32125538 -1.04235136
  O -1.13640161  1.44513983 -2.21239377
  C -0.88507428 -0.01768965 -0.32525279
  C -2.23661684 -0.51962625 -0.11925244
  O -3.19477392  0.22082795 -0.07116883
  O -2.32926414 -1.86308202 -0.00316007
  C -3.63275830 -2.41242750  0.12956666
  N  0.26061293 -0.62373370 -0.01929018
  C  0.23897919 -1.82521255  0.79470004
  C  1.43416267 -0.14515277 -0.43366257
  C  2.74861159 -0.57491723 -0.03709699
  O  3.06550526 -1.44638484  0.75259726
  O  3.67002728  0.17225997 -0.69271775
  C  5.02522489 -0.13974694 -0.41888081
  H -0.21762986  3.72749659 -1.74457265
  H -1.53236332  4.12543458 -0.62922748
  H  0.16040825  4.31266194 -0.10435173
  H -0.42018873  2.18690579  0.75314396
  H -4.37633447 -1.61422210  0.09634612
  H -3.69153036 -2.94119807  1.08171706
  H -3.79325103 -3.10960366 -0.69282601
  H  0.00577092 -2.68366414  0.16582165
  H  1.22311537 -1.97270259  1.23701479
  H -0.51846940 -1.74436032  1.56849955
  H  1.41599973  0.69000500 -1.11439021
  H  5.29270022 -1.09974762 -0.86673197
  H  5.61482487  0.66022180 -0.85945285
  H  5.19416452 -0.19736578  0.65848664
