25
opt_min/./Reactant_1405_0_opt.xyz
  C -2.79199507 -2.93990196  0.17953759
  N -1.82216073 -1.86975805  0.21822617
  C -2.22751842 -0.57142997  0.28876177
  O -3.39177511 -0.25710003  0.28447064
  C -1.10724994  0.41384365  0.37152738
  N  0.10421816  0.01300307  0.40472760
  C  1.23488248 -0.34456902  0.45389293
  C  2.56832926 -0.75025426  0.53503364
  C  2.74057941 -2.25613670  0.51972666
  O  3.49034219  0.04421404  0.60935341
  C -1.41304263  1.88025417  0.39745450
  O -2.53490657  2.31821196  0.32221162
  N -0.31346354  2.67407815  0.48068227
  C -0.42911197  4.11156185  0.52739898
  H -2.35448231 -3.81120429 -0.30203919
  H -3.65908282 -2.60142816 -0.38821766
  H -3.12558692 -3.20498776  1.18644491
  H -0.84624824 -2.10991551  0.25893608
  H  1.89767225 -2.76572610  0.98180352
  H  3.65930890 -2.50751837  1.04321398
  H  2.82966528 -2.59243278 -0.51280253
  H  0.60983791  2.27936582  0.56065362
  H -0.30073254  4.48449617  1.54735138
  H -1.42741252  4.37727018  0.18146117
  H  0.31955494  4.56593934 -0.12058736
