24
opt_min/./Reactant_4396_0_opt.xyz
  C  1.65583700 -3.23139000 -0.23898900
  C  1.45798008 -1.76025997 -0.26487127
  N  0.28533902 -1.24915732 -0.09906547
  C -0.23615736  0.00445012 -0.07093092
  C -1.68899047 -0.07590868  0.15072731
  O -2.19800944 -1.19871793  0.27233382
  N -2.36990300  1.07333733  0.22163823
  C -3.79286988  1.13336039  0.42278898
  C  0.48164230  1.22573519 -0.20618824
  O -0.02147752  2.34284931 -0.18708101
  O  1.82484687  1.06391471 -0.37048282
  C  2.56305363  2.26419543 -0.51598027
  H  2.21895672 -3.52399799  0.64820517
  H  2.22463212 -3.55563091 -1.10837888
  H  0.70124434 -3.75271211 -0.22793265
  H  2.30812778 -1.11237834 -0.39833446
  H -0.53688255 -1.88466494  0.03722772
  H -1.82015587  1.91850019  0.09918337
  H -4.29533103  1.51052378 -0.47130393
  H -4.14410870  0.12578211  0.63674986
  H -4.02733633  1.78837904  1.26284206
  H  3.58031457  1.96560570 -0.75648897
  H  2.14276500  2.87514564 -1.31746336
  H  2.54432795  2.83951010  0.41157322
