26
opt_min/./Reactant_3880_1_opt.xyz
  C  4.29661366  2.08099515  1.58082702
  N  3.07683259  1.57163687  0.99984733
  C  2.58869975  0.35730331  1.38039983
  O  3.12994122 -0.37473548  2.20331426
  C  1.41650132 -0.08204102  0.75250691
  N  0.38000130 -0.60082412  0.49349056
  C -0.72963472 -1.18157623  0.22126569
  C -0.97922884 -2.51158863  0.87713525
  C -1.67731448 -0.57436704 -0.68406729
  C -2.91032374 -1.18150803 -0.95296074
  C -3.81014389 -0.59417444 -1.81924639
  C -3.51191728  0.60830825 -2.43951979
  C -2.29558893  1.22192055 -2.18318762
  C -1.39061440  0.64224752 -1.31943072
  H  4.21722370  2.08480571  2.66977134
  H  4.47324775  3.09202087  1.22508063
  H  5.14231066  1.44543025  1.30712844
  H  2.58374724  2.12194900  0.31858866
  H -0.11510087 -2.79501168  1.47330262
  H -1.15658323 -3.28069927  0.12620386
  H -1.84793177 -2.45775340  1.53338839
  H -3.16595833 -2.11613107 -0.47970398
  H -4.75596444 -1.07938711 -2.01318688
  H -4.21896408  1.06278079 -3.11683918
  H -2.05303827  2.15965589 -2.66206750
  H -0.44362389  1.12782949 -1.12947674
