31
opt_min/./Reactant_1903_0_opt.xyz
  C  3.84617500  2.07383300  0.12174300
  N  3.12920764  0.87825454 -0.23646069
  C  1.77767883  0.75347718 -0.00643601
  O  1.10317283  1.71852761  0.35726271
  C  1.26525623 -0.55940150 -0.24858997
  N -0.05062168 -0.86543172 -0.13996341
  C -0.37237947 -2.17713863  0.39773055
  C -1.02666652 -0.07065051 -0.57694801
  C -0.70901368  0.99056932 -1.56807923
  C -2.37064976 -0.15912137 -0.03248428
  C -3.51371755 -0.02756224 -0.83091314
  C -4.78003335 -0.08845173 -0.28755389
  C -4.95536543 -0.27346385  1.07707826
  C -3.83796162 -0.38952197  1.88563113
  C -2.56845963 -0.33730820  1.34228574
  H  4.57561579  2.32319398 -0.64974430
  H  3.11377310  2.87372115  0.20619930
  H  4.36374658  1.97096760  1.08192966
  H  3.66810379  0.06125351 -0.45729851
  H  1.95433011 -1.38934722 -0.28848465
  H  0.28521960 -2.91397122 -0.06281388
  H -1.40617972 -2.43575724  0.17900020
  H -0.21114585 -2.20570723  1.47476740
  H -0.48209233  1.93490769 -1.06896283
  H  0.17949884  0.69963629 -2.13223494
  H -1.53759331  1.14614595 -2.25210507
  H -3.41598985  0.09106650 -1.90088377
  H -5.63974124  0.00760223 -0.93461817
  H -5.94558148 -0.31969529  1.50174324
  H -3.95269503 -0.51419824  2.95326352
  H -1.72005957 -0.37952510  2.00951757
