16
opt_min/./Reactant_3696_1_opt.xyz
  C  2.67599600  0.36265500  0.07442900
  N  1.48417034 -0.22253521 -0.45851087
  N  0.39549743  0.24478964  0.07072492
  C -0.81545552 -0.21990253 -0.11779130
  C -1.97807763  0.50287093  0.47859881
  C -0.98281835 -1.41264008 -0.99563487
  H  2.54950273  1.42909909  0.32745072
  H  3.01164499 -0.15652038  0.98361054
  H  3.46028493  0.27160610 -0.67370373
  H  0.47682596  1.05901116  0.70492859
  H -2.79579415 -0.18926602  0.65664075
  H -2.34570627  1.28788298 -0.18789285
  H -1.70756584  0.97300096  1.42427374
  H -1.90190295 -1.94178812 -0.76432587
  H -0.12231062 -2.06577691 -0.86035760
  H -0.99696687 -1.12551581 -2.04887506
