27
opt_min/./Reactant_4563_1_opt.xyz
  C  4.65783900 -0.53584300 -0.11607500
  N  3.26678247 -0.27119073 -0.36318807
  C  2.45780141  0.29111669  0.56465524
  O  2.85626236  0.74603160  1.62231879
  N  1.16515916  0.23884651  0.06677388
  N  0.10100763  0.61239307  0.66206840
  C  0.12856257  1.38099524  1.89888641
  C -1.07993705  0.27638206  0.10997571
  C -2.32194866  0.88436886  0.60292191
  C -3.58227141  0.05583673  0.50789992
  O -2.35244762  1.99947370  1.08937316
  C -1.05756597 -0.70384643 -1.00716870
  C -2.06550549 -0.50077548 -2.11500289
  O -0.25705443 -1.61013358 -1.05036541
  H  4.82215595 -1.57200031  0.19380019
  H  5.23823767 -0.33636068 -1.01615415
  H  4.98416969  0.12442842  0.68641237
  H  2.80189017 -0.72325720 -1.13515039
  H -0.63803217  1.03215774  2.58690241
  H  1.11711515  1.27868645  2.34428510
  H -0.06579788  2.42817795  1.67248362
  H -4.13302174  0.30250960 -0.39609839
  H -3.36143739 -1.00733610  0.52326178
  H -4.21724716  0.31678503  1.35147473
  H -2.99806195 -1.00735882 -1.88766593
  H -2.25946449  0.55703151 -2.27097089
  H -1.66315421 -0.94298126 -3.02290096
