21
opt_min/./Reactant_4698_0_opt.xyz
  C  0.30263409  2.83255361 -1.64907104
  O  22.99062946 -7.78401985  17.44571301
  C -13.96646002  15.20480677  16.50505753
  O  10.67192298  12.76328532  13.70038274
  C -4.73131348  3.16612060 -17.57764073
  N  42.96628930  21.45888026  18.61436311
  N  18.42445503 -20.28779462 -23.78727595
  C -9.20321396  19.22340532  24.88539450
  C  28.42367126 -55.29962250  66.52254936
  C  2.52129867 -24.67159941  0.65208642
  C -10.39908952  48.82381458  6.50386709
  C  44.98022314 -11.79053325 -10.14428600
  C -34.21688035  12.07637477  5.76382393
  H  4.99588790 -6.05148044 -1.25591837
  H  21.02224159 -0.05931808  56.44198464
  H  11.86269224 -12.38422870  8.80603923
  H -4.14156098  29.49001833 -21.90908505
  H -10.27392537  13.28402715 -8.56653348
  H  8.70041898  21.12532649  13.08409981
  H -15.14963551 -69.63033093 -5.51214805
  H -3.99670056  20.24228205  1.26516538
