33
opt_min/./Reactant_4381_1_opt.xyz
  C -1.01549751 -2.24533788  4.48224815
  N -0.94273224 -1.61507805  3.18622230
  C -1.84781282 -0.66784792  2.80753865
  O -2.81946408 -0.36682871  3.46335581
  C -1.50307499 -0.04611646  1.49730207
  C -1.53463359  1.34654201  1.44207669
  N -1.64812857  2.49151506  1.39839972
  N -1.15470757 -0.76595821  0.41687856
  C -1.64522957 -2.12521834  0.29366249
  C -0.41588001 -0.23265134 -0.56525051
  C -0.41116685 -0.75272714 -1.93412989
  O -1.29449145 -1.46012941 -2.40185709
  N  0.66343177 -0.36849600 -2.67436494
  C  0.83797454 -0.78780902 -4.04237403
  C  0.47120006  0.90756861 -0.17258642
  O  1.26572905  0.77816675  0.74201551
  N  0.38813270  2.00443553 -0.95402807
  C  1.09496843  3.22104469 -0.63104156
  H -0.92315466 -3.32705036  4.37713478
  H -0.23024511 -1.88088552  5.14637759
  H -1.98429695 -2.00046266  4.90994692
  H -0.05398775 -1.64859894  2.71196418
  H -0.81208858 -2.82803648  0.28212893
  H -2.31999889 -2.35747847  1.11032867
  H -2.16394349 -2.21328615 -0.66008780
  H  1.41473057  0.14474269 -2.24585131
  H  0.93432916  0.07837382 -4.69812922
  H  1.72443501 -1.41543276 -4.14766754
  H -0.04370053 -1.35982954 -4.32221163
  H -0.37031229  2.07590720 -1.61255155
  H  1.85003752  2.97381773  0.11155935
  H  1.56935364  3.62735962 -1.52363211
  H  0.41291945  3.96077688 -0.20966394
