21
opt_min/./Reactant_804_1_opt.xyz
  C  0.02830261  3.26008819  1.63968856
  N -0.25188405  2.02448688  0.94849298
  C  0.27671573  0.84308120  1.35107740
  O  1.04232461  0.73280686  2.28570060
  C -0.10598069 -0.31332621  0.51290360
  C  0.34816503 -1.57777315  0.62289354
  C  1.24652542 -2.13861527  1.52905118
  N  1.97799705 -2.64626496  2.25380502
  C -0.32492596 -2.33900436 -0.53713362
  C  0.36270245 -1.79098625 -1.78984888
  C -0.08402955 -0.54934959 -1.90135973
  C -1.03924396 -0.36942072 -0.71543668
  O -1.57093069 -1.67420903 -0.58854229
  H  0.75342108  3.04064209  2.42033410
  H -0.87875621  3.66363443  2.09284917
  H  0.44290522  3.99750362  0.95221033
  H -0.87388498  2.06096914  0.15923200
  H -0.42887457 -3.41491355 -0.43357416
  H  1.06938945 -2.31962403 -2.39359737
  H  0.15166770  0.21157186 -2.61530789
  H -1.82975041  0.37027853 -0.80257990
