31
opt_min/./Reactant_2010_0_opt.xyz
  C  4.04932261  0.38148938  2.41754556
  N  2.83397155  0.09913090  1.68901602
  C  2.58106737  0.72408910  0.48950015
  O  3.39255038  1.47157535 -0.02285454
  C  1.29149341  0.34490896 -0.10601804
  N  0.82446073 -0.88590178  0.22545103
  C -0.38163682 -1.44519690  0.08965557
  C -0.41502282 -2.83725259  0.28136537
  N -0.42740032 -3.96824726  0.48986895
  C -1.64731660 -0.76682536 -0.11863095
  C -1.87113649  0.52931399  0.35574968
  C -3.10754643  1.12099407  0.20364096
  C -4.13822031  0.44231058 -0.42779266
  C -3.92966809 -0.84807754 -0.88913601
  C -2.70082101 -1.45453172 -0.72894213
  C  0.65598663  1.07341710 -1.19545333
  C  1.18963224  2.44318859 -1.50697601
  O -0.25346479  0.57285165 -1.84037081
  H  4.48101525 -0.54693836  2.79250449
  H  3.87050560  1.05932711  3.25575991
  H  4.74226060  0.85511947  1.72419503
  H  2.05956039 -0.23013414  2.24447677
  H  1.53394441 -1.52544499  0.58933072
  H -1.07870640  1.06672074  0.85712838
  H -3.26808792  2.12369784  0.57214472
  H -5.09809411  0.91759651 -0.55998874
  H -4.72893388 -1.38349954 -1.37942517
  H -2.53897473 -2.45859628 -1.09328757
  H  2.24574814  2.39011266 -1.75771455
  H  0.62563001  2.85657892 -2.33886437
  H  1.09712965  3.08828621 -0.63538455
