31
opt_min/./Reactant_1418_1_opt.xyz
  C -2.88195465  0.94038640  0.47708647
  O -1.90193818  0.02648207  0.90485097
  C -0.90779724 -0.32972766 -0.03851860
  C -1.40018088 -1.37627477 -1.06646973
  C -2.62165952 -2.15055200 -0.66127161
  O -0.79890021 -1.57415427 -2.08982720
  C  0.21184049 -0.93203727  0.66909559
  C  1.35654966 -1.05582617  1.01120341
  C  2.74078765 -0.65715411  1.21181622
  C  3.14019920 -0.83085448  2.59921838
  N  3.42286478 -0.94888971  3.69855522
  C  3.64490207 -1.41186151  0.36135351
  N  4.36181705 -1.98783306 -0.31427330
  C  2.73820015  0.85752384  0.84155457
  C  2.39247572  1.19090062 -0.62219073
  C  1.14926337  0.63329078 -1.34528607
  C -0.24057587  0.90089472 -0.73544605
  H -2.47760029  1.94807699  0.34198973
  H -3.62056535  0.96530163  1.27657987
  H -3.36828706  0.62679645 -0.45211132
  H -2.57859002 -3.14700461 -1.09341678
  H -2.71087348 -2.19956312  0.42039682
  H -3.50393787 -1.65025572 -1.05962563
  H  3.73915365  1.25748290  1.02484830
  H  2.03999361  1.35059207  1.52113257
  H  2.34367001  2.28212948 -0.66870547
  H  3.24341838  0.88382197 -1.23714465
  H  1.16922350  1.11228395 -2.32713250
  H  1.27040584 -0.43248643 -1.52861051
  H -0.17558402  1.69931470  0.00641889
  H -0.91483536  1.22554271 -1.53194414
