23
opt_min/./Reactant_4935_1_opt.xyz
  C  4.76655700  0.14987900  0.46984000
  N  3.36040105  0.31298709  0.18982501
  C  2.46931768 -0.67758753  0.48801804
  O  2.80519731 -1.73228142  0.98338975
  N  1.13438000 -0.45507493  0.20447748
  O  0.84543407  0.76033615 -0.29195633
  C -0.35258553  1.11030391 -0.60656337
  C -1.57384596  0.37755584 -0.54396625
  C -2.75315361  1.00860639 -0.97791117
  C -3.95734037  0.34180031 -0.94217664
  C -4.01605975 -0.96492190 -0.47513600
  C -2.86114772 -1.59824549 -0.04349209
  C -1.64480639 -0.94437660 -0.07213801
  H  5.31197702  1.01848999  0.11059947
  H  4.92786468  0.03372827  1.54477691
  H  5.14056906 -0.75059872 -0.02315931
  H  3.04459307  1.17573656 -0.22068276
  H -0.37338388  2.13203342 -0.97270352
  H -2.70599159  2.02482433 -1.34148539
  H -4.85711406  0.83510566 -1.27777056
  H -4.96219663 -1.48479409 -0.44889634
  H -2.90600373 -2.61382942  0.31993559
  H -0.74409314 -1.43229845  0.26315265
