29
opt_min/./Reactant_3120_0_opt.xyz
  C  3.85982100 -2.00225000  0.90684200
  N  2.62826538 -1.54411672  0.31473205
  C  1.81931400 -0.65132579  0.93906838
  O  2.11728431 -0.17018801  2.02550266
  C  0.61136554 -0.37010669  0.15462314
  N -0.41468474  0.38064622  0.49289211
  C -0.28122301  1.25940696  1.64192165
  C -1.61015709  0.35079649 -0.16347712
  C -2.55623239  1.46644932 -0.18942648
  C -2.01243636  2.88933990 -0.18341030
  O -3.75481098  1.30854981 -0.32523999
  C -1.99674420 -0.90214784 -0.82588339
  O -1.27896453 -1.88555224 -0.92153481
  O -3.23339836 -0.88734195 -1.32366562
  C -3.68114577 -2.07805559 -1.94718884
  H  3.84579281 -1.73111399  1.96191224
  H  4.72157394 -1.52404613  0.43376420
  H  3.94977492 -3.08292025  0.80492345
  H  2.32884306 -1.97293979 -0.54532812
  H  0.49418610 -0.96722722 -0.73418221
  H -1.20288719  1.25503375  2.22138465
  H  0.54096622  0.90042304  2.26257756
  H -0.05142004  2.27099316  1.31984099
  H -2.77873141  3.51342111 -0.63830037
  H -1.85595988  3.25311109  0.82742270
  H -1.09185378  2.97714406 -0.75620950
  H -3.31038976 -2.12528462 -2.97448542
  H -4.76714101 -2.03043595 -1.94114456
  H -3.32503682 -2.95390585 -1.40058012
