37
opt_min/./Reactant_1880_1_opt.xyz
  C  3.27650044  2.74356443 -0.72551099
  N  2.41463452  1.64418064 -0.35909137
  C  1.65378580  1.00110977 -1.27352590
  O  1.70529952  1.25749693 -2.45630606
  C  0.71121210 -0.10293388 -0.74572127
  O  0.90358583 -1.30817516 -1.47143173
  C  2.23139816 -1.75352547 -1.57609139
  C -0.66081215  0.33391741 -0.95715543
  C -1.82575722  0.57017358 -0.77889908
  C -3.07311409  0.33239749 -0.06606486
  C -3.74144919  1.64075292  0.35754901
  C -4.03781735 -0.51585974 -0.90969444
  C -2.56111254 -0.44243814  1.18636744
  C -1.61426180 -1.61470615  0.85375562
  C -0.15323842 -1.47867454  1.32120196
  C  0.74248264 -0.33997650  0.79320398
  H  2.86601873  3.69623505 -0.38241891
  H  3.34559171  2.75705761 -1.81206940
  H  4.26893015  2.60391348 -0.29571589
  H  2.31526932  1.44921521  0.62225976
  H  2.84459291 -1.07274798 -2.17597776
  H  2.17660794 -2.71778188 -2.07859987
  H  2.70182430 -1.88928920 -0.59446416
  H -4.58810605  1.43552881  1.00994533
  H -4.09732179  2.18105878 -0.51692205
  H -3.03870193  2.27808281  0.89098943
  H -3.92471382 -1.57201760 -0.68128890
  H -3.84263933 -0.37733204 -1.97014861
  H -5.06887713 -0.23069395 -0.71195653
  H -2.02800147  0.27350554  1.81328081
  H -3.42520973 -0.79912551  1.74776357
  H -1.99470092 -2.51886437  1.33644306
  H -1.60800334 -1.79619569 -0.21828736
  H -0.15392169 -1.38531202  2.41287383
  H  0.33462854 -2.42689382  1.08420479
  H  1.76280844 -0.58691762  1.10441989
  H  0.44876620  0.59953244  1.26790416
