26
opt_min/./Reactant_2618_0_opt.xyz
 Br  1.87008600 -3.52552800  0.64867500
  C  0.81777823 -1.96303967  0.33325389
  C -0.47322285 -1.93295576  0.68335689
 Br -1.27908163 -3.41596418  1.57140816
  C -1.38156635 -0.81479382  0.39969740
  C -2.21989426 -0.32070471  1.39461614
  C -3.06924214  0.73613126  1.12481965
  C -3.10218994  1.29864045 -0.14106835
  C -2.28381911  0.79526713 -1.14037900
  C -1.42730989 -0.25493411 -0.87500123
  C  1.53979217 -0.83876499 -0.27062055
  C  1.42078796  0.44482604  0.25678826
  C  2.10552511  1.49963531 -0.31663745
  C  2.91589883  1.28852839 -1.42098047
  C  3.04781826  0.01236902 -1.94149571
  C  2.37185860 -1.04830976 -1.36762163
  H -2.20388920 -0.75813974  2.38187937
  H -3.70940212  1.11714812  1.90580990
  H -3.77092447  2.12005928 -0.34378690
  H -2.32430543  1.22560003 -2.12891468
  H -0.79864584 -0.65423458 -1.65564585
  H  0.80054531  0.61422475  1.12335231
  H  2.01637591  2.49122580  0.09739928
  H  3.44888340  2.11356040 -1.86879008
  H  3.68271050 -0.16381350 -2.79630995
  H  2.48442751 -2.04097216 -1.77706416
