18
opt_min/./Reactant_3322_0_opt.xyz
  C  3.53177500 -0.24828800 -0.22501000
  N  2.22900178 -0.32243823 -0.03415003
  C  1.27658210  0.53703775 -0.37619186
  C -0.10313635  0.34385104 -0.10179213
  C -1.01559481  1.35666801 -0.45241448
  C -2.36293677  1.23010977 -0.20181816
  C -2.86036697  0.08787734  0.40838183
  C -1.98197179 -0.92797409  0.75244784
  C -0.63160548 -0.81041456  0.50348792
  H  3.95104854  0.58745015 -0.74988792
  H  4.16711373 -1.03650026  0.12294667
  H  1.89420958 -1.15199909  0.45062696
  H  1.60231931  1.44224856 -0.86593898
  H -0.63513835  2.25030871 -0.92759920
  H -3.03702788  2.02706928 -0.48346732
  H -3.91617070 -0.01137368  0.60985280
  H -2.35895169 -1.82642957  1.22246749
  H  0.01373345 -1.63605278  0.77873673
