37
opt_min/./Reactant_3002_0_opt.xyz
  C -1.76933900 -3.91775900  0.99262500
  N -1.40524882 -2.52141388  0.97620248
  C -1.90266626 -1.65906612  0.05799754
  O -2.63167106 -1.98052068 -0.85048332
  C -1.47885040 -0.23499171  0.30701749
  O -0.25524685  0.20412195  0.39162408
  C  0.92699525 -0.35143039  0.22091535
  C  1.12112888 -1.63541371 -0.46624754
  O  2.05012125 -2.39257040 -0.30080076
  O  0.15557276 -1.83153133 -1.37989825
  C  0.20634789 -3.02942623 -2.13869115
  C  2.04914815  0.44749176  0.68734889
  C  3.37146714  0.12361237  0.36413929
  C  4.41424475  0.90441734  0.82177776
  C  4.16949535  2.02426549  1.60002777
  C  2.86404441  2.35676736  1.92745825
  C  1.81561915  1.57918926  1.48259300
  C -2.55022037  0.73808524  0.60846052
  O -3.65028114  0.37681157  0.98149427
  N -2.17474100  2.03938369  0.52166916
  C -3.09922851  3.11639658  0.76965018
  H -0.87436947 -4.53693158  1.06559929
  H -2.43251199 -4.13965651  1.83097496
  H -2.29299604 -4.12886444  0.06200776
  H -0.88198860 -2.17296578  1.76407820
  H  0.53508162 -3.85897737 -1.51001918
  H -0.80505119 -3.18929418 -2.50461552
  H  0.90409471 -2.91280303 -2.97014471
  H  3.57471055 -0.74513937 -0.23915262
  H  5.42869091  0.63881303  0.56440443
  H  4.98911359  2.63164195  1.95333638
  H  2.66410049  3.22309974  2.54084625
  H  0.80374301  1.83701758  1.75858415
  H -1.26959941  2.27061516  0.14537626
  H -3.43481376  3.57508086 -0.16389792
  H -3.96204047  2.69545938  1.28336398
  H -2.62980489  3.87640704  1.39451437
