30
opt_min/./Reactant_685_1_opt.xyz
  C  2.55433600 -2.70929800  0.83689200
  N  1.77339211 -1.50533824  0.71855523
  C  2.24738398 -0.39263258  0.10558168
  O  3.34668346 -0.33944676 -0.41346486
  C  1.32484193  0.75166713  0.10232740
  C -0.00408116  0.89383938  0.20494757
  C -1.09964422 -0.05697741  0.27239586
  C -1.09638787 -1.19439133 -0.53792366
  C -2.14850324 -2.08865364 -0.49042890
  C -3.21396284 -1.86762401  0.36799219
  C -3.22630288 -0.74183535  1.17450475
  C -2.18207036  0.16263646  1.12426313
  C -0.22153002  2.42126089  0.11109328
  C  0.08122163  2.75606683 -1.35000807
  C  1.39126933  2.61038191 -1.46248326
  C  1.85474934  2.18778197 -0.06862143
  O  0.94487099  2.90148027  0.75497078
  H  1.99371285 -3.56482426  0.45645478
  H  3.45851854 -2.57125134  0.24631880
  H  2.83174881 -2.89893948  1.87680325
  H  0.87174797 -1.47746310  1.16600150
  H -0.27128314 -1.35475773 -1.21625610
  H -2.14034228 -2.96103954 -1.12713348
  H -4.03454621 -2.56862399  0.40570996
  H -4.05477092 -0.56568428  1.84509278
  H -2.18756816  1.03373880  1.76236889
  H -1.13075402  2.82528823  0.54038867
  H -0.66533205  3.01162831 -2.07405198
  H  2.04472766  2.71610498 -2.30300985
  H  2.89180901  2.35163018  0.19529939
