28
opt_min/./Reactant_1724_0_opt.xyz
  C  3.68149827  0.50966824 -1.19090546
  C  2.19381946  0.47489986 -0.96215014
  O  1.40329776  1.04441814 -1.70091074
  C  1.75110500 -0.21314818  0.23475223
  C  2.69413852 -0.69722079  1.13922437
  N  3.48135507 -1.10992855  1.87218977
  N  0.43779450 -0.16477497  0.61311928
  C  0.14939433 -0.16994605  2.03319390
  C -0.55696735 -0.11987960 -0.26783065
  C -0.36833295 -0.55067712 -1.59361180
  N -0.33975483 -1.01399074 -2.64491190
  C -1.91802326  0.30754783  0.04576866
  C -2.17224994  1.43185684  0.83375669
  C -3.47074394  1.84106595  1.06839337
  C -4.53483167  1.13447508  0.53023455
  C -4.29240488  0.02250252 -0.26189406
  C -2.99822686 -0.38757710 -0.51025106
  H  3.91555113  1.27166570 -1.92772657
  H  4.22814572  0.69232220 -0.27048223
  H  3.98698399 -0.45917954 -1.58177810
  H  0.75146851 -0.94144514  2.51505694
  H -0.90452567 -0.36904581  2.20933338
  H  0.41430740  0.79244076  2.47719359
  H -1.35096830  2.01089558  1.23030358
  H -3.65349851  2.71840803  1.66953957
  H -5.54701738  1.45631828  0.71893339
  H -5.11740938 -0.52688675 -0.68949664
  H -2.81039190 -1.25041937 -1.13137613
