27
opt_min/./Reactant_4741_1_opt.xyz
  C -1.85085301  0.41079056 -3.77850685
  O -1.38171120  0.18971522 -2.46055715
  C -1.98803901 -0.83204864 -1.78944130
  O -2.87781636 -1.49070866 -2.27596942
  C -1.38936986 -0.99501976 -0.48204572
  N -0.44638155 -0.15212299 -0.13239268
  C  0.38782520  0.39410580  0.47668543
  C  1.37624909  1.13158395  1.12629906
  C  1.13978605  2.45704602  1.51555748
  C  2.12819229  3.15792264  2.17668454
  C  3.34351681  2.55168815  2.45568307
  C  3.58043089  1.23940787  2.07313897
  C  2.60618368  0.52221635  1.40969447
  C -1.69944951 -2.03010143  0.49835262
  C -2.80944792 -2.97537786  0.12898658
  O -1.09287671 -2.10310995  1.55350994
  H -1.26861674  1.24236846 -4.16824226
  H -1.70405374 -0.48050613 -4.39230142
  H -2.91461719  0.65731877 -3.77180408
  H  0.19427001  2.93053390  1.30109376
  H  1.94212996  4.17778382  2.48069653
  H  4.11268619  3.10266035  2.97416953
  H  4.52781177  0.77037524  2.28883708
  H  2.77833328 -0.50007187  1.11019805
  H -3.72036675 -2.42415551 -0.09010577
  H -2.97228324 -3.66497162  0.95457691
  H -2.54548869 -3.52626896 -0.76978857
