42
opt_min/./Reactant_5935_0_opt.xyz
  C -3.61331800 -3.16924100  0.04163600
  O -3.30510916 -1.78316111  0.00457205
  C -2.02047506 -1.44101404 -0.20972151
  O -1.13888982 -2.27801308 -0.30867435
  C -1.76531978 -0.00103368 -0.09267403
  C -2.75119092  1.05151529 -0.16240857
  C -2.43029264  2.39571743  0.08555349
  C -3.36987189  3.39977761 -0.04308669
  C -4.66443791  3.11523838 -0.43861113
  C -4.98912948  1.80328192 -0.74720698
  C -4.05650698  0.79702964 -0.62347638
  N -0.46217812  0.24534830  0.24516228
  C -0.11892022  0.96770154  1.45741087
  C  0.51395633 -0.37498193 -0.43487045
  C  0.36622302 -0.56577060 -1.87329367
  C  1.60177488 -1.04808651 -2.60088115
  O -0.64337077 -0.26291561 -2.48696448
  C  1.81267242 -0.61928817  0.22244160
  C  1.95939861 -1.74057651  1.03542946
  C  3.16652669 -1.99282353  1.66178938
  C  4.23620852 -1.13096414  1.48376907
  C  4.09650329 -0.01475273  0.67624936
  C  2.89129035  0.24407107  0.04938609
  H -2.69876368 -3.75531891  0.14388975
  H -4.27117647 -3.33277216  0.89413384
  H -4.12423177 -3.44437872 -0.88259451
  H -1.43010485  2.69368813  0.35231935
  H -3.07674098  4.41960809  0.16366081
  H -5.39775231  3.90203823 -0.52857494
  H -5.98105803  1.56160748 -1.10094325
  H -4.33052959 -0.20189077 -0.90739696
  H  0.54392627  0.34607889  2.06138884
  H  0.40613701  1.89509581  1.22699517
  H -1.02149825  1.17348015  2.02606700
  H  2.21637168 -0.19120574 -2.87186086
  H  2.18974222 -1.72469581 -1.99063963
  H  1.29147595 -1.54003618 -3.51779280
  H  1.11976122 -2.40936977  1.15215557
  H  3.27164129 -2.86788088  2.28581449
  H  5.17756824 -1.33200787  1.97296915
  H  4.92823986  0.65953082  0.53434794
  H  2.77978742  1.11518238 -0.57996681
