27
opt_min/./Reactant_2317_1_opt.xyz
  C  4.13917020 -0.54836204 -1.28443855
  N  2.85757342 -0.62213459 -0.62637565
  C  2.24365009  0.45941881 -0.11955881
  O  2.65316588  1.59289974 -0.20444972
  C  0.93038224  0.11467859  0.60187570
 Cl  1.44537462 -0.56359069  2.21195092
  C  0.08671642 -0.84950036 -0.04386154
  C -0.89363646 -1.39140602 -0.47958649
  C -2.31316474 -1.58940297 -0.68755704
  F -2.68340997 -1.21750511 -1.94831088
  F -2.72228090 -2.88187505 -0.56782090
  C -3.01335131 -0.71137858  0.36456827
  C -2.51497407  0.74473144  0.43870616
  C -1.35169683  1.06492452  1.41454784
  C  0.03707110  1.34442539  0.81270113
  H  4.10748839 -1.09182278 -2.22834717
  H  4.92715545 -0.96610827 -0.65468193
  H  4.35310534  0.50207412 -1.47269335
  H  2.45567969 -1.53469817 -0.47527920
  H -2.88161988 -1.20307080  1.33036609
  H -4.07725521 -0.72655566  0.11993478
  H -3.37499874  1.31831018  0.78908330
  H -2.27767076  1.10756270 -0.56119555
  H -1.27781082  0.28674734  2.17392527
  H -1.62951416  1.98663005  1.92843029
  H -0.07455999  1.82931505 -0.15987529
  H  0.58857277  2.03514074  1.45092770
