24
opt_min/./Reactant_5158_0_opt.xyz
  C  3.21625500  2.57928500 -0.00408900
  N  2.20527566  1.56586912 -0.17724814
  C  2.51448514  0.25326953 -0.21110189
  O  3.62731891 -0.19445987 -0.06664088
  C  1.30414006 -0.63810268 -0.40259395
  O  0.19084747 -0.04304097 -0.18986648
  N -1.02069363 -0.58403570 -0.28380004
  C -1.97411682  0.40757477 -0.08764481
  O -1.73302759  1.58164009  0.06921041
  O -3.18287663 -0.14752313 -0.11258643
  C -4.28306283  0.73771246  0.04702559
  C  1.49421726 -2.07070607 -0.79489788
  C  0.39690971 -3.00434153 -0.37910151
  O  2.47134313 -2.41376719 -1.40948106
  H  4.13690844  2.08672355  0.30297923
  H  3.39405379  3.11401387 -0.93910915
  H  2.90411142  3.28920228  0.76079667
  H  1.25026518  1.87087551 -0.28770063
  H -3.99730149  1.59453876  0.66003941
  H -5.07390707  0.16686632  0.52797518
  H -4.61733457  1.09186958 -0.92997534
  H  0.19185627 -2.90762764  0.68472522
  H  0.68981516 -4.02458959 -0.61099101
  H -0.52168335 -2.74813363 -0.90376999
