22
opt_min/./Reactant_3534_1_opt.xyz
  C  2.38979700  1.34701700  0.12993900
  C  2.27800329 -0.11574444  0.17326351
  N  1.15145027 -0.76212890 -0.02570912
  C  1.21637235 -2.19629120 -0.24488064
  C -0.07957135 -0.14233421 -0.08122448
  C -1.09632664 -0.74821631 -1.00878903
  C -0.40606487  0.85295556  0.86493037
  C -1.77377482  1.50507380  0.73376277
  O  0.34023103  1.18026537  1.80226036
  H  1.96481360  1.78291675  1.05058583
  H  1.77248204  1.73208184 -0.68533278
  H  3.42385311  1.65644129  0.02208072
  H  3.15596528 -0.69804943  0.40359035
  H  2.15048177 -2.58384670  0.15556054
  H  1.17658633 -2.42529568 -1.31120844
  H  0.38079960 -2.68855592  0.25163642
  H -1.68511760 -1.53829278 -0.53704689
  H -0.60380532 -1.16806871 -1.88432173
  H -1.78950290  0.01361330 -1.35251828
  H -2.56048127  0.75716896  0.80419390
  H -1.86660348  2.02428468 -0.21785663
  H -1.89513844  2.22112209  1.54166829
