28
opt_min/./Reactant_5305_0_opt.xyz
  C  4.32165700 -0.61162800  0.09779200
  O  3.00157022 -0.11272789 -0.01726254
  C  2.85662948  1.21973918  0.23433153
  O  3.76586018  1.94274409  0.54302591
  N  1.56917118  1.67163724  0.10674216
  O  0.69272262  0.69572787 -0.11622630
  C -0.58305088  0.85536811 -0.23110387
  C -1.24613589  2.19680253 -0.18475235
  O -2.43006163  2.38400360 -0.34485198
  O -0.36368317  3.15886137  0.04048573
  C -0.84096462  4.49250707  0.11271796
  C -1.31549524 -0.38849438 -0.42740872
  C -0.59147428 -1.59470064 -0.49360269
  C -1.24064499 -2.79550826 -0.67547441
  C -2.62390827 -2.83528804 -0.79683663
  C -3.34728124 -1.65683998 -0.73332672
  C -2.70841348 -0.44399301 -0.55164767
  H  4.93540193 -0.25385986 -0.73169728
  H  4.76962226 -0.28493825  1.03718552
  H  4.24209850 -1.69576314  0.06241537
  H -1.77644698  4.59656767 -0.44091844
  H -1.00621694  4.76304146  1.15688347
  H -0.06825165  5.12640207 -0.31666399
  H  0.48266448 -1.56880510 -0.40301785
  H -0.66697898 -3.70871366 -0.72404868
  H -3.11782224 -3.78437305 -0.93927640
  H -4.42247340 -1.67898664 -0.82624276
  H -3.29852715  0.45460903 -0.50482868
