28
opt_min/./Reactant_5863_1_opt.xyz
  C  5.12285300 -0.95090300 -0.67547400
  O  4.05046421 -0.02463458 -0.63528180
  C  2.82428859 -0.52178734 -0.50135540
  O  2.54983458 -1.70544519 -0.40920183
  N  1.88705621  0.48587366 -0.47262513
  N  0.69009079  0.00290115 -0.30737286
  C -0.45593146  0.62524021 -0.21651274
  C -0.62411892  2.09560335 -0.26019907
  C  0.61836427  2.91714424 -0.40083235
  O -1.73120525  2.58599057 -0.17116690
  C -1.65265588 -0.20959349 -0.01685993
  C -2.76949722 -0.04205490 -0.83135080
  C -3.89018003 -0.82745697 -0.63556576
  C -3.91021676 -1.77693899  0.37297593
  C -2.80410699 -1.94312870  1.18941775
  C -1.67761321 -1.16472223  0.99743624
  H  5.80382592 -0.63093348 -1.46295824
  H  5.63763621 -0.93765680  0.28835869
  H  4.74864695 -1.95639026 -0.87912430
  H  0.65396308 -1.03799160 -0.23627295
  H  0.35759923  3.97281504 -0.41076533
  H  1.29799811  2.70502226  0.42162442
  H  1.14243733  2.64476842 -1.31482056
  H -2.75289491  0.70292965 -1.61142778
  H -4.75203815 -0.69725447 -1.27283138
  H -4.78948875 -2.38526223  0.52614666
  H -2.82006782 -2.67753675  1.98156606
  H -0.81787442 -1.28556161  1.64188667
