40
opt_min/./Reactant_2798_0_opt.xyz
  C -3.86406732 -1.75147456  1.76228687
  N -2.77141993 -0.99406537  1.19324629
  C -2.48061477 -1.05085157 -0.13218831
  O -3.07333800 -1.76463474 -0.90622759
  C -1.31569567 -0.14419246 -0.53965556
  C -1.76801900  1.32184470 -0.74666214
  O -1.44399611  1.96458230 -1.71537181
  N -2.53598208  1.82458591  0.23935757
  C -3.00858147  3.19115949  0.17482612
  C -0.24034979 -0.20750239  0.41448168
  C  0.85492557 -0.25321021  0.90630954
  C  2.20656618 -0.73770718  0.97291310
 Cl  2.69856780 -1.13468267  2.66505475
  C  3.17135023  0.31346140  0.42168297
  O  2.83836378  1.20638631 -0.30682677
  O  4.42026892  0.07375313  0.80714018
  C  5.42623467  0.94796513  0.31322699
  C  2.25254280 -2.01514757  0.12628046
  C  1.70423413 -2.00690211 -1.31978311
  C  0.19328629 -1.95580546 -1.65516696
  C -0.62543919 -0.66063483 -1.82267296
  H -4.08564971 -2.58766097  1.09968531
  H -4.75920230 -1.13057777  1.85074992
  H -3.58882281 -2.12685241  2.74565746
  H -2.09995806 -0.58154669  1.82338791
  H -2.81072821  1.26016516  1.02502838
  H -2.16846560  3.85821098 -0.02200715
  H -3.47524225  3.45676672  1.11897433
  H -3.72957108  3.30782801 -0.63710131
  H  5.01536654  1.94752491  0.16123209
  H  5.80740293  0.56745298 -0.63636395
  H  6.21931969  0.96363167  1.05726538
  H  1.70712964 -2.79227427  0.67093876
  H  3.29420281 -2.34636145  0.08080985
  H  2.24354602 -1.30291764 -1.95237882
  H  1.97612656 -3.02025747 -1.63674169
  H  0.15276274 -2.40881667 -2.65098018
  H -0.34875449 -2.64255870 -1.00172021
  H -0.03123355  0.14248434 -2.25381378
  H -1.43432985 -0.91275908 -2.51377861
