24
opt_min/./Reactant_2435_0_opt.xyz
  C -3.41002422 -1.61218741 -0.60471027
  O -2.50422553 -0.51961185 -0.52354105
  C -1.23693325 -0.80987423 -0.14155595
  O -0.88713059 -1.93091216  0.14651267
  C -0.36489574  0.36769734 -0.10340698
  O -0.75654009  1.60401800 -0.25703028
  C -1.92352284  2.14427743 -0.44136092
  C -2.01740181  3.52692150 -0.55281657
  N -2.14725630  4.66721692 -0.64884519
  C  1.07065615  0.22871304  0.14738734
  C  1.76142799 -0.96106746 -0.09521981
  C  3.11958890 -1.04124710  0.14530080
  C  3.81800144  0.05612872  0.62154568
  C  3.14479358  1.24452391  0.85827817
  C  1.78816057  1.33267775  0.62595023
  H -3.39472833 -2.02450888 -1.61485211
  H -3.12293538 -2.38686352  0.10786976
  H -4.39804366 -1.21976015 -0.37311493
  H -2.83254077  1.56294099 -0.52338723
  H  1.23346701 -1.82139716 -0.47027979
  H  3.63803226 -1.96871074 -0.04640004
  H  4.87915907 -0.01289629  0.80782604
  H  3.68022789  2.10501934  1.23110023
  H  1.26981547  2.25917579  0.82417348
