38
opt_min/./Reactant_5827_1_opt.xyz
  C  3.48986100 -0.28689300  2.64516500
  N  3.23079715 -0.42764634  1.23123939
  C  2.40235173  0.45690473  0.60659834
  O  2.01748850  1.49160760  1.12577060
  C  2.14299229  0.15662705 -0.81754678
  C  3.24475639 -0.33984641 -1.69623126
  N  0.93357840  0.41209235 -1.30452117
  C  0.77156423  0.60376606 -2.73498627
  C -0.15789912  0.42886335 -0.49706266
  C -0.17200296 -0.45153859  0.66365293
  O  0.61976119 -1.38219036  0.81629008
  N -1.18081401 -0.22064021  1.54226324
  C -1.41116205 -1.05837898  2.68706630
  C -1.33619792  1.20358185 -0.87348577
  C -1.21420953  2.56952601 -1.15306919
  C -2.32656851  3.31161149 -1.50329363
  C -3.57282935  2.71283031 -1.57499996
  C -3.70641709  1.36127163 -1.29887201
  C -2.60111817  0.60865171 -0.95608203
  H  4.56736292 -0.28586692  2.82923161
  H  3.06733368  0.66465282  2.96770308
  H  3.02811903 -1.09659406  3.21253196
  H  3.18976551 -1.37250025  0.88210208
  H  3.39290196  0.30030854 -2.56690777
  H  4.17589291 -0.36453895 -1.13486447
  H  3.02828189 -1.34809957 -2.05649683
  H  1.45975234  1.36673150 -3.09647677
  H -0.24904582  0.91267951 -2.94110604
  H  0.97221901 -0.33287767 -3.25849890
  H -1.78027991  0.57557650  1.39976021
  H -0.61750177 -1.80620840  2.70048736
  H -2.37981519 -1.56123727  2.62228251
  H -1.37501873 -0.47367186  3.60944152
  H -0.24274192  3.03357043 -1.07887217
  H -2.22424377  4.36651896 -1.71396591
  H -4.43955849  3.29826082 -1.84615453
  H -4.67899624  0.89279570 -1.36056638
  H -2.69383966 -0.44688827 -0.75337289
