19
opt_min/./Reactant_1964_0_opt.xyz
  C  3.97183900  0.62015300  0.17995400
  O  2.56072638  0.50345675  0.13306351
  C  2.06269718 -0.73292878  0.44297801
  O  2.77499328 -1.66362168  0.73465095
  C  0.62347448 -0.77270142  0.36274121
  N -0.04997804  0.30206901  0.00291350
  C -1.36058005  0.49812102 -0.10481164
  C -2.34545477 -0.51576849  0.15054673
  C -3.78270504 -0.06256802 -0.02879594
  O -2.07776506 -1.66322248  0.47221511
  H  4.21351111  1.58469943 -0.26079733
  H  4.32110945  0.57558271  1.21449981
  H  4.43709059 -0.19425514 -0.37982112
  H  0.10537449 -1.68715566  0.60070518
  H  0.55675295  1.09677497 -0.21218288
  H -1.66715297  1.48116316 -0.42255812
  H -4.40833929 -0.58700393  0.68919003
  H -3.89141964  1.01115956  0.08720722
  H -4.11325065 -0.34643786 -1.02759550
