28
opt_min/./Reactant_5325_0_opt.xyz
  C  3.99976300 -2.53196300 -0.15077800
  N  2.78482276 -1.76209397 -0.25768150
  C  2.81892808 -0.44866819 -0.56920465
  O  3.83733371  0.16978340 -0.79728772
  C  1.46115646  0.19076155 -0.60350385
  O  0.50563102 -0.58356797 -0.19733922
  C -0.78905325 -0.65516656 -0.12383568
  C -1.74455732  0.42163428 -0.52412427
  C -1.21052349 -1.97334539  0.34425587
  C -2.68766453 -2.21459498  0.49269915
  O -0.37773767 -2.83405844  0.59035909
  C  1.38297170  1.62250028 -0.96568505
  O  1.98768352  2.14175642 -1.86308133
  O  0.61372764  2.31420758 -0.08912979
  C  0.58279882  3.72530998 -0.24396305
  H  3.83144325 -3.53568187 -0.53596244
  H  4.77178004 -2.03204955 -0.73508094
  H  4.33760173 -2.59077396  0.88727650
  H  1.91616798 -2.21599372 -0.01204444
  H -1.20997613  1.34203663 -0.72816904
  H -2.46247053  0.60784872  0.27317292
  H -2.29683468  0.14145132 -1.42128452
  H -2.86291665 -3.27707932  0.63891463
  H -3.04249348 -1.68068773  1.37352737
  H -3.24320837 -1.86570281 -0.37229894
  H  0.53477980  4.15873663  0.75249513
  H  1.48046996  4.06250570 -0.76591638
  H -0.29752210  4.01627506 -0.82267114
