14
opt_min/./Reactant_1347_0_opt.xyz
  C -0.93098300 -1.34513300  0.00818900
  C -0.59798668  0.09639579 -0.00289414
  C -1.53736505  1.19539477  0.01584644
  O -2.74192939  1.22941537  0.03041962
  O -0.73029403  2.32338259  0.00697004
  N  0.57232412  1.97235238 -0.01348424
  N  0.60455572  0.67196456 -0.01753461
  C  1.89322220  0.03769652 -0.02085032
  H -0.10517824 -1.96519238 -0.32768872
  H -1.78407267 -1.51152158 -0.64632025
  H -1.22690186 -1.65236059  1.01103720
  H  2.37506634  0.18591662  0.94517656
  H  1.78143044 -1.02476280 -0.20931400
  H  2.51518158  0.50192017 -0.78308297
