25
opt_min/./Reactant_3435_1_opt.xyz
  C  2.10455000 -2.42229500 -0.23272500
  N  1.08098169 -1.46250345  0.10872642
  C  1.19733342 -0.14464179 -0.28068926
  O  2.09689444  0.22542126 -1.01481068
  C  0.21082907  0.74160436  0.34948176
  O -1.08728429  0.44332718  0.49998337
  C -1.85543251 -0.37787456 -0.10739820
  C -1.45186144 -1.22361485 -1.26248223
  C -3.27640092 -0.37753097  0.36122299
  C  0.56122125  2.00418675  0.98585192
  C  2.00540914  2.42476558  0.89860449
  O -0.28770300  2.67690891  1.55046182
  H  1.65381064 -3.33204272 -0.63304720
  H  2.72028136 -2.67855811  0.63267414
  H  2.73727336 -1.96315983 -0.99073193
  H  0.53858636 -1.66310648  0.93498623
  H -0.66086746 -0.73024481 -1.82838301
  H -1.07364980 -2.20055002 -0.95752869
  H -2.31240581 -1.38146213 -1.90914848
  H -3.78614205 -1.28043493  0.04162681
  H -3.80725444  0.48721166 -0.04038956
  H -3.31685859 -0.29592713  1.44573415
  H  2.29930292  2.50416110 -0.14502665
  H  2.64245380  1.67225769  1.35854866
  H  2.13300964  3.37855296  1.40092805
