19
opt_min/./Reactant_3888_1_opt.xyz
  C  2.51724800  2.13058500 -1.03075000
  N  1.42229961  1.51556868 -0.64863331
  C  1.21684645  0.20789902 -0.39919443
  C  2.26425582 -0.69477198 -0.58300624
  N  3.12450644 -1.44873239 -0.72449132
  C -0.07455784 -0.27107303  0.05872429
  C -1.04213247  0.58990879  0.59352557
  C -2.26378828  0.10076153  1.01021069
  C -2.54844795 -1.25135138  0.91560526
  C -1.59330350 -2.11722350  0.40747547
  C -0.37233267 -1.63696160 -0.01886511
  H  3.42041197  1.57040184 -1.18340583
  H  2.50405894  3.18900300 -1.19755807
  H  0.59393107  2.09395672 -0.52866059
  H -0.83532280  1.64490138  0.71700222
  H -3.00097361  0.77544201  1.42120458
  H -3.50476502 -1.62919663  1.24316571
  H -1.80360348 -3.17428630  0.33703574
  H  0.36981272 -2.31121119 -0.41835674
