37
opt_min/./Reactant_3175_0_opt.xyz
  C  2.84518475  3.10521037  1.14071326
  O  1.97618041  2.05776104  0.73120247
  C  2.42778283  1.23678835 -0.22101725
  O  3.49268759  1.34341318 -0.75643199
  C  1.36794677  0.18924275 -0.56009141
  C  2.00674232 -1.12965553 -1.00565863
  O  3.15472816 -1.29680595 -1.29214749
  O  1.07204961 -2.09081309 -1.02782579
  C  1.47839543 -3.39573071 -1.42660248
  C  0.43879756 -0.03563499  0.51851663
  C -0.56899757 -0.24060279  1.13781411
  C -1.95393471  0.03726233  1.41814347
  F -2.23224443  0.13358595  2.78205880
  C -2.93233817 -1.04288308  0.88174402
  C -2.34093100 -2.39925465  0.65737834
  O -4.09322541 -0.77757142  0.73170799
  C -2.24233236  1.40965024  0.78192232
  C -1.94922590  1.60843023 -0.71828410
  C -0.54810679  1.84355493 -1.34213475
  C  0.45009366  0.72288780 -1.69654855
  H  3.88551437  2.78209337  1.07747419
  H  2.57753106  3.34985882  2.16591027
  H  2.70135669  3.97610484  0.49730670
  H  2.56202416 -3.42690532 -1.54985220
  H  1.16501091 -4.09359950 -0.65095285
  H  0.98805508 -3.64025234 -2.36931723
  H -3.02610402 -3.01081998  0.07549801
  H -1.37130225 -2.32618045  0.17009412
  H -2.19527167 -2.86823741  1.63117657
  H -3.31188190  1.59120780  0.92171620
  H -1.71334349  2.17054997  1.36083648
  H -2.44058509  2.57132359 -0.89892937
  H -2.48099573  0.85802005 -1.30529272
  H -0.04413287  2.65352342 -0.81735432
  H -0.83735464  2.20231678 -2.33620633
  H  1.10903547  1.12992623 -2.47109175
  H -0.09306889 -0.11574349 -2.13653470
