23
opt_min/./Reactant_1682_0_opt.xyz
  C  2.93947056  0.69255809  2.37431512
  C  3.29924884  0.84746503  0.92428502
  O  4.37289881  1.23057616  0.52799689
  C  2.20143066  0.50822541 -0.02739192
  C  2.42858344  0.76044258 -1.39428415
  N  2.65784885  1.11724848 -2.46246193
  O  1.10210970  0.07032482  0.49809867
  C -0.04268608 -0.30658745 -0.02117523
  C -0.14629192 -0.59592407 -1.47387522
  C -1.44930135 -0.38019119 -2.19058177
  O  0.84998814 -0.99024572 -2.04576639
  C -1.02314589 -0.59509005  1.04732347
  C -2.32093887 -1.25942028  0.67630808
  O -0.75190377 -0.30929218  2.19552205
  H  2.38746178 -0.22438604  2.55901930
  H  3.84801516  0.71728934  2.97035748
  H  2.30654197  1.52765229  2.67315677
  H -2.08242895 -1.26029380 -2.12061280
  H -1.22661618 -0.20970218 -3.24136347
  H -1.98117154  0.47511482 -1.78130639
  H -2.83097700 -1.54627948  1.59293119
  H -2.13797954 -2.14590102  0.07390269
  H -2.95954480 -0.57866272  0.12149805
