23
opt_min/./Reactant_852_0_opt.xyz
  C -0.55459413  0.74388550 -2.37803784
  C  0.86604087  0.60049085 -1.84297078
  O  1.81708008  0.87731045 -2.56006199
  C  1.02339362  0.23679964 -0.46350105
  C  2.25700209  0.41724996  0.16126392
  N  3.25504458  0.49950851  0.73207242
  N -0.00069360 -0.26376461  0.34021463
  C -0.76998413 -1.37985724 -0.17430602
  C -0.19445198  0.15651153  1.57025377
  C -1.09486753 -0.59353564  2.49140500
  C  0.46152705  1.39286849  2.05456932
  H -0.86184223 -0.16107970 -2.89941157
  H -1.27029313  0.97164430 -1.59132072
  H -0.54825984  1.54947073 -3.10842345
  H -0.48011450 -1.57334736 -1.20210636
  H -1.83982059 -1.17312648 -0.12491231
  H -0.55942806 -2.27909659  0.40845234
  H -2.13803177 -0.51596188  2.17790910
  H -1.01140764 -0.19927768  3.49937215
  H -0.84166965 -1.65365786  2.51638728
  H  0.57830362  2.10159113  1.23232597
  H  1.46967786  1.19285621  2.42959369
  H -0.11993351  1.84527991  2.85361241
