23
opt_min/./Reactant_846_1_opt.xyz
  C  2.64703476 -1.05620207  1.08544557
  C  2.14723008  0.28892926  0.61539540
  O  2.78339034  1.31122905  0.74285587
  C  0.81056607  0.28769596  0.00306702
  C  0.01496732  1.37777880 -0.14380485
  C  0.26429066  2.70001567  0.22981004
  N  0.41448889  3.80650158  0.49866142
  C -1.30747628  0.90499307 -0.69519868
  C -1.96628982  0.15952661  0.49513525
  C -1.08530250 -1.09340570  0.63790714
  C -0.00874042 -0.89469567 -0.45702289
  C -0.84328372 -0.25796368 -1.56702136
  H  3.21663624 -1.51330253  0.27818082
  H  1.84420874 -1.72667449  1.36893269
  H  3.32297916 -0.91240416  1.92438615
  H -1.93334514  1.67295345 -1.15026569
  H -2.99478842 -0.09985211  0.24857902
  H -1.98381938  0.77364374  1.39077046
  H -0.64545727 -1.18323707  1.63029138
  H -1.64745434 -2.00373122  0.44029033
  H  0.55149499 -1.79359153 -0.70907287
  H -0.25608704  0.06597569 -2.42489750
  H -1.66005105 -0.88881329 -1.91291286
