7
opt_min/./Reactant_267_0_opt.xyz
  C -1.00767600 -0.30464900 -0.02779800
  C  0.37488151  0.11456754  0.01457843
  C  1.51916482  0.47013787  0.06553641
 Cl  3.08512058  0.96064415  0.11215988
  H -1.22922362 -0.76192658 -0.99096206
  H -1.65915316  0.55456448  0.11326529
  H -1.20681509 -1.04268472  0.74613419
