31
opt_min/./Reactant_3081_0_opt.xyz
  C  2.70907030 -2.37678462 -0.55035174
  C  2.60510437 -0.90409747 -0.77867317
  O  3.18150470 -0.29566311 -1.63613938
  C  1.70406499 -0.17532721  0.25566166
  F  2.32050628 -0.35435843  1.49229746
  C  0.36180782 -0.71807070  0.27359651
  C -0.83135091 -0.59453780  0.21842916
  C -2.16795817 -0.07303000 -0.00468855
  C -2.88674446  0.06998765  1.34784538
  F -4.15468889  0.47314240  1.22235536
  F -2.29226302  0.96736137  2.14094719
  F -2.90247229 -1.08120328  2.02415284
  C -2.96234927 -1.05405212 -0.89015513
  F -2.57061690 -0.99223692 -2.16993791
  F -4.27992897 -0.84169509 -0.89337639
  F -2.77627243 -2.32091680 -0.50069971
  C -1.89665370  1.25769388 -0.73589760
  C -0.98402447  2.31176271 -0.05814676
  C  0.31552312  1.97860042  0.70580846
  C  1.51587346  1.32963136 -0.02075967
  H  3.48399912 -2.54303620  0.20097581
  H  1.77573084 -2.78952097 -0.17404902
  H  3.01293970 -2.87866996 -1.46642521
  H -1.45572814  0.99038970 -1.69944205
  H -2.84992212  1.76281963 -0.93248335
  H -1.59660194  2.84426360  0.67487568
  H -0.74074400  3.01209798 -0.86132687
  H  0.66168206  2.95713587  1.05009957
  H  0.08601980  1.41534974  1.60895329
  H  1.45488781  1.48320976 -1.09775454
  H  2.42684079  1.82642610  0.31497377
