22
opt_min/./Reactant_4251_1_opt.xyz
  C -1.34608200  0.82423200  1.35371300
  C -1.70282286  0.22323060  0.00242994
  O -2.83911846  0.38632339 -0.44681961
  C -0.76897829 -0.64396285 -0.63306858
  C -1.29927496 -1.66721994 -1.60027262
  N  0.53877756 -0.80774618 -0.30163282
  C  1.47348494  0.05930436  0.05243568
  C  2.80904800 -0.48788899  0.43977984
  C  1.25996793  1.52432458 -0.04707708
  H -2.21392809  0.69881548  1.99838786
  H -0.48587522  0.34052552  1.80841924
  H -1.16180454  1.89294384  1.26591474
  H -0.71745897 -1.68729315 -2.52221023
  H -2.32573492 -1.40202010 -1.83762401
  H -1.29747893 -2.67080078 -1.16570201
  H  0.88444397 -1.75635181 -0.45904240
  H  2.76642268 -0.98417009  1.41207157
  H  3.54219796  0.30991190  0.50554416
  H  3.15989260 -1.22361016 -0.28783769
  H  0.39744158  1.72180303 -0.68269224
  H  2.14528167  1.98900960 -0.48258190
  H  1.08902302  1.99672918  0.92093543
