13
opt_min/./Reactant_3489_1_opt.xyz
  C -0.25320259  0.12748361 -1.79962097
  C  0.90143961 -0.13658267 -0.91336404
  N  0.84062574 -0.29732316  0.38311106
  C -0.19463827 -0.28130455  1.26505720
  C -1.52229688  0.01928783  0.96372002
  N -2.63143496  0.27107432  0.78015160
  C  0.10287915 -0.56823233  2.60076799
  N  0.36623994 -0.80144552  3.69665751
  H -0.30048860  1.18929302 -2.05440998
  H -0.13875656 -0.42493280 -2.73128000
  H -1.19322982 -0.14763630 -1.32982663
  H  1.88754391 -0.17079557 -1.35047572
  H  1.72544873 -0.48325800  0.85234600
