16
opt_min/./Reactant_2048_1_opt.xyz
  F -2.72403500  0.26322400  1.30617200
  C -2.02192456 -0.50954978  0.47147653
  F -2.84135408 -0.82676506 -0.54708080
  F -1.78827847 -1.66740199  1.12533581
  C -0.76250807  0.11390438  0.00551469
  C -0.16600921  1.27099052  0.30786898
 Cl -0.60850687  2.51340179  1.34270543
  C  1.16170673  1.24151924 -0.47755200
  C  2.00182781  0.17436898  0.23960785
  C  1.41453410 -0.97242556 -0.06037677
  C  0.22781616 -0.58079573 -0.95161161
  O  0.75780546  0.53784016 -1.63385222
  H  1.62507252  2.19492057 -0.70513129
  H  2.85534930  0.37761609  0.85036174
  H  1.65530727 -1.97005294  0.23925787
  H -0.17856061 -1.32741106 -1.62593971
