34
opt_min/./Reactant_2252_1_opt.xyz
  C -2.66123463 -2.55888486 -1.99767617
  N -2.00937793 -1.71062422 -1.02791468
  C -1.09594626 -0.79936983 -1.40478527
  O -0.69577092 -0.66650097 -2.53985387
  C -0.54386486  0.04019061 -0.22785718
  C -1.69202928  0.81197968  0.43698601
  O -2.80475342  0.34274692  0.58286421
  N -1.33663482  2.01995453  0.90738876
  C -2.29153491  2.90991890  1.52567839
  C  0.51204655  0.89894363 -0.71182854
  C  1.63443896  1.32523077 -0.78139481
  C  3.06767718  1.35133037 -0.77212995
 Cl  3.76250176  1.64777736 -2.40534153
  C  3.41134164 -0.06315660 -0.28709308
  C  2.81486566 -0.47619417  1.08413673
  C  1.35567392 -0.27802597  1.56448941
  C  0.15904419 -0.89023425  0.81080662
  H -1.92872986 -2.84994070 -2.74951333
  H -3.05097380 -3.44291404 -1.49787463
  H -3.47997270 -2.03639349 -2.49978545
  H -2.44124973 -1.61569763 -0.11999371
  H -0.43399225  2.38928062  0.64547441
  H -1.77244652  3.59152199  2.19553670
  H -2.84049240  3.48591823  0.77621455
  H -3.00462434  2.30939030  2.08888391
  H  3.47289443  2.13006374 -0.12057461
  H  4.49127932 -0.14927046 -0.14510331
  H  3.10188418 -0.76938307 -1.05780263
  H  3.40496922  0.04427877  1.84469274
  H  3.04275280 -1.54055113  1.17587442
  H  1.17586744  0.78103020  1.75384181
  H  1.35350272 -0.75961691  2.54850682
  H -0.58857396 -1.17309743  1.55589815
  H  0.47742228 -1.80307686  0.30537612
