14
opt_min/./Reactant_1171_1_opt.xyz
  C -1.60077400  0.63090400 -0.86056000
  N -1.54591596 -0.59718488 -0.42196799
  C -0.53676078 -1.31542146  0.09052536
  C  0.79824291 -0.89753624  0.37554367
  O  1.63086857 -1.63737000  0.86623468
  O  1.07463479  0.40262197  0.05809091
  C  2.38404536  0.84980918  0.36042688
  H -2.53339418  1.01485588 -1.22652853
  H -0.73408024  1.25778054 -0.82516314
  H -2.42022227 -1.11478980 -0.47476200
  H -0.74840749 -2.33944410  0.34526327
  H  2.63410012  1.62077667 -0.36623356
  H  3.08739128  0.01750463  0.29759830
  H  2.41202584  1.26527453  1.37067958
