24
opt_min/./Reactant_4657_0_opt.xyz
  C  3.01111301  0.59727200  0.50124389
  O  1.65064867  0.28234255  0.26941786
  C  1.40723986 -0.78052063 -0.57789213
  O  2.30458169 -1.37831893 -1.13352009
  C  0.02402561 -1.13982792 -0.63002998
  C -0.30385383 -2.40877371 -1.11113151
  N -0.62313005 -3.43642556 -1.52204188
  N -1.01630895 -0.41025243 -0.05712650
  C -1.98674555 -1.19189016  0.69997506
  C -1.19132052  0.87571243 -0.23491341
  C -0.32780787  1.61864121 -1.17989187
  C -2.25574571  1.63367472  0.47928139
  H  3.21399385  0.49921818  1.56902043
  H  3.20133143  1.62462001  0.18273574
  H  3.64660360 -0.08954329 -0.06292261
  H -2.93490069 -1.25320116  0.16223942
  H -1.60254542 -2.20068764  0.83721594
  H -2.15099915 -0.75164900  1.68211256
  H  0.57512262  1.97301080 -0.68105722
  H -0.00846761  0.95222547 -1.98567106
  H -0.84877808  2.47909180 -1.59506142
  H -1.83745742  2.10129719  1.37390509
  H -3.09961351  1.01717275  0.77400322
  H -2.63056728  2.43214904 -0.15818602
