33
opt_min/./Reactant_3193_1_opt.xyz
  C -1.08939182  3.85177407 -0.75364090
  O -0.31721107  2.72950689 -0.35443967
  C -1.00845781  1.59595373 -0.16711433
  O -2.19945883  1.49846271 -0.36076640
  C -0.12725216  0.48038070  0.20228773
  C  1.29942352  0.57746589 -0.13075448
  C  1.70851736  0.91248714 -1.41881464
  C  3.05346665  1.03635231 -1.71171415
  C  4.00351552  0.83468267 -0.72306623
  C  3.60458487  0.51736273  0.56436218
  C  2.26120562  0.38936791  0.86306449
  N -0.65226117 -0.62314230  0.74464996
  C  0.04718592 -1.88817095  0.58435242
  C -1.77240952 -0.59804117  1.49919978
  C -2.10268041  0.58127045  2.17908702
  N -2.32406988  1.52313872  2.79928265
  C -2.72267467 -1.71481142  1.62822014
  C -2.92928790 -2.56516531  0.38569471
  O -3.36701735 -1.90172475  2.63858443
  H -0.38836866  4.67577294 -0.85782467
  H -1.59463554  3.65372136 -1.70088411
  H -1.84137904  4.07788166  0.00456707
  H  0.96596368  1.06320365 -2.18747610
  H  3.36305173  1.29140548 -2.71346996
  H  5.05267266  0.93546018 -0.95486207
  H  4.33971751  0.37867052  1.34325376
  H  1.95102158  0.17602504  1.87771355
  H -0.42186290 -2.65167914  1.20024353
  H  1.08518640 -1.78234066  0.89361045
  H  0.03481701 -2.19337885 -0.46276007
  H -2.50224888 -3.55812037  0.52113918
  H -4.00176672 -2.69655973  0.25704116
  H -2.51738850 -2.10196021 -0.50579237
