31
opt_min/./Reactant_2011_0_opt.xyz
  C  4.04932261  0.38148938  2.41754556
  N  2.83397154  0.09913091  1.68901601
  C  2.58106738  0.72408911  0.48950014
  O  3.39255039  1.47157534 -0.02285453
  C  1.29149342  0.34490897 -0.10601807
  N  0.82446072 -0.88590176  0.22545102
  C -0.38163685 -1.44519688  0.08965555
  C -0.41502283 -2.83725258  0.28136537
  N -0.42740032 -3.96824723  0.48986896
  C -1.64731663 -0.76682536 -0.11863096
  C -1.87113652  0.52931398  0.35574970
  C -3.10754646  1.12099407  0.20364095
  C -4.13822033  0.44231058 -0.42779267
  C -3.92966812 -0.84807755 -0.88913602
  C -2.70082103 -1.45453172 -0.72894215
  C  0.65598663  1.07341711 -1.19545337
  C  1.18963222  2.44318861 -1.50697605
  O -0.25346479  0.57285164 -1.84037086
  H  4.48101523 -0.54693836  2.79250451
  H  3.87050561  1.05932713  3.25575990
  H  4.74226061  0.85511945  1.72419502
  H  2.05956039 -0.23013413  2.24447675
  H  1.53394437 -1.52544495  0.58933080
  H -1.07870645  1.06672072  0.85712840
  H -3.26808796  2.12369783  0.57214472
  H -5.09809413  0.91759650 -0.55998875
  H -4.72893390 -1.38349954 -1.37942520
  H -2.53897476 -2.45859628 -1.09328760
  H  2.24574813  2.39011270 -1.75771458
  H  0.62563000  2.85657891 -2.33886441
  H  1.09712962  3.08828623 -0.63538460
