27
opt_min/./Reactant_1218_0_opt.xyz
  C -3.00800700 -1.29462700 -0.32919500
  C -2.73070985 -0.01499100  0.46994982
  O -3.66567783  0.63817189  0.89025818
  C -1.34085623  0.36404589  0.59738832
  C -0.98761672  1.70434672  0.99887445
  C  0.40963671  1.90866631  1.58605454
  O -1.75069826  2.65034053  0.95533973
  N -0.35314276 -0.60084423  0.41410403
  C -0.41947168 -1.78428296  1.25554456
  C  0.66237917 -0.42669376 -0.39774509
  C  0.64964684  0.67138372 -1.39469047
  C  1.82370117 -1.35954560 -0.38141225
  H -2.21712407 -1.53023490 -1.03545025
  H -3.15703343 -2.13411262  0.34837184
  H -3.94078285 -1.14229907 -0.86689743
  H  0.92371179  0.98351184  1.83219482
  H  1.02342962  2.49313548  0.90289836
  H  0.28080058  2.49922351  2.49079919
  H -1.25824154 -1.68121921  1.93780209
  H -0.55370351 -2.68826283  0.65681944
  H  0.49804047 -1.89096106  1.83515693
  H  1.04276899  0.30607207 -2.34385334
  H  1.26729953  1.51469165 -1.08916640
  H -0.36624343  1.04318509 -1.52766507
  H  1.53923721 -2.36231461 -0.70180382
  H  2.24326381 -1.44658257  0.62245194
  H  2.60361907 -0.99882105 -1.04593398
