37
opt_min/./Reactant_2954_1_opt.xyz
  C  2.35779323  3.44318064  1.91983796
  O  1.67225083  2.39271920  1.24975816
  C  2.29336985  1.87408793  0.18303437
  O  3.35056329  2.25286875 -0.22843426
  C  1.43381255  0.76611487 -0.43003125
  C  2.30334159 -0.29680370 -1.11640372
  O  3.41852014 -0.14229413 -1.51566957
  O  1.59926516 -1.42912864 -1.23604683
  C  2.22093293 -2.52509323 -1.89944750
  C  0.52174301  0.17574350  0.51754349
  C -0.48572972 -0.31798395  0.94626580
  C -1.90043104 -0.46709305  1.06557421
 Br -2.50426575 -0.83555773  2.94788954
  C -2.40378276 -1.68907239  0.28621177
  C -1.63747383 -2.95588049  0.52657726
  O -3.35908957 -1.60636015 -0.43743025
  C -2.54203331  0.84500767  0.60555407
  C -2.09113198  1.40903266 -0.75799394
  C -0.73383472  2.13441542 -0.88712471
  C  0.45993980  1.36622033 -1.49194012
  H  3.37811210  3.13793289  2.15707725
  H  1.79390636  3.64279404  2.82720277
  H  2.39467113  4.33274212  1.28784248
  H  3.17664996 -2.21194168 -2.32249525
  H  2.37872716 -3.32535692 -1.17602120
  H  1.54776762 -2.86322889 -2.68640836
  H -0.58365262 -2.75056323  0.69684834
  H -2.04586489 -3.44846874  1.40924009
  H -1.76363705 -3.62451737 -0.32132959
  H -3.61759540  0.65734435  0.53093003
  H -2.38525237  1.60951398  1.37044380
  H -2.84880204  2.17081910 -0.96399578
  H -2.18699210  0.64681997 -1.53176696
  H -0.45470514  2.56440771  0.07473844
  H -0.90836086  2.97200429 -1.57097699
  H  1.04064984  2.03703910 -2.12962289
  H  0.08610965  0.55255362 -2.11560170
