17
opt_min/./Reactant_1559_1_opt.xyz
  F -0.57487000 -0.20690200  2.75902500
  C -0.56640874 -0.07202743  1.42759444
  C -1.31363029 -0.67786256  0.51252949
  F -2.27321476 -1.59784229  0.66844439
  C -0.81774692 -0.23563049 -0.84242985
  C  0.56075972 -0.92200692 -1.01962169
  C  1.43531437 -0.20397933  0.03393703
  C  0.44127777  0.78037873  0.69858363
  C -0.39894784  1.20493905 -0.51640234
  H -1.51870187 -0.37763028 -1.66420989
  H  0.49575524 -1.98951245 -0.83770142
  H  0.94401750 -0.77363347 -2.02651625
  H  1.86694414 -0.89151620  0.75425544
  H  2.23933849  0.35355047 -0.43741433
  H  0.89786757  1.56852467  1.29566419
  H -1.24163079  1.83641216 -0.24569857
  H  0.19023033  1.66566566 -1.30470117
