31
opt_min/./Reactant_948_1_opt.xyz
  C  4.63007992 -0.16958715 -0.26608644
  N  3.46906027 -0.88553831 -0.73265262
  C  2.30336005 -0.85314708 -0.06392186
  O  2.15077982 -0.32690357  1.02054944
  C  1.20664545 -1.64412988 -0.71010973
  C  1.59011987 -2.75131626 -1.46188587
  N  1.96750333 -3.62654369 -2.11109435
  N -0.07538300 -1.38840406 -0.44164410
  C -1.04354104 -2.44595306 -0.67552699
  C -0.48640657 -0.18152636 -0.02795394
  C  0.31289942  1.00751912 -0.39058318
  O  1.08746763  1.02065909 -1.32566337
  O  0.04347513  2.04453292  0.38224855
  C  0.67811295  3.27403404  0.06885558
  C -1.76234861  0.03199274  0.65647797
  O -2.41609904  1.04439777  0.60872358
  O -2.13429638 -1.04430900  1.38819419
  C -3.32708792 -0.88883937  2.14033275
  H  4.53158741 -0.03199898  0.80959564
  H  4.70429763  0.81170926 -0.74191657
  H  5.52800087 -0.74552542 -0.48510204
  H  3.49451978 -1.26633740 -1.66579941
  H -1.21329131 -3.00301316  0.24602869
  H -0.65681976 -3.12729337 -1.43273766
  H -1.98732583 -2.02196929 -1.01187238
  H -0.01125049  3.89869833 -0.50270979
  H  1.58207645  3.09212420 -0.51563436
  H  0.91944318  3.75579697  1.01453806
  H -4.11968960 -0.47294284  1.51472146
  H -3.15618327 -0.21771289  2.98411582
  H -3.59591897 -1.88121533  2.49514030
