32
opt_min/./Reactant_4802_0_opt.xyz
  C -3.90933500 -1.97976000  0.97074700
  N -2.62528786 -1.39676137  0.67080555
  C -2.41146509 -0.65589716 -0.45648586
  O -3.27334907 -0.48174518 -1.29105677
  C -1.03365915 -0.10497667 -0.53176723
  C -0.85672621  1.21766161 -1.10285060
  O  0.18793524  1.63134419 -1.57274265
  O -1.98452828  1.94635405 -1.05975023
  C -1.93844311  3.18815991 -1.73814756
  N  0.03732036 -0.89470841 -0.26156293
  C -0.07872642 -2.30301126 -0.59305652
  C  1.18584416 -0.41205658  0.22587226
  C  1.19285470  0.93243467  0.86085724
  C  2.43294669 -1.16024148  0.12198626
  C  3.68937567 -0.38643130  0.44855849
  O  2.50642991 -2.33043227 -0.22351603
  H -4.56648484 -1.76269694  0.13039176
  H -3.81973858 -3.06109863  1.09305056
  H -4.33433367 -1.55052035  1.87978270
  H -1.91894014 -1.43812870  1.38711987
  H -2.88231614  3.68250741 -1.52482847
  H -1.09786629  3.78958936 -1.38226629
  H -1.82727195  3.03162762 -2.81312508
  H  0.65709138 -2.55133766 -1.36085839
  H  0.14075633 -2.92953536  0.27158962
  H -1.07299632 -2.50687974 -0.98066770
  H  0.19147386  1.16813591  1.22477599
  H  1.89460455  0.96366517  1.68964919
  H  1.45707739  1.71356780  0.14289886
  H  3.69935695  0.56234290 -0.08194858
  H  3.75611882 -0.19071674  1.51607102
  H  4.54861432 -0.98223223  0.15215379
