36
opt_min/./Reactant_5762_0_opt.xyz
  C  0.37963600  3.49993200  0.63390900
  O  0.36883655  2.17929370  0.12169611
  C -0.62921928  1.37293976  0.56486231
  O -1.51979329  1.78316955  1.27444392
  C -0.60559120  0.04444709 -0.03564987
  C -1.84346871 -0.73546141  0.04235234
  C -3.09486273 -0.14509001 -0.13577155
  C -4.24715183 -0.89893519 -0.01807530
  C -4.17242289 -2.25003306  0.27794804
  C -2.93594302 -2.84578185  0.46666173
  C -1.78096425 -2.09825684  0.35089505
  N  0.46048359 -0.43718725 -0.70266233
  C  0.21145184 -1.33486360 -1.82431868
  C  1.73292676 -0.11533677 -0.41033424
  C  2.83368710 -0.35442938 -1.39895378
  C  2.07339643  0.22670653  0.95429544
  O  1.30885602  0.23278574  1.90046213
  O  3.40201097  0.46717412  1.11438365
  C  3.80352943  0.74746666  2.44299255
  H -0.20156646  4.15825605 -0.01683507
  H -0.05051805  3.51275520  1.63723133
  H  1.42019057  3.81950937  0.65480562
  H -3.15603826  0.90685791 -0.36479183
  H -5.20988204 -0.43038927 -0.15993915
  H -5.07631582 -2.83428066  0.37053462
  H -2.87429945 -3.89496426  0.71754009
  H -0.82062638 -2.55557068  0.53881762
  H  0.45378142 -2.36365020 -1.55826366
  H -0.83743932 -1.28003125 -2.10507482
  H  0.82309782 -1.04089028 -2.67367256
  H  3.03202963 -1.41929914 -1.53954954
  H  3.74271319  0.11052796 -1.03351494
  H  2.59364158  0.08699473 -2.36646757
  H  3.21846393  1.57424592  2.85255635
  H  3.65782420 -0.12862641  3.07949526
  H  4.85736846  1.00979666  2.39182462
