40
opt_min/./Reactant_5788_1_opt.xyz
  C -2.09892500  3.14312600  2.25770000
  N -1.86822216  1.78293038  1.84009594
  C -2.66830383  1.17282218  0.92554085
  O -3.69771790  1.65898049  0.52515146
  C -2.23200645 -0.21343141  0.56295091
  C -3.35537358 -1.12976392  0.29724131
  O -4.38138648 -1.15932470  0.92468810
  O -3.09601800 -1.93696075 -0.75909284
  C -4.14123252 -2.79551308 -1.19025664
  N -0.95888191 -0.59128710  0.45548891
  C -0.61345240 -1.99959661  0.60876087
  C  0.06037336  0.26186816  0.22570857
  C -0.17287938  1.47823436 -0.53315029
  O -1.18937675  1.75503585 -1.13032800
  O  0.92357823  2.27352144 -0.55278550
  C  0.80314065  3.44027155 -1.34836620
  C  1.43739574 -0.08718785  0.60641614
  C  1.75197636 -0.32339501  1.94603505
  C  3.04870156 -0.61790822  2.32190426
  C  4.05267917 -0.67808380  1.37000227
  C  3.75283770 -0.43837180  0.03942345
  C  2.45663594 -0.14515225 -0.34064046
  H -2.20066179  3.19716979  3.34274150
  H -3.02502717  3.47064714  1.78915554
  H -1.28029203  3.79283825  1.93870170
  H -0.99972730  1.35826491  2.12225221
  H -4.99393530 -2.71024080 -0.51440436
  H -4.43551785 -2.50338666 -2.19818133
  H -3.76351522 -3.81885478 -1.19672271
  H -0.18462761 -2.37403794 -0.32028343
  H  0.12536882 -2.11199182  1.40039738
  H -1.49322642 -2.58013176  0.86427759
  H  1.68962551  4.03593533 -1.14554317
  H  0.75274760  3.17811645 -2.40702646
  H -0.10321991  3.98950002 -1.08397148
  H  0.97947680 -0.25598060  2.70144335
  H  3.27786632 -0.79187054  3.36301956
  H  5.06525104 -0.90569598  1.66674602
  H  4.53214268 -0.48282570 -0.70615625
  H  2.22373278  0.03546821 -1.37870264
