38
opt_min/./Reactant_5828_1_opt.xyz
  C  3.48986100 -0.28689300  2.64516500
  N  3.23079716 -0.42764632  1.23123940
  C  2.40235173  0.45690476  0.60659836
  O  2.01748851  1.49160762  1.12577062
  C  2.14299229  0.15662711 -0.81754678
  C  3.24475639 -0.33984636 -1.69623127
  N  0.93357841  0.41209241 -1.30452116
  C  0.77156423  0.60376616 -2.73498626
  C -0.15789913  0.42886340 -0.49706265
  C -0.17200296 -0.45153851  0.66365297
  O  0.61976117 -1.38219029  0.81629013
  N -1.18081399 -0.22064008  1.54226328
  C -1.41116204 -1.05837881  2.68706636
  C -1.33619794  1.20358187 -0.87348579
  C -1.21420962  2.56952603 -1.15306923
  C -2.32656863  3.31161143 -1.50329371
  C -3.57282942  2.71283020 -1.57500004
  C -3.70641711  1.36127151 -1.29887208
  C -2.60111816  0.60865165 -0.95608206
  H  4.56736291 -0.28586695  2.82923162
  H  3.06733370  0.66465283  2.96770308
  H  3.02811900 -1.09659405  3.21253194
  H  3.18976548 -1.37250024  0.88210209
  H  3.39290196  0.30030861 -2.56690777
  H  4.17589293 -0.36453893 -1.13486448
  H  3.02828186 -1.34809950 -2.05649686
  H  1.45975241  1.36673158 -3.09647674
  H -0.24904577  0.91267969 -2.94110601
  H  0.97221897 -0.33287757 -3.25849891
  H -1.78027985  0.57557665  1.39976024
  H -0.61750179 -1.80620826  2.70048741
  H -2.37981521 -1.56123707  2.62228260
  H -1.37501867 -0.47367167  3.60944157
  H -0.24274202  3.03357049 -1.07887220
  H -2.22424394  4.36651891 -1.71396601
  H -4.43955859  3.29826065 -1.84615464
  H -4.67899623  0.89279554 -1.36056645
  H -2.69383959 -0.44688834 -0.75337292
