34
opt_min/./Reactant_915_0_opt.xyz
  C  0.25355300  3.98061700 -0.00872200
  N -0.13611027  2.59195447 -0.02597699
  C  0.79689019  1.61908220  0.32360356
  O  1.85487441  1.94904189  0.84220369
  C  0.43102502  0.25370401  0.02039709
  C  1.43887973 -0.79153949  0.03342083
  C  1.09410233 -2.09843059  0.40732955
  C  2.03760222 -3.10475899  0.43710851
  C  3.35590234 -2.83777805  0.10777031
  C  3.71744995 -1.54693565 -0.24517250
  C  2.77680162 -0.53878641 -0.28931727
  N -0.86721979 -0.10389585 -0.27845225
  C -1.07210694 -0.97005321 -1.43171585
  C -1.91757844  0.33347146  0.39677530
  C -1.74371505  0.98325854  1.71817722
  C -3.30296066  0.18077880 -0.14143332
  H -0.60533806  4.60039244  0.25381142
  H  0.65646604  4.31554391 -0.97033016
  H  1.02936991  4.08750889  0.74819808
  H -0.82662743  2.34234830 -0.71855581
  H  0.07689427 -2.31568129  0.70559097
  H  1.74478446 -4.10355099  0.73099978
  H  4.09481343 -3.62516649  0.13710705
  H  4.74539189 -1.32830904 -0.49676506
  H  3.07317836  0.45943876 -0.56499278
  H -0.12121694 -1.41590607 -1.71145749
  H -1.43566524 -0.37927452 -2.27625366
  H -1.79262008 -1.75754196 -1.21480009
  H -0.80719314  0.65526958  2.17048352
  H -1.69034375  2.07196242  1.63877129
  H -2.58159557  0.72965642  2.36649997
  H -3.71094465 -0.80779829  0.08337674
  H -3.95738546  0.91660124  0.32101233
  H -3.34066677  0.31660249 -1.22097865
