23
opt_min/./Reactant_2982_1_opt.xyz
  C  0.63141858  2.33872750 -3.29152225
  O  0.01441984  1.27823189 -2.57456867
  C  0.41369302  1.10456493 -1.32248264
  O  1.24376891  1.77880946 -0.75608704
  C -0.28417622 -0.01740253 -0.65894040
  N  0.05809361 -0.24663306  0.56289595
  C  0.43146691 -0.38196162  1.66734397
  C  0.94059210 -0.45725015  2.97791589
  C  1.98602329  0.62254653  3.17638457
  O  0.59303645 -1.25820592  3.81522882
  C -1.31390892 -0.85605065 -1.29139196
  O -1.72520102 -0.75397331 -2.41499804
  O -1.74531887 -1.78010407 -0.40933957
  C -2.75680315 -2.66055614 -0.87827020
  H  0.67345886  3.23845647 -2.67489245
  H  0.02445674  2.49386464 -4.17811643
  H  1.64949796  2.05635078 -3.56964890
  H  2.04552388  1.28700486  2.31914247
  H  2.94913311  0.14139317  3.33725950
  H  1.74702290  1.18779223  4.07419115
  H -3.71460685 -2.13964102 -0.92775233
  H -2.50239524 -3.03485441 -1.87139831
  H -2.80216638 -3.47343468 -0.15842396
