33
opt_min/./Reactant_2353_0_opt.xyz
  C -3.61415600 -2.81767800 -0.71252100
  N -2.84773344 -1.62349562 -0.46154586
  C -1.51598714 -1.67822189 -0.26225563
  O -0.90138178 -2.73847126 -0.22946324
  C -0.82900171 -0.37594371 -0.12953870
  C -1.51655142  0.87757140 -0.14974360
  O -2.71362688  1.04157257 -0.33715104
  O -0.70395925  1.92870655  0.16555084
  C -1.33292586  3.19059232  0.28543471
  N  0.53158099 -0.40691086  0.09743894
  C  0.97028433 -1.28521776  1.16390323
  C  1.37891241  0.31174515 -0.60915275
  C  0.99488590  0.96961701 -1.89682588
  C  2.81507956  0.48817115 -0.31609811
  O  3.54767248  1.09609410 -1.06570284
  O  3.26410599 -0.05059634  0.83246379
  C  4.64512063  0.14589487  1.10150770
  H -3.67062117 -3.03657535 -1.78348147
  H -3.12474916 -3.65649968 -0.21727174
  H -4.62251833 -2.69300374 -0.32199351
  H -3.31720865 -0.72846759 -0.51165826
  H -1.76050652  3.30608401  1.28487330
  H -0.56000239  3.93843193  0.12053395
  H -2.13167001  3.28863189 -0.45259382
  H  0.10740916 -1.79991000  1.57536245
  H  1.67886121 -2.02415803  0.79313308
  H  1.44703239 -0.69553166  1.94612602
  H  1.37361132  0.34740068 -2.71217389
  H -0.07126899  1.09416455 -2.02445539
  H  1.49160296  1.93337327 -1.97867131
  H  5.24303135 -0.13661426  0.23313227
  H  4.87768002 -0.48356987  1.95633382
  H  4.83990641  1.19557343  1.33218446
