10
opt_min/./Reactant_4583_1_opt.xyz
  O  2.88813886 -0.84774211  0.48997442
  C  2.68168421 -0.14624261 -0.38986373
  O  2.49208181  0.54764871 -1.27844385
  C -0.31413792 -0.29709991  0.46454335
  C -0.73310314  0.41968893 -0.39372495
  C -3.79772242  0.43158280  0.24994148
  O -3.66462859 -0.25930556  1.15124713
  O -3.94723717  1.13751489 -0.63824281
  H  0.04780263 -0.92551815  1.22419400
  H -1.09294277  1.05056630 -1.15241563
