20
opt_min/./Reactant_1119_1_opt.xyz
 Cl -2.34460345  1.73404905 -0.93899717
  C -1.56883015  0.14370636 -1.25024073
 Cl -2.45569891 -0.64346772 -2.60782515
  C -0.18169752  0.32274377 -1.50981912
  C  0.99940171  0.28626508 -1.29697593
  C  2.20978791  0.24789657 -0.53218776
  C  1.72460669  0.51657046  0.90285571
  C  0.64833686 -0.42529377  1.48160016
  C -0.87668837 -0.26702747  1.25782768
  C -1.64144405 -0.73820703  0.00247698
  H  2.93483015  1.00368873 -0.84511444
  H  2.67230351 -0.73949298 -0.61868795
  H  1.37506505  1.54669737  0.98510930
  H  2.59634981  0.41276305  1.55808073
  H  0.93138278 -1.46529624  1.28880264
  H  0.73506315 -0.26470671  2.56388677
  H -1.16758243  0.76124108  1.49066521
  H -1.29646966 -0.90794323  2.04320912
  H -2.69491335 -0.80374496  0.29213997
  H -1.31164731 -1.74307384 -0.26731842
