23
opt_min/./Reactant_2864_1_opt.xyz
  C -3.97245100  1.61359500  0.19412200
  N -3.08294120  0.49556261 -0.01253623
  C -1.74635498  0.62563014  0.20202756
  O -1.24838686  1.65822520  0.60601948
  C -0.93753553 -0.57812308 -0.10169390
  C -1.52492328 -1.92361084 -0.40231132
  O  0.33360291 -0.36011438 -0.08109108
  C  1.31800586 -1.16637441 -0.33258557
  C  2.68403465 -0.70229050 -0.22705345
  O  3.64457426 -1.40940681 -0.44922342
  O  2.76883388  0.59039092  0.13153237
  C  4.07891897  1.11514352  0.25134423
  H -4.03060398  2.24679190 -0.69567189
  H -3.57853637  2.21382125  1.01271777
  H -4.96636542  1.25010479  0.44438060
  H -3.45598362 -0.32568267 -0.45417304
  H -2.43306932 -2.08480862  0.17309100
  H -0.81894014 -2.70678707 -0.13194171
  H -1.75693942 -2.03237947 -1.46378656
  H  1.17102056 -2.19732816 -0.62509602
  H  4.56250153  0.72690493  1.15078538
  H  3.96816234  2.19429949  0.31739810
  H  4.68083651  0.83843664 -0.61682271
