13
opt_min/./Reactant_3254_1_opt.xyz
  C  2.74555546  2.57524093 -0.50856360
  N  1.67188674  2.17306064 -0.20600511
  C  0.69188393  1.51659718  0.27591564
  C  0.33622061  0.21343618 -0.28765365
  O  0.92677120 -0.31944160 -1.21043468
  N -0.73025617 -0.36390855  0.33473122
  C -1.27286083 -1.61069873 -0.14282651
  H  3.10228772  3.22571279 -1.26821582
  H  0.10815266  1.96861200  1.06248500
  H -1.22440973  0.13261284  1.05551248
  H -1.91303991 -1.45418183 -1.01682513
  H -0.45041492 -2.26257367 -0.43665513
  H -1.84899053 -2.07708323  0.65326344
