28
opt_min/./Reactant_3084_1_opt.xyz
  C  4.96143001 -1.19070099 -1.49350897
  O  3.81822628 -0.36288247 -1.36597876
  C  2.74864799 -0.91754659 -0.74790815
  O  2.75358292 -2.05754105 -0.32540737
  C  1.67012637  0.04753795 -0.67341533
  C  1.91190875  1.30796412 -1.22881512
  N  2.11084700  2.34438994 -1.69013774
  N  0.44890331 -0.19918251 -0.09950094
  C  0.22262528 -1.51836678  0.44943375
  C -0.50555990  0.70337508 -0.10897438
  C -1.77702651  0.63803335  0.58094068
  C -1.89498124  0.17805173  1.89710497
  C -3.12319192  0.17829878  2.52932993
  C -4.25080936  0.63518152  1.86707434
  C -4.14086825  1.11795964  0.57233904
  C -2.91530704  1.13202389 -0.06142347
  H  5.59439263 -0.72581498 -2.24564551
  H  4.67121394 -2.19807359 -1.80035427
  H  5.49150679 -1.25202799 -0.53947444
  H -0.82692001 -1.64265646  0.70332400
  H  0.51300862 -2.26820671 -0.28671390
  H  0.84799736 -1.67697638  1.32875389
  H -0.31306406  1.58843155 -0.70264542
  H -1.01532253 -0.13573460  2.43861687
  H -3.20062829 -0.17073276  3.54812872
  H -5.20871255  0.62850360  2.36448647
  H -5.01759124  1.48797769  0.06257210
  H -2.82743694  1.50979031 -1.06917652
