30
opt_min/./Reactant_2057_1_opt.xyz
  C  3.45561486  0.64447814  2.51261027
  O  2.09320463  0.82566160  2.14017261
  C  1.65158331  0.15384046  1.08552490
  O  2.32452846 -0.56915907  0.39881994
  C  0.15104952  0.36459515  0.82180855
  O -0.51723606  1.16929319  1.76577862
  C -0.24678395  2.55323021  1.81999282
  C -0.49988126 -0.96541975  0.94695040
  C -1.21758758 -1.80063826  0.42934433
  C -2.00283112 -2.50088540 -0.57499911
 Br -0.77697080 -3.69822233 -1.56766338
 Br -3.37172530 -3.66215444  0.29653410
  C -2.77424548 -1.61984851 -1.62869543
  C -1.99697128 -0.49813512 -2.40338987
  C -1.11265429  0.00046832 -1.26318341
  C -0.01180801  0.89842518 -0.72025740
  H  4.03647687  1.50235363  2.17030846
  H  3.48459956  0.58199502  3.59846203
  H  3.84697611 -0.26805814  2.06034192
  H -0.70841313  2.88727922  2.74759801
  H -0.70592173  3.09627437  0.98713077
  H  0.82334639  2.76594540  1.85185476
  H -3.22901223 -2.31626827 -2.33687154
  H -3.58125803 -1.13171213 -1.07513834
  H -1.41923032 -0.91419006 -3.22818706
  H -2.72238628  0.21402777 -2.79798800
  H -1.86161543  0.11985368 -0.47189530
  H -0.54557477 -0.92361480 -1.17560692
  H  0.93628265  0.74827455 -1.23612741
  H -0.23779114  1.95973540 -0.67257369
