25
opt_min/./Reactant_3063_0_opt.xyz
  C  2.26187012  0.12295513  3.45269792
  N  2.02110087 -0.43729700  2.14686250
  C  0.98700179 -0.03248643  1.37011959
  O  0.20062284  0.82979666  1.73086703
  C  0.90892241 -0.73673334  0.06857712
  C  1.88977247 -1.68869849 -0.20565795
  N  2.71511291 -2.47454553 -0.38848910
  N -0.05485721 -0.52356886 -0.85523969
  C  0.02656560 -1.35878534 -2.04406124
  C -0.98714021  0.40266024 -0.75546484
  C -2.08472040  0.63225247 -1.67468331
  O -2.36385609  0.02295209 -2.68978522
  O -2.80806152  1.67883883 -1.23101081
  C -3.93607196  2.05003085 -2.00561078
  H  3.22203609  0.64262860  3.47861415
  H  1.46209987  0.83303547  3.65889156
  H  2.25885887 -0.66080982  4.21217808
  H  2.64605993 -1.15542401  1.81492289
  H -0.90224066 -1.28993899 -2.60633820
  H  0.85510816 -1.01739689 -2.66688195
  H  0.20873464 -2.39650141 -1.76594573
  H -0.97918131  1.02078456  0.12992768
  H -4.80495659  1.46069296 -1.70378854
  H -4.11467259  3.10527991 -1.81039522
  H -3.74128703  1.87890984 -3.06671804
