30
opt_min/./Reactant_2420_0_opt.xyz
  C -0.67032400  4.03871100  0.90311800
  N -0.09241287  2.74149640  0.64231336
  C -0.88636090  1.66192143  0.38910550
  O -2.09750966  1.78045718  0.31889975
  C -0.21693654  0.35796504  0.19248206
  N  1.09515420  0.25180287  0.23725359
  C  1.94031816 -0.75416333  0.00220972
  C  3.31712898 -0.40120949  0.12741100
  C  4.32516007 -1.48527187 -0.16273649
  O  3.63462369  0.75479999  0.42578399
  C -1.06555618 -0.81156024 -0.04198045
  C -2.10299613 -0.77009585 -0.97237175
  C -2.91355348 -1.87296617 -1.16321216
  C -2.70925594 -3.03179783 -0.43400626
  C -1.68450193 -3.08051917  0.49783955
  C -0.86927940 -1.98457195  0.69247725
  H -1.69517309  4.02164985  0.53746723
  H -0.10284955  4.80809416  0.38100273
  H -0.68129921  4.26072678  1.97308312
  H  0.89649895  2.66445505  0.80690326
  H  1.65839981  1.08435930  0.45776412
  H  1.59991525 -1.72675576 -0.29404694
  H  5.33202931 -1.11356803  0.00124442
  H  4.15635952 -2.34685285  0.47909019
  H  4.21773877 -1.80047341 -1.19722277
  H -2.26498654  0.12682898 -1.54642369
  H -3.71152051 -1.82787092 -1.88934645
  H -3.34549809 -3.89090491 -0.58399331
  H -1.52462228 -3.97609268  1.08002323
  H -0.09722971 -2.02098916  1.44710084
