26
opt_min/./Reactant_2684_1_opt.xyz
  C  4.46717447 -0.31200546 -0.62399742
  O  3.21576204 -0.20874229  0.04427935
  C  2.18143106  0.14936213 -0.70278488
  O  2.22155325  0.36576114 -1.88293545
  C  0.88959308  0.19042190  0.12516086
  F  1.19263366  0.45745118  1.44401739
  C -0.10491339  1.10459859 -0.40597768
  C -1.19823427  1.33855180 -0.85483465
  C -2.57882368  1.04456829 -1.10544732
 Cl -3.61593665  2.47228447 -1.40239425
 Cl -2.59371439  0.05105154 -2.61208632
  C -3.10110787  0.19931746  0.08859818
  C -2.07429256 -0.21908210  1.16345866
  C -1.08544144 -1.36831705  0.89123580
  C  0.16371777 -1.17493148  0.00439045
  H  4.76017681  0.65797435 -1.02942825
  H  4.39791680 -1.02968607 -1.44357755
  H  5.18130320 -0.64641291  0.12313452
  H -3.84995844  0.80786206  0.60064873
  H -3.59807452 -0.68626477 -0.30700753
  H -1.53469242  0.65821145  1.51556562
  H -2.68412941 -0.56705714  2.00097727
  H -1.63467128 -2.20881555  0.46451228
  H -0.72921780 -1.67683432  1.87686602
  H -0.09578326 -1.28154928 -1.05030903
  H  0.87601547 -1.96506134  0.25575842
