28
opt_min/./Reactant_1229_0_opt.xyz
  C  4.99911699 -1.38066603  2.23116133
  N  3.74255141 -1.00894058  1.65217579
  C  2.71240825 -1.86947597  1.46584277
  O  2.72090254 -3.03595386  1.78692259
  C  1.57615289 -1.16739634  0.82439766
  N  0.37385191 -1.56843398  0.56658650
  C -0.27486549 -0.49612244  0.01281904
  C  0.61565415  0.55118462 -0.05994118
  C  0.59110025  1.93353712 -0.59542640
  O  1.78681595  0.12164328  0.45813751
  C -1.67193314 -0.55356402 -0.38363944
  C -2.25965433 -1.77267593 -0.71135934
  C -3.57702827 -1.81435149 -1.12777370
  C -4.32089815 -0.64852234 -1.21600884
  C -3.74900397  0.56267222 -0.86409581
  C -2.43297336  0.61205676 -0.44738739
  H  5.81139815 -1.26671380  1.50919532
  H  4.93134603 -2.42640426  2.52899698
  H  5.21555639 -0.76916566  3.10951107
  H  3.64409851 -0.05849724  1.33380619
  H -0.06741929  1.99626497 -1.45686729
  H  0.25237011  2.63817648  0.16467035
  H  1.60224953  2.21114983 -0.88811950
  H -1.66873088 -2.67195564 -0.63615448
  H -4.02841626 -2.75995618 -1.38951183
  H -5.34699281 -0.68237866 -1.55079764
  H -4.32864896  1.47293981 -0.91287138
  H -1.99945490  1.55294691 -0.14782562
