37
opt_min/./Reactant_2118_0_opt.xyz
  C  0.93827469 -3.02060273  0.24131599
  C -0.09693471 -1.97158709 -0.10394790
  O -1.24857362 -2.28842519 -0.38541781
  C  0.34124692 -0.60261631 -0.02227868
  C  1.69783432 -0.29567651  0.48549396
  C  1.96681692 -0.23765672  1.85039419
  C  3.24608074  0.03199892  2.30049587
  C  4.27000290  0.24901839  1.39332456
  C  4.01200112  0.19051530  0.03487653
  C  2.73379047 -0.08199774 -0.41774849
  N -0.53612806  0.41049408 -0.20027744
  C -0.23133679  1.68955230  0.41789271
  C -1.61457404  0.31477682 -0.99874758
  C -1.57075013 -0.55814898 -2.09833319
  N -1.50814155 -1.12715554 -3.09642594
  C -2.82110078  1.10263225 -0.83512053
  C -3.58233272  1.44712806 -1.95821022
  C -4.75110529  2.16802064 -1.82198991
  C -5.19242574  2.55640737 -0.56711139
  C -4.45992121  2.20273424  0.55367024
  C -3.28827859  1.48304750  0.42687201
  H  1.40458541 -2.81992473  1.20333830
  H  0.45482448 -3.99409689  0.26035999
  H  1.71363305 -3.02263181 -0.52255792
  H  1.17070402 -0.41799632  2.56054155
  H  3.44475777  0.07316439  3.36188059
  H  5.26843924  0.46074741  1.74625846
  H  4.80999825  0.35356352 -0.67583838
  H  2.52823120 -0.13006729 -1.47844120
  H -0.92030612  2.45126703  0.05964587
  H  0.78905131  1.97565419  0.15194235
  H -0.29239753  1.62475253  1.50459670
  H -3.24035724  1.14376129 -2.93642192
  H -5.32398083  2.42700855 -2.70032145
  H -6.10658102  3.12146305 -0.46298674
  H -4.81109901  2.47955539  1.53756451
  H -2.75734573  1.17373659  1.31537672
