21
opt_min/./Reactant_3344_1_opt.xyz
  C  4.26241839  0.41981688 -0.48146682
  N  2.86561271  0.13400924 -0.26639641
  C  1.92988134  1.12285738 -0.28457942
  O  2.17397601  2.31043080 -0.42298356
  C  0.59640221  0.68679689 -0.11981280
  N -0.55657713  0.47021408  0.01866740
  C -1.81969718  0.27226103  0.10419704
  C -2.74108350  1.45972336  0.11691982
  C -2.36827273 -1.06243249  0.24628671
  C -1.37139985 -2.20387963  0.28500605
  O -3.56799701 -1.24995945  0.34230094
  H  4.58203694  0.10505428 -1.47842927
  H  4.86927167 -0.08623831  0.26880456
  H  4.39182787  1.49749705 -0.39428263
  H  2.58012983 -0.82727874 -0.18252243
  H -2.37223042  2.24723695 -0.53583165
  H -3.72130354  1.12414191 -0.21242224
  H -2.83961329  1.86330081  1.12537577
  H -1.88477203 -3.13594080  0.06764010
  H -0.95839032 -2.26499026  1.29171839
  H -0.56025519 -2.05276940 -0.42175582
