34
opt_min/./Reactant_2671_1_opt.xyz
  C -3.43732500 -2.46172200  0.16927600
  N -2.70542678 -1.23828116 -0.03905313
  C -1.35605980 -1.23042198 -0.22350313
  O -0.71575491 -2.26541067 -0.25704776
  C -0.76689770  0.11238639 -0.37260208
  C  0.54422857  0.43986887 -0.32219370
  C  1.73647082 -0.39151945 -0.27875373
  C  1.86792719 -1.50727880 -1.10298781
  C  3.02296297 -2.26578012 -1.07081375
  C  4.06185421 -1.92644880 -0.22114520
  C  3.94677662 -0.81088665  0.59134284
  C  2.79935516 -0.04237369  0.55587437
  C  0.61923134  1.94949205 -0.25722528
  C  0.08792986  2.35550583  1.13695770
  C -1.40123632  1.97309226  1.06638930
  C -1.53873953  1.41909491 -0.36920423
  C -0.57357034  2.32302519 -1.13633536
  H -3.68334139 -2.60604503  1.22614983
  H -2.80146325 -3.28509082 -0.15491504
  H -4.35869808 -2.45055105 -0.41434800
  H -3.21483522 -0.37354034  0.04386368
  H  1.06385612 -1.77489767 -1.76791576
  H  3.11018045 -3.12958164 -1.71362432
  H  4.96061697 -2.52551051 -0.19196994
  H  4.75658601 -0.53852408  1.25323208
  H  2.71635537  0.82413881  1.19538807
  H  1.58705480  2.37469688 -0.51186625
  H  0.21491002  3.43004031  1.27876177
  H  0.60881790  1.84038520  1.94237195
  H -1.66790667  1.21760665  1.80578767
  H -2.04539227  2.84010064  1.21581550
  H -2.55933503  1.39355475 -0.74879641
  H -0.83865170  3.37881460 -1.08882512
  H -0.44808655  2.02077943 -2.17545276
