22
opt_min/./Reactant_4796_0_opt.xyz
  C  3.41378900 -0.34649600  2.44841500
  O  2.10174611 -0.66659070  2.01317253
  C  1.63376978  0.00913549  0.94955256
  O  2.27716510  0.85469516  0.37596117
  C  0.25274331 -0.43117564  0.62017558
  O -0.12312998 -1.35552550  1.45596024
  N -1.28615281 -1.97465846  1.45800117
  C -0.52437756  0.11655677 -0.47606607
  C -1.83835796 -0.31941911 -0.71308825
  C -2.57695203  0.20587868 -1.75584747
  C -2.03644892  1.17093371 -2.58917164
  C -0.73983265  1.60878717 -2.36768192
  C  0.00936268  1.09443910 -1.33002271
  H  3.44327653 -0.52886135  3.52061519
  H  3.64250844  0.69772973  2.22685365
  H  4.13816440 -0.98712559  1.94075646
  H -1.23676019 -2.62892425  2.24473828
  H -2.27780912 -1.07014686 -0.07862932
  H -3.58541040 -0.14623670 -1.91521855
  H -2.62250025  1.57408313 -3.40172063
  H -0.30883159  2.36021687 -3.01266959
  H  1.01331829  1.45060801 -1.17907838
