23
opt_min/./Reactant_3482_1_opt.xyz
  C -2.90631400 -0.57473000  0.84303700
  C -2.17206592 -0.46204785 -0.45240526
  C -2.89640423 -0.48328160 -1.75838250
  O -0.88648698 -0.31724759 -0.51124155
  C -0.03507251 -0.25388202  0.48541858
  C  1.35483116 -0.10088901  0.22830458
  C  2.26424013 -0.03627996  1.29808937
  C  3.61428971  0.11490266  1.07133118
  C  4.10659106  0.20665411 -0.22313354
  C  3.22351522  0.14350932 -1.29081590
  C  1.87203794 -0.00736367 -1.07531689
  H -2.74403702  0.31298426  1.46060529
  H -2.56057884 -1.43920106  1.41585093
  H -3.96937905 -0.68334761  0.65936859
  H -2.18166374 -0.39904857 -2.57199148
  H -3.45920359 -1.40985623 -1.87998591
  H -3.60530758  0.34341637 -1.82506546
  H -0.39342474 -0.32409482  1.50325227
  H  1.88896320 -0.10750081  2.30921622
  H  4.29566761  0.16237097  1.90928428
  H  5.16610471  0.32571825 -0.39246811
  H  3.59967369  0.21370696 -2.30216561
  H  1.19068483 -0.05611020 -1.91254779
