43
opt_min/./Reactant_2276_0_opt.xyz
  C -2.44199672  2.05788345 -3.56811250
  N -1.95893766  1.43116939 -2.36025727
  C -2.81020090  0.90052798 -1.45012630
  O -4.00485200  0.90313490 -1.58704425
  C -2.04867802  0.25468377 -0.26278738
  C -2.94283848  0.14797894  0.99833567
  O -4.14593815  0.16304617  0.97564984
  N -2.22210639 -0.03441133  2.12663180
  C -2.83956652 -0.18890227  3.42041189
  C -0.80484356  0.91617083  0.00538486
  C  0.36806322  1.09602223  0.18341838
  C  1.68775290  0.74618693  0.65727132
  C  2.65453821  0.44630853 -0.49803457
  O  3.82305855  0.22687705 -0.35527178
  O  2.00653299  0.41786128 -1.65777695
  C  2.77585985  0.10529880 -2.81417023
  C  2.26638267  1.84819243  1.55200496
  F  3.54842072  1.67525177  1.87096710
  F  1.59697136  1.93256373  2.71564285
  F  2.16683717  3.05153138  0.96978936
  C  1.41508588 -0.54480438  1.47192748
  C  0.89268022 -1.76378450  0.68452336
  C -0.41358130 -2.01276269 -0.18086988
  C -1.63410140 -1.17478423 -0.72228049
  H -2.50348464  1.33590239 -4.38719113
  H -3.44167733  2.44715947 -3.37808146
  H -1.77810639  2.87081251 -3.85417856
  H -0.96835488  1.44100964 -2.17308733
  H -1.21724957 -0.01753140  2.07795491
  H -3.91291411 -0.28112413  3.26433961
  H -2.64297064  0.68048261  4.05177698
  H -2.46374680 -1.08479556  3.91647945
  H  2.08320996 -0.30512735 -3.54490698
  H  3.55367250 -0.61854067 -2.56515157
  H  3.24279364  1.01088991 -3.20448626
  H  0.74110269 -0.29253010  2.29342551
  H  2.35924661 -0.86929448  1.92239162
  H  0.84325434 -2.52872125  1.46303036
  H  1.71671397 -2.05969630  0.03284379
  H  0.00330013 -2.41202385 -1.10566261
  H -0.88096532 -2.85864098  0.32323257
  H -2.51747739 -1.79929941 -0.57397797
  H -1.49123942 -1.10430122 -1.80331576
