31
opt_min/./Reactant_5822_1_opt.xyz
  C  0.03920900  3.85584400 -0.54412000
  N  0.29012241  2.46777758 -0.25078719
  C -0.66940593  1.51947148 -0.48785223
  O -1.75284545  1.86693803 -0.96681610
  C -0.28879963  0.15447530 -0.23095012
  N -1.09216044 -0.92665254 -0.47915675
  C -2.37895326 -1.19452047 -0.50964166
  C -2.74239923 -2.61532875 -0.82106681
  C -3.46266066 -0.24200177 -0.17045553
  C  1.10370174 -0.21769889  0.05665770
  C  1.78613566 -1.14055319 -0.74437278
  C  3.08701242 -1.50627844 -0.45884088
  C  3.74169908 -0.96587867  0.63579079
  C  3.07797030 -0.06076994  1.44790249
  C  1.77516779  0.30451149  1.16826047
  H -0.64135453  3.91981084 -1.39380066
  H  0.97494378  4.35712992 -0.78284085
  H -0.43320767  4.36009538  0.30525192
  H  1.21318729  2.19435127  0.03250365
  H -0.51978605 -1.76524470 -0.57748702
  H -2.64884815 -2.81989515 -1.88955333
  H -2.09496770 -3.31651069 -0.29152499
  H -3.77000565 -2.81475208 -0.53398137
  H -4.36670709 -0.48156185 -0.72529477
  H -3.69090276 -0.30574963  0.89543358
  H -3.16006484  0.77963933 -0.39565218
  H  1.30392336 -1.54479277 -1.62526529
  H  3.59762073 -2.21065326 -1.09969202
  H  4.75938093 -1.25110012  0.85626764
  H  3.57578709  0.35287513  2.31283166
  H  1.24980481  0.97513658  1.83336117
