20
opt_min/./Reactant_4430_0_opt.xyz
  C  2.55712600 -0.92922600  0.22970400
  C  2.12915607  0.52463929  0.06621647
  O  2.97172401  1.39912616  0.02560398
  C  0.72456694  0.84200497 -0.00862805
  C  0.23488314  2.17533830  0.09781016
  O  0.70829171  3.26338928  0.23357061
  O -1.20943121  2.02911713  0.04894778
  C -1.48606556  0.75490176 -0.09366254
  C -2.89574750  0.30688766 -0.19613459
  N -0.39464529  0.01651175 -0.13162701
  C -0.41432462 -1.40925207 -0.33912345
  H  3.61440662 -0.92263138  0.48499888
  H  1.99882193 -1.42711937  1.01607705
  H  2.43675229 -1.47164192 -0.70601665
  H -3.12982060 -0.04992808 -1.19978274
  H -3.53386651  1.16088901  0.02000064
  H -3.11587407 -0.48552125  0.51858618
  H -0.17929350 -1.93447360  0.58665834
  H -1.40269520 -1.70863506 -0.68274847
  H  0.31544441 -1.68159606 -1.09878882
