24
opt_min/./Reactant_832_0_opt.xyz
  C  3.44937200  0.59877800  1.42250900
  N  2.55401922 -0.14286272  0.57857020
  C  1.20732995  0.15056492  0.50753253
  O  0.73400777  1.07941736  1.16324268
  C  0.46957134 -0.74723149 -0.31600330
  N -0.87788744 -0.67829755 -0.50342917
  C -1.58184916 -1.95088224 -0.57839793
  C -1.58518346  0.43175984 -0.55967319
  C -3.07736927  0.38814097 -0.45016886
  C -0.99877368  1.75561055 -0.91157571
  H  3.98584232 -0.06170372  2.10845345
  H  2.83520474  1.29422757  1.99376637
  H  4.17703993  1.16643210  0.83338288
  H  2.92790433 -0.90398182  0.03972856
  H  0.94025151 -1.66927902 -0.61833425
  H -2.10038757 -2.15710325  0.35883878
  H -2.30803205 -1.94317065 -1.39010356
  H -0.86391796 -2.74913390 -0.75015692
  H -3.54668659  0.08213940 -1.38938163
  H -3.40997755 -0.29576037  0.32794133
  H -3.44685302  1.38121099 -0.20867938
  H -1.25754348  2.50532299 -0.16719392
  H -1.41449409  2.07656739 -1.87128546
  H  0.07888399  1.72313926 -0.98565182
