27
opt_min/./Reactant_5191_0_opt.xyz
  C  3.50896500 -1.48301700 -0.36994600
  C  3.83220633 -0.00700488 -0.33889586
  O  4.96958775  0.41997204 -0.45318919
  C  2.71691135  0.89852040 -0.17821099
  O  1.51512222  0.41277348 -0.07611064
  C  0.33598823  0.97284684  0.00756788
  C  0.06876857  2.40310798  0.23506208
  C  1.12152584  3.19181958  0.98681295
  O -0.97876283  2.92769705 -0.08583145
  C -0.76702619  0.00288075 -0.01680412
  C -2.03335923  0.31611943 -0.51383884
  C -3.03237606 -0.63931651 -0.51645402
  C -2.78887146 -1.91523357 -0.03438432
  C -1.53426457 -2.23747170  0.45673766
  C -0.53191932 -1.28842148  0.46732338
  H  2.79616633 -1.74616306  0.40632760
  H  3.06983936 -1.72739463 -1.33618463
  H  4.42288422 -2.05664987 -0.24818160
  H  2.91531214  1.95969170 -0.21081474
  H  1.80627422  3.66470656  0.28294341
  H  1.68460410  2.57333591  1.68191644
  H  0.61681355  3.98798963  1.53058680
  H -2.22974360  1.30346574 -0.89495421
  H -4.00795148 -0.38708013 -0.90349857
  H -3.57480365 -2.65601439 -0.03711908
  H -1.33800036 -3.22868247  0.83801008
  H  0.43871852 -1.53672858  0.87107183
