34
opt_min/./Reactant_3099_1_opt.xyz
  C -0.03508100  3.90657500  0.33727100
  N -0.32004679  2.49507215  0.23407713
  C  0.66818142  1.57661352  0.57964938
  O  1.67240457  1.95531213  1.17150268
  C  0.43319920  0.20540851  0.19597261
  C  1.53955468 -0.73742917  0.15086029
  C  1.31709006 -2.10102011  0.38406169
  C  2.35301910 -3.01107074  0.34792428
  C  3.64792748 -2.58934640  0.09229527
  C  3.88925035 -1.24063777 -0.11536054
  C  2.85483602 -0.32803730 -0.09189142
  N -0.80960917 -0.23729438 -0.20818387
  C -0.87292660 -1.05910913 -1.40859972
  C -1.92975702  0.04326870  0.44082123
  C -1.87765491  0.63258432  1.80207859
  C -3.26115533 -0.23591392 -0.17521481
  H -0.93914583  4.44566983  0.62657107
  H  0.34526612  4.32433234 -0.60094678
  H  0.72740873  4.02621931  1.10544596
  H -0.95775403  2.23854763 -0.50478514
  H  0.32016679 -2.44625748  0.62307185
  H  2.15158662 -4.05790290  0.53300484
  H  4.45872308 -3.30183328  0.06628747
  H  4.89733287 -0.89842977 -0.30563189
  H  3.05879424  0.71906544 -0.25079745
  H -1.34161255 -2.02351371 -1.20903352
  H  0.13501029 -1.22505723 -1.77881745
  H -1.45371521 -0.54796567 -2.17912413
  H -0.94064760  0.34425888  2.28145053
  H -1.89284438  1.72538273  1.78119222
  H -2.72389527  0.29030446  2.39420514
  H -3.44209099 -1.30929675 -0.27089471
  H -4.04754986  0.18710649  0.44328151
  H -3.34516790  0.19640123 -1.17452856
