25
opt_min/./Reactant_1743_1_opt.xyz
  C -2.54205113  0.05684815  0.93375115
  C -1.57033239 -0.80538095  0.14497540
 Br -2.39525717 -2.61878588 -0.07298010
  C -0.28079508 -0.90916409  0.76801913
  C  0.90125518 -0.83290236  0.96053274
  C  2.25988694 -0.34118001  0.78231510
  C  2.88657878  0.04610737  2.03231467
  N  3.36654302  0.36248178  3.01814112
  C  3.07074412 -1.37326989  0.15385653
  N  3.69992437 -2.17301616 -0.36230289
  C  2.10833544  0.88766785 -0.16787844
  C  1.22997662  0.60943516 -1.40477768
  C -0.27802566  0.94283031 -1.27583092
  C -1.24980808 -0.25712187 -1.26169005
  H -3.44037333  0.24076097  0.34833768
  H -2.08057449  1.01093644  1.18332505
  H -2.82425295 -0.43793655  1.86106738
  H  1.67847574  1.70821030  0.41207010
  H  3.10737486  1.19404893 -0.48832361
  H  1.63552422  1.22691088 -2.20792768
  H  1.35438657 -0.42967945 -1.71391557
  H -0.55511634  1.54634321 -2.14128607
  H -0.43881640  1.56407615 -0.39410677
  H -0.81378150 -1.06083985 -1.85960229
  H -2.19053664  0.02801319 -1.73810015
