22
opt_min/./Reactant_3011_0_opt.xyz
  C  0.72680000 -2.04261300  0.11959200
  N -0.33927051 -1.31002935  0.11127083
  C -1.61030594 -1.99232284  0.25340027
  C -0.35239629  0.06075144 -0.03192569
  C -1.48060151  0.69915327 -0.68855467
  C -1.50223311  2.20254549 -0.78138686
  O -2.39879780  0.05952252 -1.19281275
  C  0.76485858  0.85045517  0.45239280
  O  0.97124823  2.02213597  0.22899232
  O  1.57683522  0.16051277  1.31373778
  C  2.59261382  0.92443357  1.94028550
  H  1.69876395 -1.61953215 -0.04083771
  H  0.64751705 -3.09939811  0.30058728
  H -1.44974422 -3.01068464  0.60014381
  H -2.23988968 -1.45448629  0.96070669
  H -2.13634291 -1.99854582 -0.70163754
  H -2.43188566  2.49209438 -1.26567777
  H -0.65599199  2.56725885 -1.35537127
  H -1.44042420  2.64981218  0.20697802
  H  2.21334557  1.91024109  2.21436313
  H  3.44223241  1.05025396  1.26476234
  H  2.89210676  0.36450683  2.82322421
