26
opt_min/./Reactant_4851_0_opt.xyz
  C  0.71601900  1.41228200  0.33446500
  O  1.02052065  2.54485558  0.65430509
  C -0.56689779  1.13148725 -0.35591294
  O -1.23225655  2.28027052 -0.59905464
  C -2.61646208  2.29154048 -0.87806554
  C -0.94146116 -0.14047578 -0.69271509
  O -2.09982346 -0.30674581 -1.40030596
  C -2.70964064 -1.57459163 -1.54527673
  C -0.06130132 -1.28096871 -0.37987319
  O -0.34796983 -2.43040551 -0.68135685
  C  1.21615849 -0.99423178  0.31557951
  C  2.06957891 -2.17907126  0.62631706
  C  1.59750133  0.26016302  0.62066686
  C  2.90072876  0.57007399  1.27865565
  H -2.90236448  3.34174567 -0.84703229
  H -2.83276652  1.87975502 -1.86488006
  H -3.18085409  1.73885371 -0.12390320
  H -3.67989732 -1.36172751 -1.99286449
  H -2.13431771 -2.22469860 -2.20697990
  H -2.85007704 -2.07672680 -0.58659529
  H  2.35947382 -2.18085256  1.67408740
  H  1.52777597 -3.09153269  0.39506243
  H  2.97983557 -2.15317522  0.02939383
  H  2.96061217  0.09160102  2.25504152
  H  2.99617005  1.64413092  1.40461573
  H  3.72890429  0.20016147  0.67830325
