22
opt_min/./Reactant_4419_0_opt.xyz
  C  2.74329600 -1.45451600  0.24597700
  C  1.26077957 -1.47016546  0.12797671
  O  0.67185057 -0.35216233  0.02362104
  C -0.60247382 -0.00397803 -0.10991994
  C -0.80399271  1.44710107 -0.18184404
  O -1.84938499  2.02536590 -0.31216183
  O  0.38691523  2.09554552 -0.08762955
  C  0.30421226  3.50922561 -0.15286247
  C -1.74351873 -0.90022201 -0.18383434
  O -2.88984467 -0.56348665 -0.32340735
  O -1.36987964 -2.21702847 -0.09686006
  C -2.41110516 -3.18070197 -0.17052553
  H  3.07414130 -0.56230238  0.77409941
  H  3.09190840 -2.34207751  0.76437547
  H  3.20224376 -1.43630183 -0.74512593
  H  0.71997433 -2.40728581  0.12222958
  H  1.31248915  3.87878747  0.01777411
  H -0.37969939  3.88726593  0.60998826
  H -0.05947909  3.82569812 -1.13284135
  H -3.37005943 -2.67301278 -0.28892333
  H -2.22151442 -3.82893280 -1.02678791
  H -2.40716926 -3.76505800  0.74998165
