22
opt_min/./Reactant_1624_0_opt.xyz
  C  3.52375813  1.15006758 -2.22542735
  N  2.43257080  0.38986637 -1.66910169
  C  2.26868488 -0.93922475 -1.95602512
  O  2.97735214 -1.54185931 -2.72719474
  N  1.21302459 -1.56318738 -1.32515599
  N  0.40603330 -1.02544735 -0.57669011
  C -0.44653584 -0.69111172  0.15223808
  C -1.52419545 -0.37387826  0.98239023
  C -1.61654215  0.88829088  1.58301696
  C -2.69137521  1.18867310  2.39473130
  C -3.68373155  0.24673942  2.62128446
  C -3.59417218 -1.00570060  2.03258970
  C -2.52740884 -1.32355767  1.21748980
  H  3.86040478  0.63246049 -3.12275256
  H  4.36319500  1.21746193 -1.52630786
  H  3.18515071  2.15359620 -2.48136056
  H  1.85289718  0.83393186 -0.97452546
  H -0.84213367  1.61980278  1.40556429
  H -2.75804384  2.16364173  2.85406052
  H -4.52241667  0.48903153  3.25607835
  H -4.36617031 -1.73984143  2.21022884
  H -2.45294363 -2.29709494  0.75720946
