33
opt_min/./Reactant_2779_1_opt.xyz
  C -2.84229734  0.05473917  0.47107680
  C -2.42276828 -1.09142435 -0.41744566
  O -3.17993555 -1.96813780 -0.72652378
  C -0.95839409 -1.09587842 -0.87697138
  C -0.82729498 -1.55634552 -2.34515850
  C  0.33631225 -0.97626526 -3.10313977
  O -1.58309556 -2.34760058 -2.83167592
  C -0.21986180  0.09847409 -0.54766348
  C  0.66122685  0.73148792 -0.03029445
  C  1.46243231  1.27758814  1.02535502
  C  1.34947083  2.79384233  1.19785179
 Cl  3.19778852  0.84279618  0.70101175
  C  0.98044250  0.48881098  2.25470695
  C  1.00290520 -1.05344110  2.18655918
  C -0.02168643 -1.98026684  1.47450198
  C -0.19898656 -2.17689037 -0.04621100
  H -2.02445998  0.73444824  0.68607057
  H -3.64935320  0.59689195 -0.02000406
  H -3.24544578 -0.35447904  1.39566971
  H -0.05550087 -0.37445291 -3.92239011
  H  0.90422141 -1.79168480 -3.54777430
  H  0.98059035 -0.36410016 -2.48162493
  H  0.91846951  3.24529337  0.30733959
  H  2.32638904  3.23824002  1.36690931
  H  0.71534461  3.03042155  2.04934372
  H -0.02695868  0.83043166  2.50406869
  H  1.64083619  0.75676465  3.08504334
  H  2.00678695 -1.36909321  1.89411549
  H  0.87659523 -1.34205290  3.23550039
  H -0.99943688 -1.85953750  1.94678884
  H  0.34171520 -2.96919272  1.77763150
  H -0.76858367 -3.10253645 -0.17544145
  H  0.78832884 -2.31769684 -0.49476553
