32
opt_min/./Reactant_4523_1_opt.xyz
  C -4.60280700 -0.62392600 -2.35123000
  N -3.33630109 -0.67292992 -1.66592555
  C -3.21397785 -0.34202758 -0.36321459
  O -4.13217536  0.00613839  0.34847855
  C -1.80522664 -0.41261430  0.14082780
  O -0.89203709 -0.54678403 -0.75114888
  C  0.41607294 -0.61484718 -0.71251338
  C  0.97827679 -0.78881172 -2.05530302
  C  2.45658434 -1.06601754 -2.16523885
  O  0.25490852 -0.71421163 -3.03256227
  C  1.15545348 -0.80589828  0.56956706
  O  0.76167472 -1.59982798  1.40243416
  N  2.29588498 -0.09287730  0.68509546
  C  3.14052015 -0.16994992  1.85170617
  C -1.59159578 -0.28112986  1.61832453
  O -2.17592641 -0.92474538  2.43825993
  O -0.70973584  0.69753598  1.87744036
  C -0.43493243  0.95544494  3.25057618
  H -4.59806734  0.15294060 -3.11804583
  H -5.36903033 -0.39755428 -1.61198487
  H -4.81792820 -1.58521766 -2.81870024
  H -2.51567804 -0.89357355 -2.20998465
  H  3.00967109 -0.12797607 -2.16012408
  H  2.64810502 -1.55753523 -3.11514981
  H  2.80735576 -1.68482099 -1.34523805
  H  2.50254291  0.61825520  0.00247219
  H  4.18240406 -0.27462022  1.55018660
  H  3.03897297  0.72040005  2.47730757
  H  2.83214374 -1.04409109  2.42244538
  H -0.34796720  2.03409284  3.36549206
  H -1.24602536  0.56545954  3.86693110
  H  0.49796810  0.46189235  3.52545459
