31
opt_min/./Reactant_5535_0_opt.xyz
  C -4.21763400  0.13337500 -1.58967400
  N -2.87887200 -0.07709672 -1.09172455
  C -2.55051832 -1.22474905 -0.44069070
  O -3.36937629 -2.09842084 -0.20778697
  C -1.15205156 -1.32357141  0.00956451
  C -0.69459522 -2.58442300  0.65411929
  O -0.42864038 -0.24958014 -0.11860145
  C  0.83978882 -0.03125531  0.14888756
  C  1.34838777  1.32071418 -0.13172734
  O  2.51687274  1.53003688 -0.40338717
  N  0.40586023  2.30129501 -0.09925442
  C  0.74048570  3.67615055 -0.38305391
  C  1.82853877 -1.03694678  0.66048480
  O  2.24436600 -1.03571350  1.79740749
  N  2.19611356 -1.95774747 -0.27062852
  C  3.25813583 -2.90142235  0.00808129
  H -4.35993781  1.18596266 -1.81950163
  H -4.39714356 -0.46129801 -2.48981867
  H -4.93326493 -0.18310781 -0.83067314
  H -2.17046034  0.60010902 -1.31844472
  H -0.06768616 -2.36761068  1.51878974
  H -0.11908747 -3.20913423 -0.03175587
  H -1.57777980 -3.14245877  0.95806664
  H -0.52885380  2.09912813  0.21329388
  H  0.45807450  3.94791937 -1.40484097
  H  1.82003286  3.78554553 -0.28555474
  H  0.23634010  4.33735501  0.31942908
  H  1.98686987 -1.77810865 -1.23971756
  H  3.98903122 -2.90489980 -0.79831249
  H  3.73980749 -2.60140824  0.93822575
  H  2.85175113 -3.90821842  0.13191571
