34
opt_min/./Reactant_2303_0_opt.xyz
  C -0.32175300 -3.39549000  1.93678000
  N -0.10761641 -2.36286250  0.95535125
  C -0.79635958 -1.19412123  0.99427300
  O -1.66607000 -1.00620939  1.82772219
  C -0.54182372 -0.26841575 -0.13424291
  N  0.46239304 -0.40586091 -1.00358387
  C  1.73088683 -0.85066833 -0.93631162
  C  2.46008000 -1.03055902 -2.23446706
  C  2.50871696 -0.98116582  0.26773663
  O  3.66763862 -1.35177204  0.28540323
  O  1.84741608 -0.58270251  1.38763128
  C  2.60110179 -0.56678297  2.58430965
  C -1.57029811  0.71762029 -0.47319871
  C -1.88476338  1.05231643 -1.79605065
  C -2.82792966  2.01735831 -2.08606407
  C -3.48314040  2.68752109 -1.06583229
  C -3.18570249  2.36791883  0.24815967
  C -2.24869753  1.39796642  0.54489554
  H -0.33149814 -4.37278410  1.45585662
  H  0.46307020 -3.38269044  2.69889754
  H -1.27848143 -3.20657005  2.42097324
  H  0.58133429 -2.54188527  0.24502823
  H  0.26128701  0.00749281 -1.91619005
  H  3.21423437 -1.80380320 -2.11004303
  H  1.78258094 -1.31495710 -3.03607159
  H  2.98586870 -0.11971282 -2.52754222
  H  2.10414117  0.13048117  3.25412852
  H  2.61816075 -1.56407336  3.03191170
  H  3.62820195 -0.25572930  2.38371923
  H -1.43040362  0.53460811 -2.63399846
  H -3.06003942  2.24766720 -3.11598839
  H -4.21828920  3.44428924 -1.29273169
  H -3.68511684  2.87833044  1.05851724
  H -2.02615128  1.15589828  1.56921421
