29
opt_min/./Reactant_2187_1_opt.xyz
  C  3.23770133 -0.82841391 -3.16118933
  N  2.38495992 -0.91086700 -1.99583573
  C  1.07442376 -0.61429828 -2.08185195
  O  0.53871429 -0.21304016 -3.08839195
  C  0.28756894 -0.83086635 -0.77486276
 Cl  0.04881328 -2.62372071 -0.64610461
  C -0.97666433 -0.15365248 -0.76214893
  C -1.84102349  0.62252904 -0.46434225
  C -2.66584945  1.35765295  0.47853822
  C -2.29699616  2.76378078  0.44762856
  N -1.97732699  3.85913218  0.44083923
  C -4.08921486  1.23238035  0.22505829
  N -5.20796031  1.11728521  0.03181963
  C -2.30831923  0.73544637  1.86567724
  C -0.81545198  0.72008215  2.24517248
  C  0.11524714 -0.43752478  1.79434207
  C  0.95312845 -0.28681659  0.50660200
  H  3.03528679  0.11059361 -3.67559531
  H  3.03679206 -1.64706351 -3.85673514
  H  4.27798168 -0.86294909 -2.84949442
  H  2.75006323 -1.36302655 -1.17435050
  H -2.70239281 -0.28373259  1.88374561
  H -2.84459985  1.31797388  2.62205755
  H -0.35558908  1.67902795  1.99512776
  H -0.83099139  0.65090157  3.33633958
  H -0.43479974 -1.37713008  1.77190948
  H  0.85316917 -0.50147677  2.59778067
  H  1.90742102 -0.79035693  0.66704261
  H  1.15870522  0.77239564  0.32629120
