35
opt_min/./Reactant_3188_0_opt.xyz
  C  5.15674980  0.00666903  1.02458728
  N  3.78312831 -0.26744209  0.69134654
  C  3.42072897 -1.37623222 -0.00892651
  O  4.21740889 -2.21473971 -0.38578010
  C  1.97193992 -1.48750014 -0.26068414
  C  1.48761922 -2.60688962 -0.93467768
  N  1.08972977 -3.51402154 -1.52394631
  O  1.21377281 -0.46083306  0.12751127
  C -0.08043441 -0.31394588  0.08902051
  C -0.55536772  1.01950549  0.41357157
  C -1.88036734  1.23091505  0.81235843
  C -2.31855112  2.50111289  1.12679946
  C -1.45126541  3.58122676  1.05528748
  C -0.13639772  3.38413409  0.66174759
  C  0.31066966  2.11882068  0.34192167
  C -1.02355942 -1.38220990 -0.23113932
  C -2.02666390 -1.16926342 -1.17961059
  C -2.92981257 -2.17107703 -1.47344212
  C -2.85726214 -3.39041054 -0.81798466
  C -1.87943741 -3.60290834  0.13913588
  C -0.96360255 -2.61078162  0.43112255
  H  5.47265535  0.96662103  0.61152284
  H  5.75843451 -0.78997834  0.58976903
  H  5.30117862  0.01616791  2.10708013
  H  3.08099448  0.38277805  1.00163256
  H -2.55306880  0.38994361  0.88474309
  H -3.34216239  2.65082452  1.43545719
  H -1.79955116  4.57200727  1.30193344
  H  0.54048286  4.22285135  0.59663609
  H  1.32772172  1.97375784  0.00675247
  H -2.07477152 -0.22106847 -1.69434954
  H -3.69078899 -2.00069971 -2.21940414
  H -3.56319185 -4.17168828 -1.05447866
  H -1.82264305 -4.54794238  0.65603793
  H -0.21647448 -2.78205721  1.19225163
