17
opt_min/./Reactant_27_0_opt.xyz
  C  1.23042300 -0.46061400 -0.88305100
  C  1.57016780  0.22646004  0.19946130
  C  0.35646420  0.29420791  1.09096526
  C -0.61929666  1.25406188  0.36494951
  C -1.02354530  0.44578846 -0.88167661
  C -0.21330284 -0.86289152 -0.72784630
  C -0.28700795 -1.06028246  0.78766701
  H  1.82570644 -0.65126609 -1.75727599
  H  2.49754596  0.73120626  0.40352748
  H  0.53617238  0.54244399  2.13592225
  H -0.13177857  2.19349182  0.11017210
  H -1.48041331  1.48043466  0.99191445
  H -0.78770343  0.96265792 -1.81061634
  H -2.09079438  0.22207902 -0.88346571
  H -0.55485862 -1.67846435 -1.36378333
  H -1.30122286 -1.15793269  1.17139014
  H  0.31595656 -1.89819937  1.13551230
