26
opt_min/./Reactant_2184_0_opt.xyz
  C -1.51357500 -3.48486200  1.84521400
  O -0.82341957 -2.33916968  1.38033480
  C -1.39517364 -1.68291603  0.29556953
  O -2.41665936 -2.08233823 -0.20628925
  C -0.60009795 -0.53836994 -0.06450546
  N  0.43591600 -0.25357910  0.80258789
  C  1.54035353  0.41923075  0.69478197
  C  2.39870193  0.54013793  1.91364676
  C  2.13216487  0.91021912 -0.57437584
  C -1.03583312  0.41884227 -1.05299614
  O -0.58786508  1.54848357 -1.17162382
  O -2.02332369 -0.06519679 -1.82782936
  C -2.60308876  0.81823329 -2.77181332
  H -1.09590701 -4.38214695  1.38294296
  H -2.57209694 -3.41148392  1.58798105
  H -1.38035851 -3.52585271  2.92506379
  H  0.25817481 -0.67941321  1.71335388
  H  3.21417805 -0.18234578  1.87256829
  H  1.83219901  0.36865739  2.82574925
  H  2.84415645  1.53091160  1.96345597
  H  1.43931042  0.86352864 -1.40274509
  H  3.00106468  0.28782397 -0.80047321
  H  2.47465627  1.93586498 -0.46725412
  H -2.01876566  1.73974096 -2.83084321
  H -2.61758816  0.31273039 -3.73681619
  H -3.62452633  1.04769241 -2.46244077
