24
opt_min/./Reactant_862_0_opt.xyz
  C -2.66505300  0.78811900 -0.58956300
  C -2.03336367 -0.54129475 -0.34630858
  C -2.89265022 -1.75000943 -0.18292609
  N -0.72985305 -0.64911007 -0.16853601
  C  0.24151191  0.27205228 -0.14944432
  C  1.61994434 -0.05922443 -0.05381188
  C  2.56503661  0.98219118 -0.02202186
  C  3.91251916  0.72452714  0.09298212
  C  4.37419956 -0.57989627  0.18236563
  C  3.46250813 -1.62355812  0.15063899
  C  2.11234581 -1.37562837  0.03607283
  H -2.06188814  1.38083933 -1.27724095
  H -2.77339027  1.35936887  0.33708413
  H -3.65548069  0.65560343 -1.01999500
  H -3.47969971 -1.69209059  0.73961233
  H -3.60011842 -1.84025076 -1.00906516
  H -2.29297419 -2.65906728 -0.14400856
  H -0.39441767 -1.60165422 -0.03635796
  H -0.04112716  1.30502466 -0.24036338
  H  2.21649271  2.00287927 -0.09349094
  H  4.61584635  1.54657718  0.11046348
  H  5.43106196 -0.78117041  0.27735639
  H  3.81284581 -2.64462432  0.22329173
  H  1.43261029 -2.21910169  0.02022250
