30
opt_min/./Reactant_1342_1_opt.xyz
  C -2.17684131 -2.34336804 -0.22099102
  C -2.42715531 -0.92372951  0.21613077
  O -3.48569174 -0.54871600  0.62986170
  C -1.19419377  0.01193018  0.13917145
  C -1.69521645  1.46664527  0.03345967
  C -1.29881669  2.25017336 -1.18877838
  O -2.37457949  1.92754647  0.90797152
  C -0.22617046 -0.35368052 -0.85744135
  C  0.81303989 -0.65040538 -1.38188101
  C  2.25188364 -0.71441257 -1.49004289
  F  2.74135300 -0.27538739 -2.68372634
  F  2.71120639 -1.99638864 -1.36973311
  C  2.79731013  0.15370366 -0.34370613
  C  2.23526123 -0.14548863  1.05900359
  C  0.95134278  0.56413807  1.55815000
  C -0.41344767 -0.14708525  1.47505681
  H -1.19358792 -2.48247154 -0.65725485
  H -2.28827683 -2.99136142  0.64762759
  H -2.94525055 -2.63350789 -0.93462997
  H -2.20237346  2.54104351 -1.72279117
  H -0.64433212  1.69668112 -1.85366240
  H -0.81126036  3.16861941 -0.86550736
  H  3.87672650 -0.01641086 -0.32712810
  H  2.62190870  1.19866952 -0.60556726
  H  2.14797705 -1.22279599  1.20550223
  H  3.02212729  0.20431600  1.73234717
  H  1.10910611  0.68399690  2.63338795
  H  0.88941540  1.56737067  1.13511308
  H -1.06157415  0.27225027  2.24831508
  H -0.26971391 -1.20760006  1.69009441
