26
opt_min/./Reactant_1604_0_opt.xyz
  C  3.16588500 -1.30678600  0.87005800
  C  2.92795839  0.17625768  0.69740957
  O  3.82303558  0.99096706  0.81063528
  C  1.56116530  0.60784133  0.37157511
  C  1.31451428  2.06948280  0.25651396
  N  0.64326794 -0.29516012  0.11070140
  C -0.66293257 -0.24300669 -0.25163561
  C -1.66363295  0.66320479  0.27687940
  C -1.34329119  1.36243420  1.58616541
  O -2.77303251  0.77881944 -0.21400112
  C -0.99304327 -1.41588925 -1.07303255
  C -2.37691882 -1.56567758 -1.61326108
  O -0.10788082 -2.24069310 -1.28532492
  H  4.17836805 -1.45436957  1.23756461
  H  2.46606247 -1.74906215  1.57575224
  H  3.07459469 -1.81224671 -0.09139741
  H  2.17004153  2.50549030 -0.25983114
  H  0.40212541  2.26329915 -0.30063978
  H  1.25864853  2.55698943  1.22929627
  H  0.98092768 -1.26201972 -0.04402622
  H -0.47355927  0.95078451  2.08769814
  H -1.20202992  2.42751420  1.41867306
  H -2.21688665  1.25564035  2.22735587
  H -3.09496204 -1.59917467 -0.79664346
  H -2.63341485 -0.70272291 -2.22308941
  H -2.43640154 -2.47637276 -2.20382978
