28
opt_min/./Reactant_5444_0_opt.xyz
  C  1.44283600 -2.78955900  0.57856000
  O  1.03847739 -1.42615845  0.62096644
  C  1.24236506 -0.70288625 -0.48977864
  O  1.73958754 -1.12065924 -1.49896483
  C  0.77411111  0.69809593 -0.25945158
  O -0.34537011  0.99110670  0.34569697
  C -1.33969680  0.22436856  0.68102544
  C -1.55319229 -1.19030135  0.20249590
  C -1.63927643 -1.28988284 -1.30692744
  O -1.74238774 -2.11187111  0.94615632
  C -2.41816261  0.84512551  1.47849706
  C -2.09922618  2.21486984  2.02341572
  O -3.46940460  0.27900270  1.67084670
  C  1.66802346  1.81777887 -0.59432541
  C  1.07632197  3.19196745 -0.38751931
  O  2.79787877  1.63507667 -0.98624854
  H  1.10877853 -3.22733808  1.51437011
  H  2.52712852 -2.85298431  0.48027393
  H  0.97691730 -3.29881972 -0.26647510
  H -0.75049321 -1.77255151 -1.71038226
  H -1.75164032 -0.31607655 -1.77726585
  H -2.49031220 -1.91910505 -1.55573817
  H -1.18780485  2.18264007  2.61512068
  H -2.92532838  2.55418506  2.63998709
  H -1.95105308  2.91277059  1.20251817
  H  0.99560705  3.38748102  0.68028366
  H  0.08848324  3.26883872 -0.83154174
  H  1.73969254  3.93050276 -0.82740752
