29
opt_min/./Reactant_1204_1_opt.xyz
  C -2.91561302 -2.39278312  1.62239079
  N -2.04729818 -1.42467884  1.00023603
  C -2.54230935 -0.33063374  0.34720407
  O -3.73296660 -0.12864015  0.23793434
  C -1.50394521  0.55771043 -0.20205233
  N -0.24472728  0.24110298 -0.13357240
  C  0.90439123  0.01365704 -0.10428865
  C  2.26062513 -0.26524246 -0.07951712
  C  2.72441149 -1.57372889  0.12215704
  C  4.07983367 -1.82439281  0.14470693
  C  4.98961736 -0.79201770 -0.03596602
  C  4.53373748  0.50201342 -0.24058339
  C  3.18383313  0.77794555 -0.26123568
  C -1.76953491  1.84683319 -0.84789538
  O -0.88275733  2.56330910 -1.26980075
  O -3.06905470  2.13686039 -0.91660536
  C -3.42363479  3.35526820 -1.54681181
  H -2.82587687 -3.36847758  1.13829083
  H -3.93595062 -2.02920479  1.50629390
  H -2.67990521 -2.49628099  2.68355832
  H -1.05389052 -1.56173932  1.08822683
  H  2.01445228 -2.37668240  0.25750321
  H  4.43149009 -2.83366648  0.29845088
  H  6.04845113 -0.99799034 -0.01828386
  H  5.24119370  1.30617067 -0.37994629
  H  2.81855690  1.78041147 -0.42177395
  H -3.64953089  3.17006386 -2.60043269
  H -4.31106080  3.72733964 -1.03799659
  H -2.59964908  4.06956593 -1.47596350
