18
opt_min/./Reactant_4028_0_opt.xyz
  C  3.92994717 -0.03372264 -0.73302320
  C  2.56128951  0.27071520 -0.41595989
  N  1.47480494  0.60318418 -0.15002800
  N  0.40668798  1.13513985  0.14344558
  C -0.78582370  0.47181015  0.24198806
  C -0.92831353 -0.90587243  0.03419240
  C -2.16768561 -1.49916929  0.15366447
  C -3.28375308 -0.74632002  0.47938561
  C -3.14772039  0.61899309  0.68509236
  C -1.91611824  1.22634086  0.56939621
  H  4.16648532 -1.05348763 -0.42240814
  H  4.11220383  0.05698999 -1.80608401
  H  4.59708632  0.65045671 -0.20254883
  H -0.05849237 -1.49753735 -0.22178424
  H -2.26457311 -2.56476146 -0.00911949
  H -4.25076895 -1.21738578  0.57201598
  H -4.01364973  1.21386793  0.93878685
  H -1.80187337  2.28815159  0.72742977
