31
opt_min/./Reactant_2261_0_opt.xyz
  C  4.98740400  0.73770900  1.78704700
  N  3.77448082  0.17676969  1.25171820
  C  3.64253447 -1.15541118  0.99538408
  O  4.52787886 -1.96324118  1.22110592
  C  2.35329344 -1.56016237  0.43607556
  O  1.42948981 -0.66891336  0.27482550
  C  0.21693953 -0.77948229 -0.20581685
  C -0.31262294 -2.00671939 -0.79544200
  O  0.33993134 -3.03512207 -0.91552911
  N -1.61518366 -1.92387278 -1.19525488
  C -2.27784118 -3.02389077 -1.84739059
  C -0.56525405  0.48143731 -0.17914137
  C -0.79022221  1.21047883 -1.34356670
  C -1.52257102  2.38294090 -1.30422339
  C -2.03407187  2.84185676 -0.10127199
  C -1.80848698  2.12644596  1.06255936
  C -1.07832998  0.95145388  1.02712400
  H  5.58448898 -0.08794274  2.17183055
  H  4.75794998  1.43423098  2.59494173
  H  5.55758414  1.26151138  1.01347114
  H  3.01089965  0.79660642  1.03152359
  H  2.21667558 -2.59247273  0.14786168
  H -2.11390522 -1.05611997 -1.07808077
  H -1.71337667 -3.92941706 -1.62570873
  H -3.29595149 -3.12549739 -1.46983468
  H -2.30785215 -2.88534888 -2.93198891
  H -0.38680582  0.85208517 -2.27997361
  H -1.69139006  2.94352549 -2.21177552
  H -2.60551432  3.75775634 -0.07154178
  H -2.20263404  2.48125124  2.00403311
  H -0.90215233  0.39545102  1.93628920
