43
opt_min/./Reactant_3048_1_opt.xyz
  F  2.50565376  0.41089699  3.73484469
  C  3.17215729 -0.15092982  2.71444704
  F  4.47887525 -0.07006220  3.02887729
  F  2.86204410 -1.45478038  2.73291572
  C  2.87197316  0.52937280  1.38231501
  C  1.45822636  0.74314495  1.19083102
  C  0.39735866  0.67961543  0.64044728
  C -0.59790453  0.48560134 -0.39083919
  C -1.76187787  1.45739656 -0.32012931
  C -2.74100272  1.46632709 -1.30547739
  C -3.80654095  2.34397840 -1.22719259
  C -3.91226620  3.22041707 -0.16034765
  C -2.94711362  3.20840821  0.83070106
  C -1.87957577  2.33137809  0.75195607
  C -1.15975832 -0.92489407 -0.26150803
  C -1.34375408 -1.45944286  1.00806269
  C -1.88548302 -2.72028015  1.17460726
  C -2.25681034 -3.46896585  0.07102081
  C -2.08530889 -2.94221731 -1.19628015
  C -1.54345963 -1.67906076 -1.36280022
  C  0.25238895  0.71808402 -1.66530846
  C  1.50777216 -0.15614001 -1.86819190
  C  2.87599231  0.15228994 -1.20714802
  C  3.28485903 -0.36055629  0.19056548
  H  3.43419342  1.46990964  1.38017014
  H -2.68381714  0.77779614 -2.13475319
  H -4.55946541  2.34170551 -2.00177710
  H -4.74471738  3.90528789 -0.10085367
  H -3.02428109  3.88294737  1.67090390
  H -1.12675197  2.32476788  1.52768090
  H -1.05608011 -0.88044972  1.87357896
  H -2.01705886 -3.11889035  2.16943644
  H -2.67731506 -4.45555003  0.19787773
  H -2.37333514 -3.51684743 -2.06479104
  H -1.41883764 -1.29804489 -2.36478120
  H -0.38872843  0.55342171 -2.53328415
  H  0.54857540  1.77017277 -1.68802524
  H  1.26436999 -1.20869549 -1.71598228
  H  1.72177654 -0.02174335 -2.93309339
  H  3.56991722 -0.38325783 -1.86175843
  H  3.09988596  1.21572966 -1.29800229
  H  4.37790974 -0.41259804  0.19411183
  H  2.89405166 -1.36863945  0.33441573
