24
opt_min/./Reactant_1045_1_opt.xyz
  C  3.60610100  0.71727300 -0.84855800
  N  2.36982327  0.08564011 -0.46243695
  C  1.21291722  0.78717702 -0.33139471
  O  1.17750070  1.98707548 -0.56165543
  C  0.05848373 -0.01530361  0.07501709
  C -1.27782241  0.19896850  0.07707228
  O -2.14135834  1.15937516 -0.19541383
  C -1.70326240  2.49025647 -0.44119743
  C -1.89973876 -1.14922468  0.51190186
  C -1.65720831 -2.09185967 -0.66442178
  C -0.35351496 -2.31892163 -0.64453353
  C  0.16184560 -1.49444687  0.53515742
  O -0.92825031 -1.58772563  1.43652616
  H  4.35436141  0.62409316 -0.05822417
  H  3.39202429  1.77080727 -1.01867998
  H  3.99694904  0.27161214 -1.76524329
  H  2.38372683 -0.90725145 -0.30891903
  H -2.52741534  2.98058424 -0.95535931
  H -0.79631163  2.51749392 -1.03991842
  H -1.50794196  2.99433001  0.50838437
  H -2.89842593 -1.09502619  0.93229999
  H -2.42087740 -2.42913433 -1.33394948
  H  0.26878658 -2.90162374 -1.29243190
  H  1.08176015 -1.80828344  1.01944097
