42
opt_min/./Reactant_3210_1_opt.xyz
  C  3.16529000  1.27906700 -2.63461800
  O  2.11940866  0.71519712 -1.86986245
  C  2.49231202  0.26318663 -0.61730737
  O  3.64398907  0.35656412 -0.24371463
  C  1.37165172 -0.23470744  0.10536949
  C  1.36304580 -0.58832082  1.49409623
  C  2.68046058 -0.57812950  2.22204963
  O  0.32266382 -0.96456367  2.03749250
  N  0.16363034 -0.52652283 -0.54040243
  C  0.20389662 -1.45387834 -1.65349580
  C -0.96252688 -0.24271959  0.07510371
  C -2.19272529 -1.01193784 -0.17134908
  C -3.35991299 -0.35578305 -0.56108110
  C -4.52644466 -1.06991311 -0.76330525
  C -4.54687213 -2.43968250 -0.55645847
  C -3.39711942 -3.09449167 -0.14275676
  C -2.22290466 -2.38959717  0.04326128
  C -1.10308887  0.94941930  0.91253092
  C -2.00204777  0.95322299  1.97893969
  C -2.16569096  2.09065748  2.74737010
  C -1.45321317  3.23974996  2.45124156
  C -0.57176119  3.24995357  1.38007749
  C -0.38810117  2.11421811  0.61830896
  H  3.57637139  2.15953178 -2.13562761
  H  2.72749484  1.55473783 -3.59035213
  H  3.97099020  0.55395337 -2.77437739
  H  3.07835885  0.43213305  2.22051237
  H  2.52844055 -0.91962504  3.24138150
  H  3.39839045 -1.21281196  1.71299345
  H  0.39419118 -2.46933607 -1.30412689
  H  1.01497836 -1.15771154 -2.31297794
  H -0.73872087 -1.42806767 -2.19578670
  H -3.34393994  0.71298580 -0.71638432
  H -5.42230339 -0.55527441 -1.07630165
  H -5.45906088 -2.99771761 -0.70747772
  H -3.42024454 -4.15888109  0.03815447
  H -1.33839598 -2.89189353  0.40250853
  H -2.53723999  0.04824897  2.21856802
  H -2.85156453  2.07311807  3.58118374
  H -1.58149691  4.12680308  3.05437278
  H -0.02585453  4.15168436  1.14430672
  H  0.28934223  2.12823918 -0.22172092
