29
opt_min/./Reactant_2233_0_opt.xyz
  C -0.79816500 -0.17653100  4.26863000
  N -0.69430322  0.03063284  2.84415720
  C -1.79219752 -0.01828945  2.04322032
  O -2.91783574 -0.17686398  2.49042220
  C -1.59331584  0.14603170  0.60284534
  N -0.42947985  0.27792137  0.02705699
  C  0.05854006  0.37042078 -1.21434582
  C -0.66159493  0.55017663 -2.46377590
  O -0.14287371  0.32742060 -3.55804190
  N -1.93767707  1.00746331 -2.36730944
  C -2.74121579  1.25978633 -3.53854038
  C  1.53651512  0.31857000 -1.14777288
  O  2.05700948  0.29312218 -0.02337426
  N  2.21306926  0.29419791 -2.29326514
  C  3.65446408  0.26044151 -2.32616507
  H -1.84122489 -0.03839511  4.54675176
  H -0.49172850 -1.18981293  4.54188665
  H -0.17302043  0.54196876  4.79650480
  H  0.23749805  0.09985590  2.47090326
  H -2.50306145  0.09327814  0.02512622
  H  0.43463174  0.25384535  0.62804870
  H -2.27764270  1.36298170 -1.49059537
  H -3.14719476  2.27028721 -3.51420927
  H -2.10379879  1.13946047 -4.41315909
  H -3.56470059  0.54409497 -3.60154785
  H  1.66966591  0.27742876 -3.15295616
  H  3.98874355  0.26347281 -3.35895115
  H  4.06616541  1.12955120 -1.80811254
  H  4.02476446 -0.63547928 -1.82282594
