27
opt_min/./Reactant_2049_0_opt.xyz
  C  0.48163404  3.95713903  0.41117960
  O  0.53573896  2.54182173  0.29959138
  C -0.66221512  1.91436842  0.20980217
  O -1.72127963  2.49122545  0.22905983
  C -0.46890300  0.46232900  0.10628316
  N  0.73917820  0.02421362  0.12862518
  C  1.86182928 -0.33963542  0.15335130
  C  3.19544431 -0.74202472  0.19860055
  C  4.12845134  0.42812576  0.45044134
  O  3.55892687 -1.89624912  0.04958331
  C -1.57953350 -0.48733046 -0.00154254
  C -1.41514015 -1.79729075  0.45245542
  C -2.45214696 -2.70485378  0.35194181
  C -3.66354305 -2.32131893 -0.20059930
  C -3.83068323 -1.02328888 -0.65416463
  C -2.79887851 -0.10853433 -0.56307108
  H  1.45670952  4.27378985  0.77286349
  H -0.30372049  4.25363343  1.10775056
  H  0.27605049  4.40423174 -0.56313090
  H  4.49581903  0.36583801  1.47297486
  H  4.98071487  0.34410077 -0.21918229
  H  3.62900443  1.38162760  0.30649897
  H -0.47506197 -2.09955342  0.88908406
  H -2.31332589 -3.71367935  0.70995364
  H -4.47191370 -3.03257795 -0.27647361
  H -4.77224020 -0.72397244 -1.08855717
  H -2.93494001  0.90125124 -0.91480818
