30
opt_min/./Reactant_1490_1_opt.xyz
  C  2.55433600 -2.70929800  0.83689200
  N  1.77339211 -1.50533824  0.71855523
  C  2.24738398 -0.39263258  0.10558170
  O  3.34668347 -0.33944677 -0.41346484
  C  1.32484193  0.75166714  0.10232741
  C -0.00408117  0.89383938  0.20494757
  C -1.09964422 -0.05697740  0.27239587
  C -1.09638787 -1.19439133 -0.53792367
  C -2.14850324 -2.08865364 -0.49042891
  C -3.21396284 -1.86762401  0.36799220
  C -3.22630289 -0.74183535  1.17450475
  C -2.18207036  0.16263647  1.12426313
  C -0.22153002  2.42126090  0.11109328
  C  0.08122163  2.75606682 -1.35000808
  C  1.39126933  2.61038190 -1.46248326
  C  1.85474933  2.18778197 -0.06862143
  O  0.94487098  2.90148027  0.75497078
  H  1.99371285 -3.56482426  0.45645477
  H  3.45851854 -2.57125133  0.24631882
  H  2.83174881 -2.89893948  1.87680325
  H  0.87174796 -1.47746310  1.16600148
  H -0.27128316 -1.35475772 -1.21625611
  H -2.14034230 -2.96103953 -1.12713350
  H -4.03454622 -2.56862400  0.40570996
  H -4.05477091 -0.56568429  1.84509280
  H -2.18756815  1.03373880  1.76236891
  H -1.13075403  2.82528823  0.54038866
  H -0.66533205  3.01162830 -2.07405198
  H  2.04472766  2.71610497 -2.30300986
  H  2.89180901  2.35163019  0.19529940
