34
opt_min/./Reactant_1990_0_opt.xyz
  C -2.63187100  2.43676700 -1.37056500
  N -2.45247131  1.31049891 -0.49779272
  C -1.37236778  0.47211773 -0.62262860
  O -0.50505332  0.69498081 -1.47045950
  C -1.37504169 -0.68495042  0.23091525
  C -2.54261019 -1.03242288  1.11163948
  N -0.34186183 -1.56998978  0.10578303
  C -0.62440600 -2.99519804  0.01765248
  C  0.90181909 -1.14737259 -0.09182935
  C  1.92043441 -2.04796869 -0.72034631
  C  1.32362459  0.18099008  0.33262427
  C  2.17247299  0.95263750 -0.46126741
  C  2.61705962  2.18798615 -0.02611203
  C  2.24263837  2.67094910  1.21369825
  C  1.40681430  1.90930190  2.01783495
  C  0.94425102  0.68708505  1.58160657
  H -2.80896083  3.34839325 -0.79472564
  H -1.71383512  2.53917450 -1.94874013
  H -3.47073083  2.28605586 -2.06021137
  H -3.18416752  1.10122497  0.15466789
  H -2.77101991 -0.20626381  1.78994921
  H -3.44953044 -1.26243549  0.54447074
  H -2.30445679 -1.88933730  1.74032247
  H -0.27395581 -3.38080080 -0.94036426
  H -1.69647729 -3.16290208  0.06966747
  H -0.12812813 -3.53883069  0.82368391
  H  1.65460753 -2.27017576 -1.75641274
  H  2.89210649 -1.56352692 -0.70867108
  H  2.01412226 -2.99233256 -0.18177979
  H  2.44532178  0.60304261 -1.44361931
  H  3.25901731  2.77631103 -0.66633562
  H  2.59119041  3.63547477  1.55440601
  H  1.11219364  2.27125628  2.99326476
  H  0.29409567  0.10174625  2.21490827
