7
opt_min/./Reactant_139_0_opt.xyz
  C -1.07549800 -0.06538000  0.13828800
  C  0.35399235  0.02660208 -0.04040507
  C  1.54155497  0.09961584 -0.19287539
 Br  3.33090968  0.22886335 -0.43054999
  H -1.50930688 -0.63754509 -0.67767701
  H -1.50276766  0.93317115  0.15576010
  H -1.29976716 -0.57001585  1.07461858
