36
opt_min/./Reactant_5867_1_opt.xyz
  C  2.91052100  0.80177200  2.82655200
  N  2.66314658  0.32647667  1.49307548
  C  1.44121195  0.01581357  1.05677463
  O  0.41938417  0.14869602  1.73701648
  C  1.38999825 -0.59400138 -0.28883780
  N  0.16434859 -1.03568982 -0.69852813
  C -1.01170972 -0.57565102 -0.31880461
  C -1.08375271  0.81883123  0.20729002
  O -0.42938848  1.70696052 -0.28894701
  O -2.06974872  1.02155837  1.08391658
  C -2.15774347  2.34332484  1.59203085
  C -2.20592833 -1.34513899 -0.65009184
  C -2.28475911 -2.02799381 -1.86864557
  C -3.40797805 -2.76229331 -2.19639979
  C -4.47222473 -2.84104958 -1.31185077
  C -4.40450158 -2.16945448 -0.10167727
  C -3.28703038 -1.42674330  0.22884882
  C  2.54552222 -0.92125931 -1.05453802
  C  2.29253067 -1.54489087 -2.41820744
  O  3.70559908 -0.68946678 -0.70131584
  H  1.96736342  1.14594732  3.24980673
  H  3.31299130  0.00768120  3.46204361
  H  3.62371610  1.62492534  2.79213669
  H  3.43190769  0.08927015  0.86318139
  H  0.15401394 -1.90242009 -1.23495754
  H -2.92943191  2.32272090  2.35706324
  H -1.19849268  2.64175966  2.01813078
  H -2.42410779  3.04036671  0.79391810
  H -1.48647149 -1.95546406 -2.59591937
  H -3.45413469 -3.27315992 -3.14686542
  H -5.34841018 -3.41762455 -1.56670183
  H -5.23052400 -2.22722804  0.59113422
  H -3.23446790 -0.91458648  1.17482494
  H  1.61727858 -0.92148652 -2.99999341
  H  1.86441504 -2.54307272 -2.31813442
  H  3.24154418 -1.63169773 -2.94016842
