14
opt_min/./Reactant_730_1_opt.xyz
  C  0.26860289  1.96581572 -1.81712489
  N  0.56121181  1.15273274 -0.99610173
  C  0.62046038  0.39921693  0.03507582
  C  1.49178032  0.78808598  1.19793895
  C -0.12315200 -0.85159687  0.09055092
  C -1.00060865 -1.15879914 -1.10498659
  O -0.03662887 -1.59658519  1.04874411
  H  0.68003632  2.19740413 -2.77387124
  H  0.90088450  1.29993786  1.96118917
  H  1.90357733 -0.11514131  1.64374608
  H  2.29954775  1.44564881  0.88003114
  H -1.78514738 -0.40580761 -1.18710889
  H -0.41764486 -1.14743029 -2.02427113
  H -1.45457569 -2.13750929 -0.97323226
