26
opt_min/./Reactant_4420_1_opt.xyz
  C  2.52725930 -1.85116084 -2.02545193
  N  1.36146715 -1.40601334 -1.30240759
  C  1.40283925 -0.31909645 -0.47686138
  O  2.45669747  0.27904213 -0.28050231
  C  0.11229478  0.07777197  0.09025299
  C -0.18473972  1.50251222  0.37086355
  O -1.29555131  1.88958401  0.72042158
  N  0.85955505  2.34272649  0.22782839
  C  0.76892421  3.73315465  0.58505310
  N -0.81517803 -0.85012823  0.41451772
  C -0.38615704 -2.18011868  0.83827506
  C -2.11930682 -0.61849561  0.48167291
  C -3.00557777 -1.55026959  1.00087909
  N -3.76489916 -2.33072594  1.38081441
  H  3.37733990 -1.27604125 -1.66186895
  H  2.70091624 -2.91310899 -1.84329111
  H  2.41642671 -1.68487600 -3.09876815
  H  0.47019218 -1.75419258 -1.61614806
  H  1.77258833  1.94001486  0.04481813
  H -0.28095517  3.97090371  0.75510531
  H  1.15915549  4.35218586 -0.22366055
  H  1.33195624  3.94289896  1.49806300
  H -0.77145347 -2.94112977  0.15819875
  H -0.80131614 -2.37919725  1.82751884
  H  0.69646462 -2.23938822  0.89021282
  H -2.50320352  0.34107314  0.17730542
