32
opt_min/./Reactant_3204_1_opt.xyz
  C  2.12927313  1.32394751  3.61590579
  O  1.28101045  0.69955419  2.65867870
  C  1.47893391  1.03276742  1.38885883
  O  2.32190532  1.79139137  1.00175980
  C  0.45985827  0.33262715  0.48243139
  C  0.30380842 -1.11494439  0.94004883
  O -0.69610747 -1.59308552  1.39389360
  O  1.44940091 -1.77416722  0.76194846
  C  1.48276850 -3.14049617  1.15695467
  C -0.79474325  1.04528395  0.52647895
  C -1.78693090  1.62849782  0.17942470
  C -2.70587541  2.06133454 -0.83723637
  F -3.98196226  1.64082974 -0.62964647
 Br -2.79827132  4.04952989 -0.91533583
  C -2.16516555  1.50194060 -2.16634868
  C -1.60810186  0.06463395 -2.04821423
  C -0.08022189 -0.15241692 -2.04948196
  C  0.87489558  0.45490614 -1.00132126
  H  2.01748195  2.40866650  3.56490478
  H  1.81453891  0.94932718  4.58581534
  H  3.17206495  1.06651629  3.41948378
  H  2.48337199 -3.33727484  1.53596835
  H  1.27991143 -3.77386551  0.29128743
  H  0.73125617 -3.32481664  1.92675006
  H -2.99840605  1.49781873 -2.87213284
  H -1.40291860  2.17167914 -2.56438176
  H -1.95884522 -0.47954520 -2.93062983
  H -2.05671749 -0.43140737 -1.18751123
  H  0.04134065 -1.23853072 -2.00238186
  H  0.30345067  0.17922201 -3.01694642
  H  1.83169494 -0.05713201 -1.13202973
  H  1.04164154  1.51523938 -1.20248036
