21
opt_min/./Reactant_3934_1_opt.xyz
  C  2.93497500  0.46655500  0.14417400
  C  2.02911994 -0.51148205  0.83070459
  O  2.40368929 -1.45154916  1.50957602
  N  0.69277045 -0.22835276  0.63545925
  N -0.07834285 -1.08204227  1.22594258
  N -1.32721886 -1.16465706  1.29429224
  C -2.19751154 -0.27154856  0.70850642
  C -1.84645185  0.84648294 -0.05869285
  C -2.83762685  1.65263481 -0.58421543
  C -4.17551017  1.36645262 -0.36144825
  C -4.52996899  0.26124885  0.39933618
  C -3.55352974 -0.55289777  0.93100855
  H  3.92168304  0.03306613  0.01356672
  H  2.50906292  0.76486628 -0.80922598
  H  3.01790333  1.35504287  0.76912342
  H  0.43463008 -1.84191907  1.73244257
  H -0.80631347  1.07128214 -0.23085049
  H -2.56323054  2.51326925 -1.17654048
  H -4.94082824  2.00364199 -0.77905273
  H -5.57183377  0.03810516  0.57551975
  H -3.80395549 -1.41695323  1.52575530
