28
opt_min/./Reactant_600_0_opt.xyz
  C -1.98098600  1.68031200  0.30871700
  C -2.55229146  0.28674716  0.11257126
  O -3.76687369  0.13238783 -0.00303542
  C -1.68042929 -0.84049959  0.27623828
  C -2.29024621 -2.12646123  0.76568107
  O -0.35387011 -0.85362913  0.30206873
  C  0.51215557 -0.15908150 -0.39365018
  C  0.10430279  0.66089417 -1.57076583
  C  1.89371907 -0.34100478 -0.03324811
  C  2.24927014 -1.21634004  1.00813269
  C  3.56733461 -1.39643714  1.36410533
  C  4.57235625 -0.70235624  0.70679080
  C  4.23881489  0.17721590 -0.31142482
  C  2.92215191  0.36203900 -0.67935056
  H -1.92035722  2.22467064 -0.63162203
  H -2.67093509  2.22098127  0.95356226
  H -0.99662570  1.65083143  0.77224992
  H -2.32470734 -2.16049635  1.85623958
  H -3.31044487 -2.18062047  0.39459454
  H -1.71849268 -2.97995481  0.40802115
  H -0.90356679  0.37614427 -1.87426358
  H  0.12473169  1.73320970 -1.37846824
  H  0.78746427  0.45658319 -2.39586966
  H  1.47346806 -1.75685554  1.52785444
  H  3.81713875 -2.07964717  2.16275954
  H  5.60606555 -0.83808118  0.98638724
  H  5.01562648  0.72772096 -0.82156237
  H  2.69159726  1.06129950 -1.46731980
