21
opt_min/./Reactant_1033_1_opt.xyz
  C  2.83476600  0.40819700  0.06961500
  C  1.74482437 -0.60715628  0.32707351
  O  1.95660557 -1.64749781  0.91674817
  C  0.42122023 -0.25801935 -0.16904868
  C -0.73981429 -0.91270590  0.02215566
  C -1.05420009 -2.12671816  0.79822795
  C -1.78540620 -0.06120065 -0.71303237
  C -1.90680358  1.20510321  0.14583437
  C -0.77172105  1.85447660 -0.05411531
  C  0.02097752  0.97021562 -1.02035314
  O -1.02293424  0.41877573 -1.80314265
  H  3.62514773  0.28565967  0.80547438
  H  3.26490436  0.21070678 -0.91145678
  H  2.46345005  1.42632140  0.08542467
  H -1.15684023 -1.86588123  1.85234288
  H -0.22629904 -2.82807635  0.72300209
  H -1.98169675 -2.57990944  0.46113935
  H -2.69900970 -0.55159794 -1.03513815
  H -2.74214608  1.44283902  0.77040283
  H -0.41519905  2.77184180  0.36623512
  H  0.77626969  1.43417195 -1.64542629
