17
opt_min/./Reactant_294_0_opt.xyz
  C  1.45851288 -0.69922116  2.49634903
  C  1.25769782 -0.28636798  1.05088202
  O  2.22242714 -0.08675698  0.31840394
  C -0.10525599 -0.16400628  0.63928999
  N -0.50591135  0.15969486 -0.59687526
  C -1.94092591  0.17350767 -0.83434361
  C  0.30295178  0.45131490 -1.60048319
  C -0.15197081  0.72190116 -2.88228671
  N -0.52402921  0.96902275 -3.94601374
  H  1.88582306 -1.69995967  2.51740479
  H  2.17937969 -0.02677237  2.95797805
  H  0.53267961 -0.69005939  3.06278382
  H -0.89297917 -0.35121842  1.34848595
  H -2.16474485  0.71454567 -1.75236723
  H -2.45157026  0.65077188  0.00170347
  H -2.30901775 -0.85038150 -0.93038861
  H  1.36937999  0.43984680 -1.42223635
