16
opt_min/./Reactant_1570_0_opt.xyz
  C  3.49966098 -0.33473869 -0.04611415
  C  2.84912523 -1.35688515  0.86925934
  O  3.44219689 -2.23623440  1.45597324
  C  1.47514215 -1.10416063  0.92266144
  N  0.33365923 -0.80947380  0.89748581
  C -0.82928863 -0.33118361  0.66221779
  C -0.97562961  0.75648233 -0.28686700
  C -2.40794452  1.16099400 -0.55010536
  O -0.03081561  1.27141485 -0.85417742
  H  4.53180393 -0.63298774 -0.22022002
  H  3.48603509  0.64620876  0.42806102
  H  2.97105129 -0.26352395 -0.99468056
  H -1.65740210 -0.68323815  1.25092373
  H -2.83824397  0.45442868 -1.25896730
  H -2.99744403  1.15214723  0.36312389
  H -2.42441623  2.15410612 -0.99299025
