20
opt_min/./Reactant_3391_0_opt.xyz
  C  2.31670500 -0.96630800  1.16250200
  N  2.22031016 -0.54273653 -0.07198501
  C  3.43768278 -0.39699285 -0.85987959
  N  1.16830421 -0.29532211 -0.78168079
  C -0.09755063 -0.21716281 -0.24262367
  C -0.42606741  0.41612027  0.96259703
  C -1.74446269  0.55190536  1.34623794
  C -2.76772844  0.05665134  0.55285160
  C -2.45697828 -0.55489127 -0.65046391
  C -1.14410457 -0.68391021 -1.04937724
  H  3.28149792 -1.16183769  1.58370732
  H  1.42631911 -1.15744838  1.72800453
  H  4.31628561 -0.44891002 -0.22218144
  H  3.40111746  0.55833532 -1.38295511
  H  3.48021407 -1.19020346 -1.60724001
  H  0.35416927  0.83847538  1.58181671
  H -1.97745852  1.04852556  2.27764157
  H -3.79521235  0.15861858  0.86911063
  H -3.24584699 -0.93437346 -1.28675808
  H -0.88455663 -1.15136663 -1.98763467
