19
opt_min/./Reactant_3491_1_opt.xyz
  N  2.90603600  4.55082800 -1.51345600
  C  2.48995031  3.48062459 -1.44368580
  C  1.98206656  2.18911583 -1.35388981
  O  2.35140938  1.17981625 -2.13634941
  C  1.62487727  0.04050188 -1.74729064
  O  1.75525621 -1.02421760 -2.28430168
  C  0.80485300  0.52071871 -0.65802527
  C -0.15062205 -0.18461927  0.14553116
  C -0.84931768  0.47388926  1.16539775
  C -1.76500801 -0.21865511  1.92939508
  C -1.99709640 -1.56592299  1.69171513
  C -1.30750549 -2.22188072  0.68291916
  C -0.38753015 -1.54470072 -0.09150274
  O  1.07244767  1.81612263 -0.47892238
  H -0.66499611  1.52192691  1.34608049
  H -2.30243498  0.29101695  2.71502251
  H -2.71531164 -2.10159737  2.29371890
  H -1.48975629 -3.27010567  0.49986101
  H  0.15333173 -2.04550157 -0.87768850
