30
opt_min/./Reactant_2516_1_opt.xyz
  C -2.82639961 -0.93701252  1.86256837
  C -1.33592618 -1.03930145  1.98908911
  O -0.78031623 -1.70160524  2.82261737
  C -0.53353780 -0.13710066  1.03141409
  C -0.46384853  1.20662214  1.78800156
  C  0.55034512  1.25694540  2.88779167
  O -1.22723148  2.09862881  1.53115775
  C  0.77956711 -0.65429288  0.74061130
  C  1.76715464 -1.03892572  0.17540845
  C  2.67192488 -1.23849086 -0.91425244
 Cl  4.36968512 -0.84322100 -0.49814682
 Br  2.60158193 -3.14841468 -1.49395328
  C  2.16034385 -0.34906372 -2.06006720
  C  0.62799080 -0.40968742 -2.23104074
  C -0.18633183  0.62667345 -1.41681286
  C -1.16817205  0.05129029 -0.37421015
  H -3.29654615 -1.57254393  2.60863064
  H -3.16354934 -1.22883366  0.87196340
  H -3.12169267  0.09966241  2.02326005
  H  0.11655609  0.77496512  3.76493741
  H  0.77761611  2.28967168  3.14031960
  H  1.45444796  0.71544500  2.62377016
  H  2.64977610 -0.65345478 -2.98644757
  H  2.46604948  0.67757077 -1.84584467
  H  0.29385961 -1.41931261 -1.98723627
  H  0.41440905 -0.25571636 -3.28927774
  H  0.48874053  1.32106184 -0.91462297
  H -0.77322893  1.21848729 -2.12057642
  H -2.00941304  0.73770556 -0.26789419
  H -1.54067854 -0.91032939 -0.72990855
