16
opt_min/./Reactant_3732_0_opt.xyz
  C  2.55303100  0.29115000  0.42414298
  C  1.39157956 -0.62162247  0.10175280
  O  1.54828708 -1.78835968 -0.17496420
  C  0.06639946  0.01184132  0.15687948
  C -0.05643311  1.37333182  0.44781880
  N -0.15751704  2.49727750  0.67561291
  N -1.05957492 -0.68085822 -0.09580902
  C -2.30257847  0.09618968 -0.13305536
  N -1.04796267 -1.92163655 -0.30539094
  H  2.31460699  1.34072575  0.28127456
  H  2.83396241  0.13227533  1.46513276
  H  3.40413005  0.01185182 -0.19374970
  H -2.41775304  0.66950894  0.78703311
  H -2.27882954  0.79439914 -0.97041713
  H -3.14828746 -0.58197397 -0.25002881
  H -1.96640497 -2.30924712 -0.51210501
