32
opt_min/./Reactant_2989_0_opt.xyz
  C -4.78763833  1.29235293 -0.25033364
  N -3.36790046  1.21813664 -0.48141070
  C -2.49991959  0.98483616  0.52087629
  O -2.85457120  0.91860635  1.68946536
  C -1.08454868  0.77581894  0.09641084
  C -0.70374505  0.81993265 -1.31226179
  O -1.46589666  0.75300905 -2.25757227
  O  0.60347709  1.11305351 -1.46957923
  C  1.07959535  1.23541086 -2.79950656
  N -0.15007301  0.52012332  1.03979846
  C -0.29407993  1.12560223  2.34036614
  C  0.85430079 -0.34241342  0.81382002
  C  0.76995533 -1.19168720 -0.29779466
  N  0.73289434 -1.96284660 -1.15317392
  C  2.10240364 -0.43686427  1.61752948
  O  2.41917885  0.34580779  2.49912477
  N  2.88225856 -1.48815301  1.27536449
  C  4.14406853 -1.74994464  1.92193933
  H -5.19574790  2.15805996 -0.77187520
  H -5.28931730  0.38920079 -0.60591115
  H -4.95215772  1.39227058  0.82162797
  H -3.03541862  1.12190961 -1.43524690
  H  1.92406042  1.92074379 -2.76843937
  H  0.29413510  1.62172244 -3.45149429
  H  1.40119338  0.25698588 -3.16364322
  H -1.06805704  0.59773298  2.90284926
  H  0.65618178  1.09228291  2.86683891
  H -0.62893969  2.15495604  2.22496030
  H  2.59078598 -2.11643927  0.54255167
  H  4.11234815 -2.70089925  2.45812269
  H  4.94794069 -1.78431917  1.18547326
  H  4.32743418 -0.94372056  2.63002950
