27
opt_min/./Reactant_2256_1_opt.xyz
  C  2.71197408  2.19060796 -1.64119091
  N  1.94891071  1.62180203 -0.55767998
  C  1.17227520  0.52581367 -0.74415116
  O  1.10884912 -0.04079645 -1.82235456
  C  0.50453883 -0.00320198  0.46414978
  C  0.92847393  0.45069981  1.82881335
  N -0.28416410 -1.07042487  0.33671153
  C -0.35711611 -2.05623008  1.40421656
  C -1.02662094 -1.29645947 -0.77399080
  C -1.41047548 -2.60913415 -1.07851397
  N -1.74530097 -3.68360303 -1.31793323
  C -1.63364826 -0.26732073 -1.61802880
  C -1.74186691  1.14248813 -1.05718453
  O -2.16627159 -0.54705759 -2.67064763
  H  2.79139187  1.43816918 -2.42407742
  H  3.70497915  2.46924699 -1.29192922
  H  2.21593933  3.07276610 -2.05554022
  H  1.98239367  2.09350329  0.32801699
  H  1.96227343  0.17151912  2.04276054
  H  0.28868726  0.02697707  2.59856118
  H  0.85105469  1.53425124  1.91746262
  H -0.58594568 -3.02875197  0.97078396
  H  0.58887631 -2.12106994  1.93627854
  H -1.15812372 -1.79788944  2.10068644
  H -2.70486926  1.54216935 -1.36668147
  H -1.66163940  1.17168582  0.02697417
  H -0.97017950  1.77163597 -1.49356597
