36
opt_min/./Reactant_5768_1_opt.xyz
  C -2.16974300 -1.90331100  1.00302400
  C -0.71648132 -1.49619805  0.83196982
  O  0.17781689 -2.27872725  1.15363242
  C -0.46195422 -0.18902201  0.30896630
  N  0.80607014  0.25481194  0.05573304
  C  1.94976337 -0.35742317 -0.22585109
  C  1.98714469 -1.68986166 -0.89679989
  C  3.17535170  0.39503864 -0.06249536
  C  3.22909037  1.54783209  0.74072509
  C  4.40716359  2.24369630  0.91382571
  C  5.57582874  1.81404264  0.30628173
  C  5.54806250  0.67317919 -0.47999349
  C  4.37244087 -0.02415459 -0.66331991
  C -1.47647351  0.85757275  0.16501184
  C -1.47645796  1.64330559 -0.98984808
  C -2.39313089  2.66448415 -1.15387128
  C -3.32332853  2.92730389 -0.16296434
  C -3.32115570  2.17040045  0.99761416
  C -2.40481489  1.15088400  1.16573487
  H -2.83782450 -1.32656441  0.37127263
  H -2.25202192 -2.96214396  0.76402225
  H -2.46301715 -1.78348282  2.04488841
  H  0.87747009  1.27154741  0.11797266
  H  2.20106726 -1.53282673 -1.95717224
  H  2.76105192 -2.32395171 -0.47170767
  H  1.04312772 -2.21132891 -0.81060074
  H  2.34809643  1.88704864  1.26730450
  H  4.41829958  3.12323574  1.54134538
  H  6.49800894  2.35604934  0.45202905
  H  6.45367993  0.32791130 -0.95750140
  H  4.37442283 -0.89815227 -1.29344524
  H -0.75820244  1.43519458 -1.77197463
  H -2.38544562  3.25397018 -2.05916973
  H -4.04262770  3.72252020 -0.29060901
  H -4.03187412  2.38506652  1.78275576
  H -2.38977521  0.58456102  2.08400250
