22
opt_min/./Reactant_5626_1_opt.xyz
  C  3.48292400 -1.19092000 -0.65262500
  O  2.17157605 -0.68795325 -0.45089501
  C  1.17652810 -1.59689227 -0.36085716
  O  1.34034081 -2.79417626 -0.44320107
  C -0.12098496 -0.97546954 -0.18259705
  O -0.18495240  0.31999482 -0.12690952
  C -1.17501904  1.14156993  0.01221452
  C -0.80720958  2.59450314  0.02025675
  C -2.59183002  0.81995716  0.16587896
  O -3.43982184  1.67193972  0.31757625
  O -2.85524423 -0.50508692  0.17737556
  C -4.21314588 -0.88814102  0.35300385
  H  3.74395047 -1.11382602 -1.71020277
  H  3.53412601 -2.23607397 -0.34132258
  H  4.15952924 -0.57919249 -0.05810959
  H -0.99084857 -1.60796428 -0.09692656
  H  0.26802729  2.69707916 -0.09039767
  H -1.31259927  3.11497641 -0.79177243
  H -1.12820266  3.06207985  0.94949240
  H -4.21372885 -1.79256959  0.95829587
  H -4.66151876 -1.08851265 -0.62166081
  H -4.76420937 -0.08818684  0.84993414
