34
opt_min/./Reactant_3139_0_opt.xyz
  C  5.11804800 -1.49548403 -0.39823792
  O  3.80559567 -0.98029854 -0.25439307
  C  3.72387613  0.31048544  0.15372370
  O  4.68644652  0.99495887  0.40615825
  C  2.33361228  0.73092574  0.28092612
  C  2.05714499  2.02910916  0.71801687
  N  1.86892539  3.10392393  1.08637032
  O  1.42177144 -0.19081243 -0.02674369
  C  0.13488646 -0.09327465 -0.00822575
  C -0.55355720  1.17084637  0.32795219
  C -0.64417343  2.17902570 -0.62760589
  C -1.26715100  3.37164694 -0.31368709
  C -1.80036849  3.56610298  0.94957389
  C -1.72076600  2.56156466  1.89820674
  C -1.10345390  1.36306129  1.59009899
  C -0.61263385 -1.27902887 -0.35233426
  C -2.01200459 -1.24237157 -0.41101485
  C -2.72281389 -2.37885086 -0.73831908
  C -2.06055726 -3.56544591 -1.01433921
  C -0.67430564 -3.61182737 -0.96226881
  C  0.04775568 -2.48425974 -0.63503743
  H  5.55104587 -1.16162516 -1.34410282
  H  5.02753664 -2.57935442 -0.38681456
  H  5.75194828 -1.15044538  0.42095110
  H -0.22120083  2.02681488 -1.61012643
  H -1.32979008  4.15526489 -1.05317039
  H -2.27533100  4.50421018  1.19311147
  H -2.13380957  2.71008315  2.88429686
  H -1.03409482  0.57767337  2.32886293
  H -2.53004643 -0.31894870 -0.20071610
  H -3.80110522 -2.34289526 -0.78113912
  H -2.62106071 -4.45199468 -1.27019219
  H -0.15849876 -4.53561825 -1.17788060
  H  1.12590882 -2.51717486 -0.59266721
