24
opt_min/./Reactant_4868_1_opt.xyz
  C -1.77016200 -3.09182200  0.60654400
  N -0.56557265 -2.40329702  0.31107533
  N -0.64678290 -1.14755443  0.24314451
  C  0.34035303 -0.25735048  0.09737312
  C  1.74799094 -0.71788998  0.17921614
  O  2.04708029 -1.89898227  0.17607876
  N  2.65538887  0.27928574  0.26642284
  C  4.06518310  0.01457900  0.37648852
  C -0.03650694  1.14619322 -0.08446497
  O  0.66534157  2.09732950  0.23844007
  N -1.27291483  1.34660697 -0.64358203
  C -1.76594196  2.68251630 -0.89855081
  H -1.95563417 -3.82851927 -0.17679359
  H -1.63980669 -3.63708605  1.54297817
  H -2.64570364 -2.42533682  0.69124673
  H -1.59239098 -0.71832515  0.37218452
  H  2.31502520  1.23234498  0.29900278
  H  4.60856673  0.46269978 -0.45962406
  H  4.19814411 -1.06540924  0.35684704
  H  4.46147053  0.41789799  1.30981641
  H -1.69146782  0.61048854 -1.18818212
  H -2.74045022  2.81915298 -0.42943403
  H -1.84911012  2.87072057 -1.96945553
  H -1.05133737  3.37934275 -0.46488942
