26
opt_min/./Reactant_3031_0_opt.xyz
  C  3.05011890  1.88452417  1.33880498
  O  2.52411614  0.79485439  0.59126569
  C  1.22563857  0.51105515  0.77616270
  O  0.51754696  1.08493112  1.57135656
  C  0.80967649 -0.67168057  0.00022034
  C  1.82970330 -1.71977599 -0.30625349
  N -0.47529494 -0.89346279 -0.25237330
  C -0.88133984 -2.24326852 -0.58140634
  C -1.39356815  0.11246020 -0.31013656
  C -0.94067978  1.41741316 -0.53577525
  N -0.59801017  2.46922332 -0.85480454
  C -2.82258523 -0.06181772 -0.11041887
  C -3.63738495  1.19764608 -0.25360509
  O -3.34127143 -1.13272372  0.17184923
  H  2.93288117  2.80580517  0.76716202
  H  2.52005526  1.98358633  2.28715162
  H  4.10346577  1.67448925  1.50770721
  H  2.82081037 -1.31737199 -0.12908579
  H  1.69798776 -2.60581280  0.31573635
  H  1.76690305 -2.02836638 -1.34855289
  H -1.94602333 -2.27692600 -0.78370082
  H -0.66807837 -2.90382649  0.25994349
  H -0.33240636 -2.59771355 -1.45351988
  H -3.42068096  1.70937093 -1.18718510
  H -4.69301055  0.94624527 -0.20268349
  H -3.39582982  1.87656892  0.56277833
