10
opt_min/./Reactant_4229_1_opt.xyz
  O  2.88813887 -0.84774211  0.48997439
  C  2.68168414 -0.14624139 -0.38986277
  O  2.49208298  0.54764926 -1.27844369
  C -0.31413657 -0.29709948  0.46454307
  C -0.73310211  0.41968848 -0.39372583
  C -3.79771996  0.43158076  0.24994091
  O -3.66462766 -0.25930459  1.15124920
  O -3.94723635  1.13751486 -0.63824158
  H  0.04780308 -0.92551897  1.22419319
  H -1.09294118  1.05056565 -1.15241703
