26
opt_min/./Reactant_1563_0_opt.xyz
  C  3.74934613  0.20741968  0.28735739
  N  2.32084041  0.20207970  0.46853547
  C  1.52004348 -0.74133957 -0.10699078
  O  1.97486707 -1.60799629 -0.83773808
  C  0.09292502 -0.55928014  0.20675909
  C -0.43127867  0.82199016  0.30355963
  O -1.31747353  1.15766763  1.07542405
  N  0.13929499  1.69499097 -0.56438851
  C -0.20594785  3.09230955 -0.59398479
  N -0.72592852 -1.61300791  0.36338053
  C -0.15293336 -2.94531514  0.25934119
  C -2.02195724 -1.52637513  0.62948381
  C -2.84920950 -2.62512969  0.78474086
  N -3.58905481 -3.49888044  0.92535322
  H  4.26602555 -0.03365501  1.21881409
  H  3.98307739 -0.55037739 -0.45945566
  H  4.08437948  1.18494106 -0.06484781
  H  1.91986072  0.81175351  1.16260980
  H  0.81521883  1.34663246 -1.22545618
  H -0.67556478  3.35526882 -1.54396864
  H -0.91304018  3.26766440  0.21618256
  H  0.68133547  3.71133001 -0.44520098
  H  0.36274032 -3.05476603 -0.69443271
  H -0.93998013 -3.69029864  0.35582815
  H  0.58262467 -3.09891085  1.05133162
  H -2.46205113 -0.54882563  0.75552774
