16
opt_min/./Reactant_4187_1_opt.xyz
  N  3.80395263 -0.75509661  4.19731595
  C  3.12602731 -0.73397878  3.25995832
  C  2.33735259 -0.70339885  2.18292753
  N  1.64965723 -0.66284531  1.22550085
  N  1.18944884 -0.75340094  0.11295371
  C  0.09135566 -0.12530995 -0.41189321
  C -0.93347824  0.39883271  0.38338209
  C -2.02512118  0.99868893 -0.20984410
  C -2.11156135  1.08005011 -1.59106428
  C -1.10013054  0.56032903 -2.38288532
  C -0.00264942 -0.04303782 -1.80175700
  H -0.85741643  0.33103032  1.46065661
  H -2.81372483  1.40220134  0.40725435
  H -2.96929408  1.54871820 -2.05022759
  H -1.16660087  0.62618046 -3.45834724
  H  0.79269318 -0.45266775 -2.40531152
