17
opt_min/./Reactant_209_1_opt.xyz
  N  5.23972187  2.16980125  2.14067163
  C  4.26482000  1.54457662  2.06714475
  C  3.15792100  0.81398176  1.96874162
  N  2.14265425  0.19926854  1.95604383
  C  1.03100606 -0.41494169  1.88206408
  C  0.05884178 -0.20431453  0.83993760
  C  0.26781195  0.71348047 -0.19525937
  C -0.68711063  0.88033568 -1.17731323
  C -1.86149830  0.14463482 -1.15006462
  C -2.07887416 -0.76625500 -0.12739312
  C -1.12912314 -0.94142503  0.85820417
  H  0.82958047 -1.14730022  2.64944122
  H  1.17951635  1.29303043 -0.22478483
  H -0.51393550  1.59146741 -1.97194626
  H -2.60355391  0.28042440 -1.92203742
  H -2.99158740 -1.34232286 -0.10039731
  H -1.30016855 -1.65273802  1.65445667
