20
opt_min/./Reactant_637_1_opt.xyz
  C  4.37423600  0.42828300  0.10784100
  N  2.94553186  0.23805233  0.06701659
  C  2.09709733  1.26456964 -0.17220457
  O  2.45578322  2.40550028 -0.38375992
  C  0.65995210  0.89810790 -0.16539534
  O  0.34536193 -0.30533248  0.13824420
  N -0.82311995 -0.88045099  0.26227036
  C -1.98580925 -0.17398963 -0.04619880
  O -2.05280461  0.92498444 -0.56470338
  N -3.05789879 -0.93153500  0.27912737
  C -4.40683684 -0.49912439  0.01164078
  H  4.71764197  0.62531138  1.12673637
  H  4.61726369  1.29296921 -0.50977062
  H  4.87708400 -0.45712891 -0.27615874
  H  2.57306199 -0.68291644  0.23607385
  H -0.06654399  1.66195233 -0.41294941
  H -2.89269663 -1.84599264  0.66441793
  H -5.04759553 -1.36559492 -0.13823859
  H -4.79932354  0.10088356  0.83799072
  H -4.40398805  0.11956379 -0.88647761
