27
opt_min/./Reactant_4852_1_opt.xyz
  C -0.54940713  3.66432969 -2.16255521
  N -0.76182092  2.55034742 -1.26791158
  C  0.26715668  1.71875180 -0.92479716
  O  1.40360640  1.88646449 -1.31897579
  C -0.09648425  0.61962720 -0.00028673
  N -1.09131313  0.81608236  0.85270571
  C -1.73263911 -0.04679114  1.68377111
  C -1.55314233 -1.42995613  1.68644900
  N -1.48545399 -2.57823471  1.72080272
  C -2.70438465  0.48151815  2.53658743
  N -3.49942221  0.95014212  3.22475433
  C  0.71299559 -0.59279608 -0.01886894
  C  1.19761968 -1.14435577  1.17008880
  C  2.01014706 -2.25991381  1.13637506
  C  2.34193921 -2.84262807 -0.07555117
  C  1.88045221 -2.29258832 -1.26056577
  C  1.07807016 -1.16934488 -1.23536460
  H -1.00323128  3.48082817 -3.13849447
  H -0.97293163  4.57429852 -1.73527559
  H  0.52473433  3.78601365 -2.28659288
  H -1.71874542  2.25868612 -1.14624872
  H -1.44934045  1.76817550  0.91815196
  H  0.97247389 -0.67793903  2.11827179
  H  2.38350372 -2.67496262  2.05967047
  H  2.96836955 -3.72170269 -0.09635730
  H  2.14736468 -2.73921258 -2.20596301
  H  0.71996598 -0.73780157 -2.15796096
