18
opt_min/./Reactant_4355_1_opt.xyz
  C  3.81633936  0.68797789 -0.87447300
  N  2.92887850 -0.34261281 -0.39644810
  C  1.58465539 -0.16075735 -0.32806844
  O  1.03104598  0.87269315 -0.66217842
  C  0.85850604 -1.31910992  0.20034871
  N -0.41023531 -1.25882537  0.31271866
  C -1.56164178 -1.00223150  0.35493708
  C -2.91035294 -0.66036442  0.31601680
  C -3.04297202  0.78073910 -0.16476357
  O -3.84860439 -1.36974532  0.61829149
  H  4.52885159  0.97649070 -0.09853693
  H  4.36906627  0.34628949 -1.75245280
  H  3.20213820  1.54520715 -1.14251586
  H  3.34381813 -1.20775518 -0.09367686
  H  1.34641528 -2.23525864  0.48731114
  H -4.03578116  0.91255073 -0.58647927
  H -2.93659146  1.44691409  0.68957806
  H -2.27543189  1.02451699 -0.89356722
