31
opt_min/./Reactant_2857_0_opt.xyz
  C  3.82707600 -0.02889200 -3.30077100
  O  2.76061255 -0.01510283 -2.36267493
  C  3.03935949  0.50247878 -1.15848057
  O  4.09861724  0.97384973 -0.85053414
  C  1.83258187  0.42579738 -0.29007731
  O  0.86503022 -0.29526775 -0.77304072
  C -0.38684003 -0.39192998 -0.43264812
  C -1.02279862 -1.62209228 -0.99527668
  O -0.37251667 -2.49490048 -1.51337382
  O -2.34218664 -1.62152109 -0.86661547
  C -3.04848163 -2.76777794 -1.33357496
  C -1.19344667  0.65318888  0.23153621
  O -2.30821552  0.51962506  0.65778602
  O -0.54846789  1.83616819  0.20560381
  C -1.27911672  2.94809243  0.70380637
  C  1.89531000  1.00630079  1.06809771
  O  2.72938897  1.77870047  1.45303030
  O  0.95249619  0.46918688  1.87049037
  C  1.01948832  0.83492536  3.24149171
  H  3.56133033 -0.76654597 -4.05337403
  H  4.76449654 -0.28533606 -2.80445846
  H  3.93357838  0.95619420 -3.76259184
  H -3.88555484 -2.41071797 -1.93114055
  H -2.38385184 -3.39921321 -1.92443912
  H -3.42468156 -3.31627219 -0.46903668
  H -0.61006963  3.80091944  0.63206631
  H -1.57865713  2.76647417  1.73797450
  H -2.17850374  3.10762531  0.10484037
  H  0.45695261  0.08122798  3.78777139
  H  2.05906018  0.86249386  3.57243828
  H  0.57095048  1.81982967  3.38712186
