18
opt_min/./Reactant_647_1_opt.xyz
  C  4.05005500 -0.11279800  0.52160500
  O  2.63544220 -0.12333654  0.64520677
  C  1.94811065  0.12715052 -0.46772225
  O  2.45317670  0.37325839 -1.53063025
  C  0.47346447  0.04931338 -0.22119742
 Cl  0.05341735 -0.31892793  1.39339504
  C -0.45982355  0.25284493 -1.17785410
 Cl -0.01039677  0.61922581 -2.77665567
  C -1.95759447  0.20388368 -1.03412831
  O -2.69495157  0.40858097 -1.95996779
  O -2.35890102 -0.08750573  0.19894749
  C -3.76483398 -0.17840224  0.40822849
  H  4.43852353 -0.56669634  1.42992242
  H  4.36237467 -0.67832065 -0.35849740
  H  4.41353066  0.91246754  0.42559252
  H -3.90583081 -0.83648442  1.26292740
  H -4.25625309 -0.58176265 -0.47891515
  H -4.17201039  0.81057774  0.62496204
