9
opt_min/./Reactant_2355_0_opt.xyz
  C -0.76609700 -0.54476600 -0.74347700
  C -0.05313505 -0.03643485  0.46564958
 Br -0.76529307 -0.53035839  2.15397667
  C  1.02965975  0.74050970  0.42633144
 Br  1.77681820  1.27833020 -1.22891634
 Br  1.93534482  1.39196162  1.94639477
  H -0.06256936 -1.01134133 -1.43279398
  H -1.52204322 -1.27302959 -0.46425386
  H -1.25274850  0.27812087 -1.26856783
