49
opt_min/./Reactant_2613_0_opt.xyz
  C  5.22645939  1.86400016 -1.34799994
  O  4.54400267  0.98324124 -0.46842821
  C  3.38053646  0.46824993 -0.88662010
  O  2.90006171  0.70246759 -1.96312267
  C  2.79509276 -0.49376208  0.14587880
  C  3.68126457 -1.74248819  0.21297078
  C  1.43417046 -0.80350015 -0.24710835
  C  0.23751265 -0.71895147 -0.25371343
  C -1.11207975 -0.46980356  0.23068502
  C -1.65765620  0.82372965 -0.34607075
  C -1.00180456  1.49532470 -1.36964350
  C -1.49307317  2.69752155 -1.84928002
  C -2.64679538  3.24420579 -1.31561386
  C -3.31359942  2.57604064 -0.30395327
  C -2.82361995  1.37577208  0.17686675
  C -1.99351162 -1.67361054 -0.04919061
  C -1.59253186 -2.92770229  0.40196871
  C -2.35658761 -4.05128898  0.14773900
  C -3.53100663 -3.94527966 -0.57491798
  C -3.92256707 -2.70993097 -1.05666311
  C -3.15911828 -1.58369635 -0.80104988
  C -0.84700316 -0.29722895  1.74933176
  C  0.07689466  0.86898084  2.17311400
  C  1.43204820  1.22577983  1.52259782
  C  2.60371884  0.21424605  1.50982398
  H  4.52303157  2.29484365 -2.06386640
  H  5.99876964  1.31116824 -1.88744210
  H  5.68117451  2.64126534 -0.73576654
  H  3.45967954 -2.39744858 -0.62700229
  H  4.73477172 -1.46797965  0.18035197
  H  3.49329624 -2.28757646  1.13666027
  H -0.10345697  1.07304403 -1.79567663
  H -0.96881207  3.20727742 -2.64469338
  H -3.02777742  4.18436947 -1.68759883
  H -4.22046279  2.98987169  0.11373309
  H -3.36000314  0.85923379  0.96084584
  H -0.66383662 -3.03147250  0.94196026
  H -2.02963348 -5.01580332  0.51146869
  H -4.13138187 -4.82201913 -0.77202641
  H -4.82689318 -2.61815911 -1.64011489
  H -3.47438691 -0.63165435 -1.20066181
  H -1.79522305 -0.09598950  2.25924219
  H -0.45456103 -1.23491967  2.14507955
  H -0.51493393  1.78421283  2.06059685
  H  0.25381458  0.71290234  3.24294565
  H  1.26536337  1.60585849  0.51417930
  H  1.77396776  2.08335520  2.11258991
  H  3.51890269  0.75460760  1.75381255
  H  2.45972216 -0.53370018  2.29091210
