31
opt_min/./Reactant_2472_0_opt.xyz
  C -3.96184400  2.01432300 -1.06752900
  O -2.76400399  1.39139084 -0.63517885
  C -2.67451420  0.05842883 -0.90234733
  O -3.56597165 -0.52670777 -1.47509287
  C -1.46314419 -0.53586811 -0.36323491
  C -1.36700493 -1.97727004 -0.08297968
  C -2.60504657 -2.80361606 -0.28917073
  O -0.31064380 -2.48431546  0.24155900
  N -0.30757606  0.16681504 -0.23662192
  C -0.04688335  1.30372629 -1.12048882
  N  0.53528197 -0.21208525  0.62637038
  C  1.87269875  0.06610557  0.61449122
  C  2.48073876  0.41880449  1.82421722
  C  3.84510652  0.60358428  1.88962671
  C  4.63478994  0.41185783  0.76498382
  C  4.04599116  0.02689526 -0.42774544
  C  2.67761440 -0.13645385 -0.51480544
  H -4.82104040  1.59522739 -0.54011674
  H -3.85375851  3.07129464 -0.83691466
  H -4.10379599  1.86381865 -2.13947928
  H -3.44608475 -2.37242608  0.24626949
  H -2.41153350 -3.81402306  0.06208838
  H -2.86759345 -2.82822980 -1.34403525
  H  0.99816585  1.59433263 -1.03374319
  H -0.67650238  2.13937696 -0.82048457
  H -0.27696167  1.03921164 -2.15097556
  H  1.85570294  0.55777948  2.69223327
  H  4.30127499  0.89045513  2.82545718
  H  5.70395928  0.54766296  0.82264424
  H  4.65739749 -0.14986984 -1.30066486
  H  2.23018308 -0.48011375 -1.43677354
