19
opt_min/./Reactant_3421_1_opt.xyz
  C  3.28406501  0.59862594 -0.06661694
  C  1.89780129  0.95844507  0.41872806
  O  1.67629974  1.92585424  1.12472896
  C  0.82458830  0.05642198  0.01112075
  C  1.05110865 -1.03516233 -0.82597398
  N  1.27640570 -1.90644265 -1.54871458
  O -0.37594356  0.41977693  0.48560597
  C -1.53095346 -0.10591131  0.37687581
  C -1.82809346 -1.35861970 -0.36658747
  C -2.62886472  0.63448640  1.06433113
  H  3.26499177 -0.07533644 -0.91526882
  H  3.81138938  1.51371427 -0.32508907
  H  3.82430379  0.12545875  0.75145129
  H -1.09678671 -2.13031902 -0.12937822
  H -1.77365890 -1.19327306 -1.44405189
  H -2.82368510 -1.71256771 -0.12057435
  H -2.93350072  0.10489298  1.96742818
  H -2.29012862  1.62667002  1.34898775
  H -3.49762394  0.71157120  0.41569564
