24
opt_min/./Reactant_4761_1_opt.xyz
  C  4.62483600 -0.57517900 -0.07217100
  C  3.32255741 -0.94356428  0.57343379
  O  3.20409274 -1.75964979  1.47870485
  C  2.14871855 -0.28467923  0.06629606
  N  0.90926585 -0.51655910  0.52535196
  C  0.00118938  0.23797454 -0.12175732
  C -1.41501968  0.24391400  0.11697928
  C -2.23834417  1.08672003 -0.63721723
  C -3.60192053  1.10342811 -0.41953850
  C -4.16691503  0.28611197  0.54720910
  C -3.35960594 -0.55373879  1.30097976
  C -1.99544160 -0.57966212  1.09307389
  C  0.76233186  1.01826078 -1.08121504
  O  0.43202200  1.83999396 -1.89774592
  O  2.09009640  0.63917148 -0.90410357
  H  5.42837104 -0.63117357  0.65590139
  H  4.84970936 -1.29102971 -0.86129318
  H  4.57879748  0.41280630 -0.51906736
  H  0.74526451 -1.18414777  1.26543792
  H -1.79944613  1.72245397 -1.38903291
  H -4.23193456  1.75542294 -1.00411249
  H -5.23169104  0.29723035  0.71926623
  H -3.79171954 -1.19365750  2.05614490
  H -1.38012881 -1.23769274  1.68665213
