25
opt_min/./Reactant_4879_1_opt.xyz
  C -2.26113487  0.96402414 -0.43372759
  C -1.19942059  1.09547223  0.59700722
  C -1.47665529  1.88337023  1.83346450
  N -0.01611508  0.54189658  0.45615024
  C  0.50027825 -0.28914301 -0.48957319
  C -0.33410741 -0.97628145 -1.37037789
  N -1.01090554 -1.60055177 -2.06783563
  C  1.92451216 -0.55042693 -0.51163904
  C  2.41878984 -1.59544904 -1.30384421
  C  3.76589272 -1.88446814 -1.33914091
  C  4.66411570 -1.14450710 -0.58646081
  C  4.19503516 -0.09694547  0.18759678
  C  2.84771831  0.20552011  0.22137998
  H -2.99321849  1.75882080 -0.31243401
  H -1.82423388  1.01866480 -1.43222209
  H -2.78267384  0.00563896 -0.37047782
  H -1.79759174  2.89665399  1.58287307
  H -2.28601976  1.41995005  2.40245072
  H -0.60007544  1.94553038  2.47786006
  H  0.67006798  0.79109676  1.16832478
  H  1.72241784 -2.18026361 -1.88708667
  H  4.12246420 -2.69631483 -1.95746741
  H  5.71885951 -1.37480456 -0.60882094
  H  4.88751685  0.49855749  0.76671585
  H  2.53192653  1.06001253  0.80764245
