26
opt_min/./Reactant_1381_1_opt.xyz
  C  2.13886172 -1.49047189  0.53692557
  C  2.28747567 -0.18817964  1.30258329
  O  3.37062499  0.20645863  1.66249074
  C  1.03692872  0.52560541  1.67576912
  C  0.93143550  0.70866278  3.06373952
  N  0.80930531  0.73561265  4.20766301
  C  0.01374874  0.91066982  0.85035791
  C -1.01010511  1.78918576  1.23924578
  C -2.41969780  1.64436653  0.97356438
 Cl -1.94328906  1.58748086  2.82148247
 Cl -3.35814926  3.08732100  0.67189478
  C -3.02961502  0.40445936  0.38929461
  C -2.49027945  0.25169868 -1.04290653
  C -1.06145293 -0.28828481 -1.11297977
  C  0.04135619  0.66919395 -0.63990418
  H  2.70305257 -2.25340430  1.07147197
  H  1.10457398 -1.80564542  0.44389777
  H  2.59155371 -1.39440250 -0.44914133
  H -2.74156649 -0.46282333  0.98685396
  H -4.11677951  0.48087903  0.37836714
  H -3.14429197 -0.43654260 -1.57947696
  H -2.53942189  1.22013766 -1.54493814
  H -1.00023069 -1.21742208 -0.53968814
  H -0.85652443 -0.53847007 -2.15638567
  H -0.04687849  1.62541045 -1.16239309
  H  1.00286945  0.23197054 -0.90639092
