32
opt_min/./Reactant_5357_1_opt.xyz
  C -0.47990078  4.55061884  0.50862477
  N -0.27403005  3.16488044  0.15512345
  C -0.42722311  2.18947044  1.09147322
  O -0.73199292  2.45774457  2.23857280
  C -0.19703958  0.78815647  0.64513597
  N -0.05577073  0.52559630 -0.63995297
  C  0.41487220 -0.54643570 -1.32475626
  C  0.95268776 -1.69741671 -0.75959771
  N  1.41997994 -2.65859115 -0.33232645
  C  0.36213551 -0.33453583 -2.76046089
  O -0.09569287  0.69937787 -3.22681479
  O  0.85836926 -1.34393147 -3.48015027
  C  0.84762633 -1.17619999 -4.88985215
  C -0.16654299 -0.25945410  1.65709393
  C -0.82728322 -1.46941095  1.42084872
  C -0.87452361 -2.44251862  2.39719236
  C -0.25605553 -2.23519561  3.61941232
  C  0.39520256 -1.03812821  3.86690781
  C  0.43936252 -0.05434711  2.89875633
  H -0.75936422  5.11435694 -0.37843189
  H -1.27635845  4.60335652  1.25090265
  H  0.42346364  4.98506947  0.94567001
  H  0.05384814  2.97574413 -0.77781640
  H -0.35309401  1.23320452 -1.32788120
  H  0.99980461 -2.16472540 -5.31557829
  H  1.65356716 -0.50437305 -5.19463862
  H -0.10619574 -0.75606919 -5.21552265
  H -1.34216969 -1.63121031  0.48518860
  H -1.39593801 -3.36759846  2.20400320
  H -0.28483766 -3.00389056  4.37704400
  H  0.87551318 -0.87094401  4.81933767
  H  0.95197609  0.87374842  3.09332985
