31
opt_min/./Reactant_5223_0_opt.xyz
  C  4.25530300  1.52012000  0.14136100
  N  3.05553290  0.73235209  0.30621504
  C  3.04602167 -0.60705596 -0.03655044
  O  4.04376367 -1.14649945 -0.49951098
  C  1.78823244 -1.30604039  0.16270570
  C  1.82157185 -2.79904589  0.06283274
  N  0.66833047 -0.56816023  0.23149857
  C -0.61477421 -0.81675591  0.51670957
  C -0.99783254 -2.11970768  1.14536918
  C -1.57541369  0.21970615  0.25126964
  C -2.84260050  0.24584553  0.85517869
  C -3.73838933  1.26551137  0.61677147
  C -3.41864585  2.30836190 -0.23900867
  C -2.18594266  2.29265790 -0.87302908
  C -1.28973015  1.27061776 -0.64534164
  H  4.65105264  1.84716040  1.10489169
  H  4.98996399  0.89114406 -0.35724923
  H  4.04941214  2.39638903 -0.47898686
  H  2.40207811  1.07768260  0.98896708
  H  1.80955174 -3.28430792  1.03989884
  H  0.99598165 -3.17768251 -0.53459789
  H  2.76030165 -3.06107888 -0.41993295
  H  0.82676698  0.40403500 -0.03207906
  H -1.82096606 -1.98427200  1.84282880
  H -1.32500355 -2.84873988  0.40337486
  H -0.16205656 -2.52662096  1.70160439
  H -3.13443864 -0.53720216  1.53849478
  H -4.70151099  1.24845919  1.10661847
  H -4.11939210  3.10818490 -0.42042075
  H -1.92601071  3.07991264 -1.56662186
  H -0.37018529  1.27536811 -1.21644488
