10
opt_min/./Reactant_5720_1_opt.xyz
  O  2.88813886 -0.84774212  0.48997444
  C  2.68168452 -0.14624342 -0.38986446
  O  2.49208088  0.54764862 -1.27844380
  C -0.31413682 -0.29709899  0.46454418
  C -0.73310308  0.41968949 -0.39372385
  C -3.79772158  0.43158425  0.24994271
  O -3.66462581 -0.25930730  1.15124545
  O -3.94723492  1.13751278 -0.63824455
  H  0.04780377 -0.92551744  1.22419456
  H -1.09294286  1.05056693 -1.15241433
