39
opt_min/./Reactant_2485_0_opt.xyz
  C -3.70484953  2.91221614  0.78456839
  N -2.65377093  1.93668127  0.62267394
  C -2.84661013  0.78115218 -0.05005214
  O -3.90489451  0.45742790 -0.53028566
  C -1.57818178 -0.08670593 -0.16362244
  C -1.91820895 -1.52065701  0.28590606
  O -2.67558483 -2.23055968 -0.32765289
  N -1.28846314 -1.90096477  1.41653362
  C -1.49006022 -3.21935568  1.97389635
  C -0.40518948  0.46853986  0.46611124
  C  0.69558160  0.95874370  0.45583338
  C  1.99905707  1.30910113 -0.06235627
  F  2.33814582  2.62414893  0.25113837
  C  3.09878299  0.35831544  0.44205467
  C  4.49684020  0.90198203  0.41715093
  O  2.82466946 -0.76442363  0.77807158
  C  1.84755532  1.23189396 -1.60564201
  C  1.48646936 -0.12677321 -2.22810619
  C  0.21737343 -0.88990378 -1.80512057
  C -1.11580760 -0.11396615 -1.64983974
  H -4.65629745  2.40833833  0.62116610
  H -3.60515106  3.72143849  0.05648812
  H -3.67727043  3.32862157  1.79062646
  H -1.73814504  2.15362161  0.98672618
  H -0.64201926 -1.27467713  1.87031635
  H -1.06490056 -3.25893086  2.97273453
  H -1.01568094 -3.97782315  1.34657319
  H -2.55815409 -3.43539337  2.01626934
  H  5.03377593  0.55870604  1.29838466
  H  4.51964344  1.98519081  0.35920877
  H  5.00095338  0.48493515 -0.45522191
  H  1.10811407  1.98820215 -1.88013256
  H  2.80255642  1.54460035 -2.03958417
  H  2.32089272 -0.81033709 -2.04815971
  H  1.44675390  0.04214927 -3.30754535
  H  0.01956358 -1.66185574 -2.54993663
  H  0.42961703 -1.39977632 -0.86564060
  H -1.90251307 -0.59042693 -2.23515389
  H -1.00103010  0.91664719 -1.98921829
