33
opt_min/./Reactant_5094_1_opt.xyz
  C -2.92358700 -2.51706300  1.91931100
  N -1.68308086 -2.03341903  1.35479608
  C -1.67372936 -0.82020386  0.72834355
  O -2.70873489 -0.16747385  0.68620199
  C -0.45555093 -0.25926244  0.12709724
  C -0.73023268  1.01866593 -0.57820327
  C -0.21093178  2.21289961 -0.08563251
  C -0.49567904  3.40866398 -0.71586671
  C -1.29797395  3.42618327 -1.84485147
  C -1.82009309  2.24264117 -2.33696227
  C -1.54127213  1.04347193 -1.70677799
  N  0.81568715 -0.66752241  0.15859397
  C  1.23224665 -1.83402685  0.91856845
  C  1.75169246 -0.08468994 -0.61758986
  C  3.16584441 -0.00177761 -0.41586987
  C  3.74640167 -0.11632696  0.98983565
  O  3.91123061  0.27588709 -1.34800711
  H -3.62543149 -2.80702815  1.13282433
  H -2.71841462 -3.37142621  2.55892430
  H -3.38680516 -1.71928590  2.50024385
  H -0.90643964 -2.66401283  1.35517051
  H  0.40995358  2.20073380  0.79894501
  H -0.09376340  4.33039865 -0.32180188
  H -1.51846865  4.36189187 -2.33663207
  H -2.45051555  2.25212470 -3.21377102
  H -1.95508131  0.12130245 -2.08566124
  H  0.77397071 -2.72856868  0.49190255
  H  2.30636479 -1.95630842  0.82253797
  H  0.96921308 -1.73860212  1.97268342
  H  1.38340085  0.47266432 -1.46593097
  H  2.99952612 -0.07280236  1.77620948
  H  4.33770567 -1.02646413  1.08044844
  H  4.43288440  0.71919598  1.11259125
