28
opt_min/./Reactant_920_0_opt.xyz
  C  0.72566302 -3.48741292 -1.84829115
  O -0.06989197 -2.40902141 -1.37791914
  C  0.59326579 -1.40830002 -0.73258517
  O  1.79695490 -1.43718836 -0.56848170
  C -0.22488179 -0.30466891 -0.27449813
  C  0.56457188  0.77459251  0.37491725
  C  1.00395171  1.87832533 -0.34067348
  C  1.76652272  2.85333813  0.27713181
  C  2.10184840  2.73175399  1.61549348
  C  1.67720063  1.62658142  2.33215298
  C  0.91379396  0.65131597  1.71669000
  N -1.55018222 -0.15693480 -0.38155768
  C -2.10516595  1.08268650  0.14744942
  C -2.41214489 -1.02730632 -0.90116330
  C -3.76389228 -0.75911030 -1.04266438
  N -4.89588442 -0.55746911 -1.15253773
  H  0.79451200 -4.25943197 -1.07823985
  H  1.73041966 -3.13415336 -2.08818252
  H  0.23080768 -3.88239147 -2.73463334
  H  0.75839658  1.97242917 -1.38935259
  H  2.10505549  3.70774994 -0.28981365
  H  2.69934674  3.49215243  2.09565184
  H  1.94732553  1.51898557  3.37246874
  H  0.59215161 -0.21651383  2.27366687
  H -1.78689741  1.92589630 -0.46847799
  H -1.75222768  1.24768315  1.16580604
  H -3.19246703  1.02997798  0.14368726
  H -2.05423716 -1.97460465 -1.26196004
