30
opt_min/./Reactant_2096_0_opt.xyz
  C -2.43328000  2.59016200 -0.95621400
  N -1.59502999  1.48261175 -0.56992843
  C -2.10727952  0.24298699 -0.39786469
  O -3.28531928 -0.01925402 -0.54950457
  C -1.09103568 -0.78501553 -0.05015661
  N  0.20850203 -0.54647150  0.08708680
  N  0.79718916  0.58646659  0.16768922
  C  2.17104153  0.61733494  0.28326602
  C  3.02791333 -0.42299238 -0.09273152
  C  4.39467730 -0.26419481  0.02196573
  C  4.93171598  0.91510430  0.51116585
  C  4.08779361  1.95149237  0.88578403
  C  2.72234933  1.80770229  0.77043419
  C -1.38113145 -2.22073240  0.05034900
  O -0.47736203 -3.01981205  0.25061949
  O -2.65750844 -2.53929429 -0.07695381
  C -3.01357239 -3.91073359  0.02005347
  H -2.66310228  3.22962638 -0.09890254
  H -1.93667855  3.18340146 -1.72404551
  H -3.37016914  2.19136583 -1.34726792
  H -0.61125597  1.66236915 -0.37998060
  H  0.74585435 -1.43310256  0.19807978
  H  2.63346271 -1.34317105 -0.50332987
  H  5.04925532 -1.07076296 -0.27829478
  H  6.00147715  1.03008537  0.59316888
  H  4.50089772  2.87274137  1.26738090
  H  2.05332516  2.60057083  1.06771351
  H -3.45978679 -4.21465139 -0.92859151
  H -2.12777523 -4.51568548  0.22541808
  H -3.74406266 -4.01337428  0.82235014
