28
opt_min/./Reactant_599_0_opt.xyz
  C -1.98098600  1.68031200  0.30871700
  C -2.55229142  0.28674714  0.11257128
  O -3.76687364  0.13238778 -0.00303546
  C -1.68042922 -0.84049959  0.27623829
  C -2.29024614 -2.12646125  0.76568105
  O -0.35387005 -0.85362913  0.30206873
  C  0.51215564 -0.15908147 -0.39365015
  C  0.10430288  0.66089417 -1.57076583
  C  1.89371913 -0.34100479 -0.03324811
  C  2.24927018 -1.21634003  1.00813271
  C  3.56733465 -1.39643717  1.36410533
  C  4.57235631 -0.70235631  0.70679077
  C  4.23881496  0.17721581 -0.31142487
  C  2.92215198  0.36203893 -0.67935059
  H -1.92035708  2.22467058 -0.63162205
  H -2.67093519  2.22098130  0.95356213
  H -0.99662575  1.65083146  0.77225006
  H -2.32470728 -2.16049640  1.85623955
  H -3.31044479 -2.18062051  0.39459449
  H -1.71849259 -2.97995482  0.40802112
  H -0.90356673  0.37614432 -1.87426355
  H  0.12473184  1.73320971 -1.37846827
  H  0.78746432  0.45658312 -2.39586966
  H  1.47346809 -1.75685548  1.52785449
  H  3.81713877 -2.07964718  2.16275957
  H  5.60606561 -0.83808127  0.98638720
  H  5.01562656  0.72772083 -0.82156246
  H  2.69159735  1.06129941 -1.46731985
