16
opt_min/./Reactant_412_0_opt.xyz
  C  2.88006200  0.19664700  0.05575400
  C  1.63397776  0.87143644  0.57269368
  O  1.62261412  1.93886397  1.14657126
  C  0.41973683  0.13281226  0.27518152
  O -0.80528972  0.63968415  0.64796432
  C -1.71896568 -0.18674495  0.29359399
  C -3.15774378  0.02783907  0.54956040
  O -1.25764187 -1.24271263 -0.30527722
  C  0.20506118 -1.10580072 -0.36456156
  O  0.87079761 -1.96073907 -0.86994713
  H  2.91375437 -0.83720685  0.39042117
  H  2.86481650  0.18687643 -1.03220485
  H  3.75123673  0.74311693  0.40751673
  H -3.44697066 -0.45562346  1.48487785
  H -3.74656653 -0.40744214 -0.25376306
  H -3.35418280  1.09386415  0.64282278
