28
opt_min/./Reactant_1587_0_opt.xyz
  C  4.81062800 -0.78727900 -1.04250200
  N  3.44418349 -0.42551595 -0.74933415
  C  2.86298001  0.66865690 -1.33102443
  O  3.39097994  1.34053331 -2.18261256
  N  1.58849625  0.96565100 -0.85217698
  N  0.77825969  0.01959225 -0.59976170
  C -0.43234161  0.10639051 -0.08697624
  C -1.13575505 -1.19095037 -0.05770197
  O -0.59600265 -2.17911739 -0.54340041
  N -2.34304554 -1.21480994  0.54077986
  C -3.11537889 -2.42625742  0.66782178
  C -0.94353161  1.36587048  0.53773342
  O -0.38668200  1.90887246  1.46294478
  N -2.14025328  1.77155678  0.02895496
  C -2.74242315  3.02102634  0.43941529
  H  4.87128436 -1.84185596 -1.31722800
  H  5.13160796 -0.17393665 -1.88314418
  H  5.46515955 -0.60063453 -0.18862600
  H  3.05468095 -0.78744905  0.11009751
  H  0.97768773 -0.97120985 -0.88073803
  H -2.68397473 -0.37011266  0.97337992
  H -3.99256609 -2.40025534  0.01606810
  H -3.43736710 -2.56061844  1.69950783
  H -2.48114796 -3.25909689  0.36638152
  H -2.41320543  1.40451877 -0.87022011
  H -3.81800925  2.88859014  0.55255450
  H -2.54715546  3.81406806 -0.28470819
  H -2.30102113  3.30053174  1.39433715
