26
opt_min/./Reactant_1232_0_opt.xyz
  C -0.73355061 -1.34713483  3.53902514
  N -0.19237036 -0.63697818  2.40908887
  C -0.76318490 -0.70525812  1.20156487
  O -1.79750784 -1.32489881  0.97267810
  C -0.03501047 -0.03283306  0.09220925
  C  1.26212302  0.56857113  0.26914243
  O  1.91876758  0.54307289  1.29777852
  O  1.67575960  1.26939783 -0.81296183
  C  2.89722173  1.97417344 -0.65097465
  N -0.60561612 -0.13069958 -1.13612344
  C  0.19713071 -0.37442838 -2.32101239
  C -1.93008676 -0.12459068 -1.28307571
  C -2.56070937 -0.53792098 -2.46652040
  N -3.10874403 -0.86282822 -3.42302704
  C -2.81337959  0.42079017 -0.32429040
  N -3.56138208  0.96037773  0.35742203
  H -0.19751260 -2.28364898  3.71466095
  H -0.65398211 -0.72193254  4.42709004
  H -1.77881522 -1.57149296  3.33349370
  H  0.72892512 -0.21354952  2.47589574
  H  3.06953146  2.49212934 -1.59062906
  H  2.81855527  2.68690984  0.17163516
  H  3.71256422  1.28062498 -0.43674203
  H  0.39949616  0.56080841 -2.84328224
  H -0.34479665 -1.03920107 -2.99443560
  H  1.13966564 -0.83594161 -2.03725846
