17
opt_min/./Reactant_3966_1_opt.xyz
  C -1.03346323 -0.23977770  1.13517431
  C -0.84262679  0.57726875 -0.10455447
  C -2.05908659  0.99112506 -0.88228219
  O  0.26911190  0.93679985 -0.63699470
  C  1.55035672  0.76735505 -0.37420378
  C  2.14607481 -0.01738661  0.76212536
  C  2.42134603  1.40909307 -1.24787565
  N  3.17627950  1.93679057 -1.94369064
  H -1.25114659 -1.28022411  0.87883070
  H -1.88481211  0.14103998  1.69636907
  H -0.16263428 -0.22326715  1.78087175
  H -2.91156307  1.11569401 -0.22135537
  H -1.86909144  1.92559695 -1.40524302
  H -2.31642356  0.23802483 -1.63009285
  H  3.21594944 -0.11070923  0.59335409
  H  1.72100775 -1.02015351  0.82552856
  H  2.00303048  0.49581649  1.71687046
