29
opt_min/./Reactant_5086_0_opt.xyz
  C  2.75171600 -2.64676800  1.68975400
  N  1.60193168 -1.92775040  1.20168502
  C  1.60478746 -0.57468402  1.07499816
  O  2.53675976  0.12699358  1.41630231
  C  0.37066873 -0.01067170  0.49487186
  O -0.35362252 -0.82319782 -0.23972761
  C -1.49032528 -0.67280108 -0.87383479
  C -1.77864366 -1.76231943 -1.86654743
  C -2.56417486  0.28469542 -0.62851909
  C -2.68404624  0.90446183  0.74061730
  O -3.42579679  0.45230241 -1.47706898
  C  0.17123442  1.46923384  0.60907220
  O  0.12751776  2.06045577  1.66291789
  N  0.00700029  2.07216741 -0.59785738
  C -0.08295193  3.50794919 -0.72080020
  H  2.44239724 -3.39561161  2.41874110
  H  3.41293601 -1.92341941  2.16317150
  H  3.28718230 -3.13937235  0.87343348
  H  0.81524995 -2.46059295  0.86921713
  H -2.50978900 -2.46911862 -1.47244783
  H -0.86799086 -2.29591296 -2.12476708
  H -2.21209960 -1.31379848 -2.75835416
  H -2.32818148  1.93185711  0.73358342
  H -2.13108920  0.35374083  1.49812497
  H -3.74080036  0.92878045  0.99945600
  H  0.18143951  1.55436020 -1.44490013
  H -0.34360147  3.91045979  0.25636379
  H -0.85360101  3.76748118 -1.44652977
  H  0.87088532  3.93973265 -1.03198373
