33
opt_min/./Reactant_5625_0_opt.xyz
  C  3.65312495  1.38033493  1.71947517
  C  3.63383683 -0.12724327  1.58267737
  O  4.59641639 -0.81241931  1.87091721
  C  2.39516780 -0.70460827  1.07526787
  C  2.29511939 -2.08940100  0.90859251
  N  2.24577801 -3.22871914  0.74813967
  O  1.43201737  0.15301447  0.72603536
  C  0.22854845 -0.07620721  0.30114218
  C -0.42371124 -1.38325227  0.31208493
  C -0.42912926 -2.16496590  1.46814250
  C -1.07479030 -3.38572034  1.47771640
  C -1.71075726 -3.84909870  0.33866171
  C -1.71270478 -3.07619665 -0.81230212
  C -1.08315491 -1.84838693 -0.82807443
  C -0.47914283  1.09910223 -0.18473695
  C  0.23455113  2.25027051 -0.54255867
  C -0.42969188  3.37084165 -0.99556732
  C -1.81171240  3.36925626 -1.10342786
  C -2.52789089  2.23727590 -0.74525220
  C -1.87446761  1.11196470 -0.28757931
  H  4.08848944  1.80292527  0.81262971
  H  4.30011105  1.64759607  2.55250738
  H  2.66065167  1.79712643  1.86684457
  H  0.04790307 -1.80448401  2.36816470
  H -1.07278130 -3.98074177  2.37825360
  H -2.20188682 -4.80943658  0.34643501
  H -2.20717470 -3.43411362 -1.70358875
  H -1.06911743 -1.25178724 -1.72803866
  H  1.31159527  2.24793042 -0.47568131
  H  0.13277056  4.25039913 -1.27397375
  H -2.32801788  4.24539070 -1.46378607
  H -3.60584071  2.23627248 -0.81879006
  H -2.43706071  0.24003700  0.01141125
