33
opt_min/./Reactant_5096_0_opt.xyz
  C -1.03230500  1.92942500 -3.11790400
  N -0.84495860  1.22700479 -1.87163761
  C  0.12555162  0.29366406 -1.70193623
  O  0.88843911 -0.04488854 -2.58230537
  C  0.07683954 -0.32250759 -0.33045147
  O  0.22858523  0.35845681  0.76759602
  C  0.65606637  1.57910592  0.99781075
  C  1.17550674  2.51634756 -0.04254557
  C  0.59220589  1.94247439  2.39922831
  O  0.14944341  1.23460174  3.28064995
  O  1.08317421  3.18873884  2.62568116
  C  1.05695487  3.62107483  3.97576064
  C -0.25746533 -1.72233369 -0.18341990
  C -0.40551786 -2.55577111 -1.29830309
  C -0.72704246 -3.88797441 -1.13181698
  C -0.91196862 -4.41482882  0.13674704
  C -0.76797574 -3.59734501  1.24806301
  C -0.44192846 -2.26670691  1.09678991
  H -0.34964836  1.48898080 -3.84315534
  H -0.80295761  2.99184184 -3.00968943
  H -2.05875916  1.81740421 -3.46827878
  H -1.46342372  1.45137887 -1.10645237
  H  0.39329380  3.17079904 -0.43217289
  H  1.93730850  3.14886292  0.40720610
  H  1.61867495  1.96382780 -0.86773863
  H  1.32257596  2.79816092  4.64242478
  H  0.05823446  3.97905023  4.23816032
  H  1.77801770  4.43145356  4.05480532
  H -0.25113752 -2.15963345 -2.28863261
  H -0.83345350 -4.52298744 -1.99897692
  H -1.16441088 -5.45760077  0.25931723
  H -0.90910319 -4.00454866  2.23844134
  H -0.32954011 -1.63030545  1.96085970
