31
opt_min/./Reactant_5306_0_opt.xyz
  C  3.90842400 -0.72898800 -0.36492600
  O  2.55734011 -0.29778305 -0.35477295
  C  2.11470194  0.25645797  0.79507261
  O  2.80819992  0.42387574  1.77468573
  C  0.71506049  0.66349242  0.70912808
  C  0.08505166  1.25600928  1.92494899
  O  0.12490685  0.34935729 -0.40636150
  C -1.07981319  0.53872277 -0.88242449
  C -1.38710442 -0.21006231 -2.10452903
  C -0.30237597 -1.12591774 -2.62073207
  O -2.46991866 -0.11858456 -2.65473291
  C -2.08345428  1.47547351 -0.36384386
  C -3.40150168  1.06184506 -0.17195145
  C -4.36241199  1.96507713  0.24117946
  C -4.02916537  3.29198993  0.45942602
  C -2.72801541  3.71701395  0.25083283
  C -1.76049883  2.81859796 -0.16000959
  H  4.24133934 -0.69224982 -1.40030157
  H  3.97602791 -1.75130463  0.01468052
  H  4.51729940 -0.07485215  0.26222793
  H -0.34380183  0.46078654  2.53963270
  H  0.85977195  1.74335978  2.51257627
  H -0.70831294  1.95989212  1.68936560
  H -0.47345509 -2.12274724 -2.21524616
  H  0.68867524 -0.79533128 -2.32665083
  H -0.38019556 -1.18777539 -3.70323011
  H -3.66290964  0.03017923 -0.34416011
  H -5.37858531  1.63280780  0.39259189
  H -4.78269820  3.99513552  0.78114801
  H -2.46351120  4.75329236  0.40148403
  H -0.75751969  3.16671201 -0.36063377
