18
opt_min/./Reactant_1980_1_opt.xyz
  N -4.63004902  2.39941212 -0.78456933
  C  8.00363571  7.79584951 -1.97937199
  C  1.67360071 -1.07603963 -16.80612222
  C  0.56741681  4.00508955 -8.26158252
  N -5.09238906  5.53975651 -1.55097750
  N  0.44313889  7.95963257 -16.99643968
  C  10.72035914  11.34227088 -3.55045557
  C -0.36653882  11.38454478  33.53722157
  C  12.46457270  9.38254217  23.36250252
  C -8.03802834  11.33692725  31.35534490
  C  16.10015898 -6.15448635  2.83997408
  C  6.60051058 -10.97662405 -0.50970488
  C -12.98949811 -0.52746860 -1.79437192
  H -6.08547940 -8.45056885 -19.35666359
  H -2.43964188 -11.98192120 -34.90901255
  H  2.54185799 -8.18633248  11.00250158
  H -25.15348829  2.64444260  10.77627171
  H -10.27998713 -8.48964426 -8.22912824
