36
opt_min/./Reactant_2967_0_opt.xyz
  C -2.03354200  3.33167300  0.67854600
  C -2.16299546  1.90908746  1.16000665
  O -3.08506591  1.56193239  1.86191833
  C -1.14129221  0.91638795  0.71420590
  C  0.13742099  1.19714734  0.40395503
  C  0.80231633  2.53438856  0.52126663
  C  1.27841170  3.08122268 -0.80109004
  O  1.00587812  3.08128213  1.57568123
  C  1.07619995  0.16511368 -0.08261628
  C  0.72821237 -0.68184657 -1.13268734
  C  1.62468791 -1.63008736 -1.58679305
  C  2.87455163 -1.74717277 -1.00011731
  C  3.23100917 -0.90172967  0.03690546
  C  2.34200897  0.05624749  0.48869684
  C -1.64189943 -0.47669531  0.70080728
  C -2.81056789 -0.78966321  0.01403218
  C -3.29178204 -2.08581108  0.00827494
  C -2.61978115 -3.08040050  0.69791824
  C -1.46657885 -2.77137748  1.40060083
  C -0.97881526 -1.47893571  1.40280149
  H -1.69399303  3.37691423 -0.35232474
  H -1.31844054  3.85634273  1.30835202
  H -2.99926809  3.82201821  0.77940878
  H  1.54129509  4.13113084 -0.70086480
  H  0.52381919  2.94872732 -1.57247778
  H  2.16293018  2.52147020 -1.10410057
  H -0.24260751 -0.58691080 -1.59511149
  H  1.34658910 -2.28192380 -2.40140271
  H  3.57024425 -2.49370055 -1.35313226
  H  4.20553849 -0.98713086  0.49463365
  H  2.61539807  0.71119489  1.30386074
  H -3.33801888 -0.01432341 -0.52344957
  H -4.19714541 -2.31929408 -0.53259057
  H -2.99859476 -4.09178358  0.69484603
  H -0.94651631 -3.54050427  1.95233957
  H -0.08840015 -1.23469115  1.96300632
