26
opt_min/./Reactant_2627_1_opt.xyz
 Cl -0.14527400 -2.20221800  0.00918500
  C  0.33747177 -0.53946772  0.04629848
  C -0.59746437  0.40807968  0.19468667
 Cl -0.09553216  2.05527232  0.38333974
  C -2.04768194  0.20882171  0.25587968
  C -2.71254000 -0.55848773 -0.69693181
  C -4.08274416 -0.72800672 -0.62220449
  C -4.80616904 -0.13940459  0.40071518
  C -4.15173419  0.63501120  1.34832846
  C -2.78657058  0.81330239  1.27499840
  C  1.78503693 -0.33300981 -0.03941058
  C  2.64296696 -1.07471149  0.77551447
  C  4.01003946 -0.88351447  0.70523282
  C  4.54156348  0.03749973 -0.18287734
  C  3.69686162  0.76514862 -1.00669021
  C  2.32810098  0.58202175 -0.93529716
  H -2.16541435 -1.01180838 -1.51064097
  H -4.59300657 -1.32055306 -1.36736811
  H -5.87326989 -0.27997287  0.45536594
  H -4.71950392  1.09794602  2.14219524
  H -2.27097400  1.41565195  2.00977808
  H  2.22131429 -1.78983237  1.46320656
  H  4.65708345 -1.45973029  1.34761295
  H  5.61279455  0.17404825 -0.22509277
  H  4.11041558  1.47320550 -1.70606776
  H  1.67905432  1.14604082 -1.59170995
