24
opt_min/./Reactant_1764_0_opt.xyz
  C  1.68753518  2.20481951 -1.23969860
  C  1.94450662  1.04764580 -2.17723366
  O  2.83606429  1.09864122 -3.00864595
  C  0.99901545 -0.04703688 -2.21072420
  N  0.12837095 -0.45654705 -1.29129753
  C  0.07546822 -0.28505850  0.03965962
  C  1.18649220  0.17345553  0.74885652
  N  2.08598791  0.50830587  1.38420386
  C -1.09555907 -0.71287593  0.78319365
  C -2.32437615 -0.94441272  0.15339206
  C -3.41771979 -1.36737106  0.88351571
  C -3.32028554 -1.55447772  2.25181237
  C -2.11537246 -1.30616035  2.89160342
  C -1.01567328 -0.89035795  2.16993332
  H  0.68254797  2.20752282 -0.82654363
  H  1.85432640  3.12384593 -1.79932679
  H  2.40691304  2.18347952 -0.42239766
  H  0.94937820 -0.56769143 -3.15635983
  H -0.61657470 -1.05838037 -1.64109788
  H -2.44822490 -0.76792488 -0.90699989
  H -4.35679282 -1.54276941  0.37952302
  H -4.18032971 -1.88178841  2.81551164
  H -2.03178333 -1.44050507  3.95887367
  H -0.07693973 -0.70716334  2.67069086
