38
opt_min/./Reactant_2643_0_opt.xyz
  C -0.84414400  3.54325100  1.75128500
  N -0.47725002  2.27404939  1.17033297
  C -1.41935914  1.48433896  0.55589791
  O -2.56438118  1.88366406  0.39769336
  C -1.00336539  0.12627115  0.19317741
  C -2.11678829 -0.84385376  0.16045831
  C -2.21081066 -1.88617952  1.08238221
  C -3.29709418 -2.74049293  1.06963841
  C -4.31300804 -2.56023497  0.14615006
  C -4.24119684 -1.51424106 -0.75776182
  C -3.15448670 -0.65941312 -0.75125898
  N  0.25754152 -0.24266704 -0.10723438
  C  0.51332911 -1.66461913 -0.28328199
  C  1.22719481  0.62432432 -0.41830350
  C  2.63120428  0.38459859 -0.52034990
  C  3.38975306  1.29545308 -1.28033139
  C  4.75342857  1.16018253 -1.40909878
  C  5.41880225  0.12355106 -0.76981704
  C  4.69857682 -0.75909872  0.01778569
  C  3.32980293 -0.63592359  0.14753281
  H -0.28800443  4.35540855  1.27579446
  H -1.90914712  3.69043953  1.57461183
  H -0.64503201  3.55582713  2.82362339
  H  0.37725579  1.85076527  1.49838239
  H -1.44196176 -2.01228100  1.83138017
  H -3.35661980 -3.54275201  1.79071099
  H -5.16284934 -3.22654437  0.14035233
  H -5.03704166 -1.36230846 -1.47174979
  H -3.10257386  0.16066539 -1.44886764
  H  1.39273781 -1.80146389 -0.90758202
  H  0.66955760 -2.15615635  0.67771782
  H -0.34755354 -2.12704673 -0.76522345
  H  0.90128995  1.62868700 -0.64133491
  H  2.87940562  2.10677777 -1.77873199
  H  5.30732326  1.86613353 -2.01041322
  H  6.48810551  0.01665342 -0.87099820
  H  5.21112877 -1.55023893  0.54610477
  H  2.81102657 -1.30905967  0.81196552
