15
opt_min/./Reactant_3456_1_opt.xyz
  C -1.83166906  1.01281331 -0.77277226
  C -0.68935340  0.14683356 -0.36209491
  C -0.75876362 -1.33558909 -0.47085099
  O  0.34817743  0.76384724  0.05779803
  C  1.53647555  0.29567895  0.45088898
  C  2.46482261  1.25245882  0.88348901
  N  3.23402957  2.02525387  1.24875467
  C  1.97063043 -1.02949300  0.49290246
  N  2.38828771 -2.10301095  0.52321324
  H -1.80646406  1.17343507 -1.85232863
  H -1.75765781  1.98330494 -0.28745871
  H -2.78078506  0.55014919 -0.52159046
  H -0.09030511 -1.69610740 -1.25641115
  H -1.76862128 -1.65380920 -0.71260360
  H -0.44784209 -1.81187652  0.45789399
