20
opt_min/./Reactant_4160_0_opt.xyz
  C -3.35606300  0.03823900 -0.42739300
  C -1.90932624  0.38947242 -0.69369531
  O -1.57235119  1.13076597 -1.58822362
  C -0.94990973 -0.23631047  0.22543730
  N -1.38164411 -0.97361993  1.16746561
  N -1.77114821 -1.64299948  1.98882730
  C  0.50234557  0.00177285  0.14254414
  C  1.27678653 -0.06473375  1.30156217
  C  2.63991948  0.15269246  1.24179898
  C  3.24617539  0.43826317  0.03050443
  C  2.48135433  0.49826505 -1.12237740
  C  1.11821454  0.27496744 -1.07605613
  H -3.98298609  0.51120279 -1.18202998
  H -3.50406179 -1.04016987 -0.46429970
  H -3.64576481  0.39492421  0.56123300
  H  0.81273057 -0.27540512  2.25590673
  H  3.23071065  0.10178161  2.14571940
  H  4.31106950  0.61347488 -0.01802932
  H  2.95226994  0.71641278 -2.06972466
  H  0.52967735  0.31922891 -1.97660727
