35
opt_min/./Reactant_3161_0_opt.xyz
  C  3.59861893 -1.16077405  0.25189016
  O  2.23645063 -1.51754504  0.14892609
  C  1.25532445 -0.61798039  0.63530561
  C  1.24518631 -0.57452910  2.18598513
  C -0.08481577 -0.65083471  2.87973147
  O  2.27732724 -0.47229605  2.79707683
  C -0.01999468 -1.00091080  0.08042198
  C -1.07185688 -0.89857069 -0.48419089
  C -2.25783101 -0.33506538 -1.08023137
  C -2.26446421 -0.61886245 -2.59398508
  F -3.38239751 -0.17891010 -3.18578398
  F -2.15850538 -1.91912166 -2.87056840
  F -1.24709843 -0.00846741 -3.21239567
  C -3.52163177 -0.93593561 -0.44035669
  F -3.52305060 -0.71228583  0.88459730
  F -4.64809602 -0.39387772 -0.91398234
  F -3.61303954 -2.25472230 -0.60424976
  C -2.19553452  1.18723321 -0.77853831
  C -0.83728300  1.91325750 -0.88489718
  C  0.25193926  1.81883666  0.21519107
  C  1.43373051  0.83495058  0.09420760
  H  4.14006005 -2.05911169 -0.03822563
  H  3.85800869 -0.35252837 -0.44025469
  H  3.87950854 -0.88265934  1.26775371
  H -0.92485946 -0.49863300  2.21182475
  H -0.10090049  0.07001309  3.69465388
  H -0.17072746 -1.64064160  3.32707621
  H -2.58919109  1.34775120  0.22735470
  H -2.87677152  1.67714552 -1.48029651
  H -0.38304425  1.74382827 -1.85956587
  H -1.14374049  2.96286168 -0.86015356
  H  0.74277260  2.79452177  0.16095461
  H -0.20952848  1.75974179  1.20069376
  H  1.72350971  0.76590391 -0.95625563
  H  2.27032443  1.26932467  0.64849780
