20
opt_min/./Reactant_498_0_opt.xyz
  C  3.53010200  0.94639700  0.52495800
  C  2.59556717 -0.19341003  0.34588785
  N  1.31301859  0.00077613  0.20084099
  N  0.42311564 -0.92523684  0.04263522
  C -0.89788722 -0.56681660 -0.04399198
  C -1.44051285  0.70222698  0.21193377
  C -2.79720131  0.92033042  0.09122896
  C -3.65154533 -0.10421376 -0.27561646
  C -3.13054079 -1.36713036 -0.51659164
  C -1.77825717 -1.59713823 -0.40200881
  H  4.47828115  0.73007305  0.03502471
  H  3.74039835  1.12633509  1.58323428
  H  3.11639231  1.86184239  0.09954051
  H  2.94124657 -1.21305224  0.35952763
  H  1.02311236  0.99512970  0.20068108
  H -0.80375808  1.52196062  0.52197436
  H -3.19920294  1.90597535  0.29192586
  H -4.71333161  0.07020776 -0.36798806
  H -3.78679617 -2.18049709 -0.79803997
  H -1.34719208 -2.56996282 -0.58450691
