30
opt_min/./Reactant_2421_0_opt.xyz
  C -0.67032400  4.03871100  0.90311800
  N -0.09241287  2.74149639  0.64231339
  C -0.88636090  1.66192141  0.38910557
  O -2.09750966  1.78045718  0.31889980
  C -0.21693655  0.35796502  0.19248209
  N  1.09515419  0.25180285  0.23725362
  C  1.94031815 -0.75416334  0.00220969
  C  3.31712896 -0.40120950  0.12741109
  C  4.32516008 -1.48527182 -0.16273650
  O  3.63462364  0.75479996  0.42578426
  C -1.06555620 -0.81156024 -0.04198045
  C -2.10299618 -0.77009584 -0.97237169
  C -2.91355355 -1.87296616 -1.16321210
  C -2.70925596 -3.03179785 -0.43400624
  C -1.68450191 -3.08051921  0.49783951
  C -0.86927938 -1.98457198  0.69247721
  H -1.69517309  4.02164985  0.53746725
  H -0.10284955  4.80809414  0.38100270
  H -0.68129921  4.26072681  1.97308312
  H  0.89649894  2.66445503  0.80690330
  H  1.65839980  1.08435925  0.45776426
  H  1.59991526 -1.72675575 -0.29404708
  H  5.33202931 -1.11356799  0.00124453
  H  4.15635951 -2.34685290  0.47909004
  H  4.21773885 -1.80047320 -1.19722285
  H -2.26498663  0.12682900 -1.54642361
  H -3.71152061 -1.82787090 -1.88934635
  H -3.34549810 -3.89090492 -0.58399328
  H -1.52462222 -3.97609273  1.08002316
  H -0.09722964 -2.02098921  1.44710075
