14
opt_min/./Reactant_180_1_opt.xyz
  C -3.05742844  0.69840475  0.04862716
  N -2.26116777 -0.12540189 -0.24785664
  C -1.33557298 -1.01996701 -0.24968023
  C -1.71240075 -2.37221782 -0.25765069
  N -2.06251505 -3.46465690 -0.28155723
  C  0.10610509 -0.65528646 -0.32195089
  O  0.95637123 -1.45926009 -0.63774212
  N  0.37281630  0.63872771 -0.01113533
  C  1.71302995  1.16731645 -0.04591012
  H -3.74541848  1.36050349 -0.40910382
  H -0.37111488  1.25131567  0.28157761
  H  1.98015425  1.60916037  0.91584639
  H  1.81377189  1.92523454 -0.82622347
  H  2.38437021  0.33642945 -0.25508601
