19
opt_min/./Reactant_943_0_opt.xyz
  C  3.89949600 -0.60327700 -0.55835400
  N  3.04149972  0.54074587 -0.43782426
  O  1.77181021  0.15676839 -0.33138275
  C  0.82005754  1.02150110 -0.22497250
  C -0.53629714  0.58756323 -0.11297067
  C -1.56242423  1.53794808  0.00477947
  C -2.87784730  1.13691357  0.11067069
  C -3.20276023 -0.21221198  0.10232743
  C -2.19746505 -1.16331990 -0.01330051
  C -0.87919087 -0.77420375 -0.11975820
  H  3.69301347 -1.17808259 -1.47257248
  H  3.79182384 -1.28323405  0.29809555
  H  4.92005571 -0.22589097 -0.58908881
  H  1.06556482  2.07844913 -0.22174429
  H -1.30832544  2.58790551  0.01064966
  H -3.65963341  1.87783085  0.20067864
  H -4.23390540 -0.52207225  0.18533071
  H -2.45016941 -2.21394230 -0.01991985
  H -0.09622917 -1.51276591 -0.20998358
