24
opt_min/./Reactant_62_0_opt.xyz
  C -3.31675600  1.57748700 -0.88256500
  O -2.10978109  0.89041193 -0.59354966
  C -2.20352876 -0.44509157 -0.41015197
  O -3.24208472 -1.06358809 -0.48977397
  C -0.90898770 -1.05769576 -0.11844877
  C -0.88538647 -2.53878373  0.08373992
  O  0.08404713 -0.22125604 -0.06036356
  C  1.36604015 -0.32258139  0.11327350
  C  2.13248494 -1.59631700  0.28325335
  C  2.11120398  0.93521148  0.11864075
  C  1.32929227  2.20987841 -0.08106282
  O  3.32283702  0.93969792  0.26445109
  H -3.78484955  1.91096712  0.04649389
  H -3.05108347  2.43603982 -1.49627137
  H -4.00562164  0.91811373 -1.41427780
  H -1.85460957 -2.83736707  0.47911405
  H -0.10372543 -2.84620310  0.77063441
  H -0.75285824 -3.05937976 -0.86657531
  H  1.82876141 -2.34992296 -0.44033723
  H  2.02344425 -2.00151698  1.29001451
  H  3.18494546 -1.35891859  0.13623467
  H  1.68077009  2.95371795  0.63040910
  H  1.54426254  2.58705720 -1.08051667
  H  0.25962768  2.06356908  0.02109475
