23
opt_min/./Reactant_5254_1_opt.xyz
  C  1.82490000  1.28371000  0.25501200
  N  1.59403329 -0.01545517 -0.32098427
  C  2.58585108 -0.75531199 -0.85173547
  C  3.91386260 -0.36950728 -0.95491230
  N  5.01069611 -0.02486983 -1.02651464
  O  2.11371185 -1.94738855 -1.24165122
  C  0.75394695 -2.00192336 -0.93577644
  O  0.08592450 -2.97457499 -1.17277702
  C  0.43945834 -0.71734547 -0.35506052
  C -0.86840973 -0.29451929  0.09175759
  C -1.75313899 -1.26722324  0.57137037
  C -3.01377799 -0.90979533  1.00495769
  C -3.41866962  0.41538862  0.96422966
  C -2.56100370  1.38043754  0.46409663
  C -1.29667836  1.03528737  0.02581219
  H  1.71321761  2.06760712 -0.49659667
  H  2.84321148  1.32491094  0.64337628
  H  1.11197319  1.45108178  1.06146695
  H -1.43703048 -2.29721028  0.59220727
  H -3.68520519 -1.66906409  1.37618967
  H -4.40397117  0.69201948  1.30788353
  H -2.88146092  2.41040942  0.40608205
  H -0.66514199  1.79434532 -0.40841495
