18
opt_min/./Reactant_3587_1_opt.xyz
  C  1.09210100 -2.32411800 -1.21508800
  C  0.29805104 -1.61316856 -0.15905985
  O -0.22530358 -2.17529062  0.78567433
  C  0.21948696 -0.17148430 -0.33818476
  C  0.80593701  0.63220984 -1.37942749
  O  1.46447384  0.37975778 -2.34851425
  O  0.44676374  1.95777751 -1.05631675
  C -0.27718086  1.92942607  0.06162391
  C -0.79438345  3.07814397  0.66611038
  N -1.23312596  4.00781209  1.17873801
  N -0.42280569  0.68339750  0.50617247
  C -1.16429650  0.32199018  1.68369687
  H  1.12497085 -3.38637963 -0.98898449
  H  2.09869585 -1.91530561 -1.26728589
  H  0.63568207 -2.15933564 -2.18889218
  H -1.35285640  1.21029117  2.28415292
  H -0.59974420 -0.41985285  2.24869280
  H -2.11127956 -0.13777137  1.39465002
