44
opt_min/./Reactant_3193_0_opt.xyz
  C  4.93625915 -0.37956770 -0.89297113
  O  3.79192071 -0.16657995 -0.09805689
  C  2.89103601  0.76462415 -0.52796331
 Br  3.76453566  2.63633954 -0.40752250
  C  1.70490933  0.75916168  0.28317625
  C  0.53198851  0.62589468  0.51214199
  C -0.82074049  0.16799215  0.26114601
  C -1.23450472 -0.98999271  1.15191784
  C -0.34351825 -1.57600616  2.03938865
  C -0.74178786 -2.63874115  2.83309225
  C -2.03455865 -3.12318856  2.74904886
  C -2.92995975 -2.53756476  1.86944771
  C -2.53453743 -1.47670067  1.07709427
  C -1.80483240  1.30792742  0.46166497
  C -2.80548756  1.62425844 -0.44621707
  C -3.68539451  2.66028227 -0.18119474
  C -3.58005016  3.39027557  0.98848343
  C -2.58627819  3.07760178  1.90114244
  C -1.70881558  2.04313049  1.63797562
  C -0.69766156 -0.30768758 -1.22128091
  C  0.51657051 -1.22560770 -1.46757342
  C  1.64656646 -0.65573407 -2.34750017
  C  2.36455882  0.65849650 -1.97345729
  H  5.44493724  0.56575404 -1.10951745
  H  4.69555377 -0.88845767 -1.83048988
  H  5.59398611 -1.01242295 -0.30029555
  H  0.66572517 -1.19761527  2.11222703
  H -0.03876047 -3.08690624  3.51978102
  H -2.34587279 -3.95073224  3.36892307
  H -3.94287558 -2.90717736  1.80305340
  H -3.24092339 -1.01642412  0.40173866
  H -2.91062393  1.06901666 -1.36578942
  H -4.45891463  2.89667898 -0.89768823
  H -4.26679733  4.19897041  1.18944777
  H -2.49509601  3.64055536  2.81800164
  H -0.93285061  1.79968918  2.35038496
  H -0.61779049  0.57992136 -1.85200483
  H -1.61432196 -0.83497840 -1.49145606
  H  0.93204036 -1.55576401 -0.51636279
  H  0.16938944 -2.12501529 -1.98299411
  H  2.39443118 -1.44769298 -2.43948621
  H  1.23631842 -0.48962353 -3.34756906
  H  1.67743339  1.49498303 -2.11462370
  H  3.19716409  0.79544526 -2.66745588
