34
opt_min/./Reactant_4501_1_opt.xyz
  C -2.44014197  1.21208100 -2.80792002
  N -1.47982354  0.96737601 -1.75975655
  C -1.56824912 -0.11289843 -0.94799445
  O -2.50951155 -0.87742611 -0.96005951
  C -0.47359593 -0.23654354  0.06934714
  C -0.91982022 -0.68392542  1.38419756
  C -2.08797275 -0.16364041  1.94430988
  C -2.54753697 -0.63152275  3.15994501
  C -1.86231471 -1.63365805  3.82769430
  C -0.71431129 -2.17310165  3.27009349
  C -0.24144301 -1.70424366  2.06105326
  N  0.79759182  0.01136667 -0.19927083
  C  1.73079027  0.27350083  0.87956752
  C  1.29498371  0.02353639 -1.48389225
  C  0.61615645 -0.73976273 -2.44174866
  N  0.11867988 -1.42281873 -3.22392740
  C  2.42475158  0.81461512 -1.91004203
  C  2.85346903  0.61044302 -3.34635409
  O  3.01389036  1.61599023 -1.19068048
  H -3.20888063  0.44583917 -2.72759031
  H -2.89080660  2.19862216 -2.69225772
  H -1.96260212  1.14264037 -3.78637855
  H -0.68204839  1.58184355 -1.71412287
  H -2.62541529  0.61524744  1.42601933
  H -3.44811881 -0.21668203  3.58634653
  H -2.22779089 -2.00182813  4.77408214
  H -0.18843675 -2.96949993  3.77636100
  H  0.63161155 -2.15755883  1.61493652
  H  2.31976185  1.15141377  0.60456616
  H  2.42187831 -0.56084531  1.00065852
  H  1.19459263  0.44949791  1.80796571
  H  2.01027575  0.47113823 -4.01542871
  H  3.44745064  1.46503097 -3.66108848
  H  3.47920257 -0.27912282 -3.39831322
