24
opt_min/./Reactant_911_0_opt.xyz
  C -3.96569900  1.31046900 -0.29172800
  N -2.55211065  1.40586360 -0.03045350
  C -1.71013216  0.35911058 -0.19546684
  O -2.07411536 -0.74878644 -0.59000304
  C -0.31607760  0.59413631  0.13827062
  N  0.45583093 -0.46300245 -0.03907739
  C  1.75359782 -0.69548702  0.12708376
  C  2.25009316 -2.07778872 -0.16752904
  C  2.62465481  0.35173851  0.59353075
  O  2.28639708  1.49642183  0.84268808
  O  3.91282198 -0.06274001  0.72676208
  C  4.82466554  0.92490042  1.17090473
  H -4.53988809  1.29169931  0.63958566
  H -4.13690696  0.37878005 -0.82996128
  H -4.29785823  2.15350572 -0.89939871
  H -2.18419037  2.27939131  0.30908674
  H  0.08785618  1.52351250  0.49111223
  H -0.11818954 -1.25328618 -0.38106968
  H  1.99806806 -2.76177515  0.64500683
  H  3.32954111 -2.06732680 -0.27853227
  H  1.80328810 -2.45943870 -1.08484954
  H  4.44859111  1.41260783  2.07301532
  H  4.97117650  1.68412928  0.39815568
  H  5.75878592  0.40677484  1.37567023
