21
opt_min/./Reactant_3773_1_opt.xyz
  C -3.34138400 -0.74677400 -0.26047200
  C -1.97074292 -0.81917621  0.31633006
  N -0.90606070 -0.27687452 -0.22767049
  C -1.02443586  0.32470254 -1.54329763
  C  0.28594809 -0.21680394  0.40341485
  C  1.54689129  0.12415188 -0.18083493
  O  1.76058810  0.47956849 -1.34195917
  N  2.59638087  0.02605243  0.70273131
  C  3.95211503  0.28060068  0.29103823
  H -4.07234692 -0.92576594  0.52465833
  H -3.49590627 -1.50683269 -1.03309745
  H -3.54431325  0.22801307 -0.70349567
  H -1.84350478 -1.30012535  1.27285852
  H -1.31903420  1.36975060 -1.44161321
  H -0.04590468  0.28533870 -2.02601019
  H -1.75891842 -0.20576285 -2.14493901
  H  0.28733986 -0.62973126  1.40068954
  H  2.43150871 -0.29745202  1.64047781
  H  4.41915760 -0.61605489 -0.13177197
  H  3.93252307  1.04769141 -0.48381105
  H  4.54191175  0.62513355  1.13842887
