21
opt_min/./Reactant_5639_1_opt.xyz
  C  4.07876800 -0.36159100  0.29831400
  C  2.71755428 -0.49617954 -0.25934406
  O  2.44907149 -1.10037997 -1.38536986
  C  1.01148532 -1.03355190 -1.58765398
  O  0.50200725 -1.52021968 -2.56173672
  C  0.56689486 -0.32750039 -0.44445667
  C -0.75739845  0.06873474 -0.04871485
  C -1.84765174 -0.25375728 -0.86450529
  C -3.12184493  0.12303531 -0.49087556
  C -3.32989395  0.82034236  0.68955462
  C -2.25423302  1.14171191  1.50020114
  C -0.97329523  0.77139952  1.13957699
  O  1.65941540 -0.03144680  0.32324590
  H  4.04458631  0.27359856  1.18011309
  H  4.47506382 -1.33842648  0.57875537
  H  4.75153789  0.07087017 -0.44082858
  H -1.67073385 -0.79596797 -1.77887624
  H -3.95891304 -0.12887409 -1.12483135
  H -4.32978847  1.11216411  0.97587674
  H -2.41196896  1.68483937  2.42072879
  H -0.13459259  1.02177602  1.77150793
