32
opt_min/./Reactant_2345_1_opt.xyz
  C -0.37379600  2.66083700  0.49276900
  C -1.39027206  1.87309091 -0.30139234
  O -2.40459117  2.40033485 -0.71496743
  C -1.14452051  0.44741944 -0.52414538
  C -0.07985165 -0.34815434 -0.27608796
  C  1.29946170 -0.04542672  0.06986690
  C  2.01728908  0.90929958 -0.65173617
  C  3.34234024  1.16140041 -0.35432176
  C  3.97238461  0.46910752  0.66681073
  C  3.27376254 -0.49100719  1.37957871
  C  1.95134741 -0.75653824  1.07704709
  C -0.55220001 -1.77436118 -0.46569137
  C -1.52015667 -2.05931318  0.70780030
  C -2.72775582 -1.16088524  0.38539273
  C -2.29046032 -0.46134096 -0.91893279
  C -1.53842817 -1.59273267 -1.62124417
  H -0.88533519  3.48069925  0.99405928
  H  0.14521003  2.03961062  1.21662688
  H  0.35940670  3.09030558 -0.18653715
  H  1.53126646  1.43039158 -1.46256838
  H  3.88849711  1.89931713 -0.92396392
  H  5.00693058  0.67228348  0.90006943
  H  3.76486948 -1.03863166  2.17072105
  H  1.41175134 -1.50644652  1.63623437
  H  0.23871477 -2.51137011 -0.59088941
  H -1.79584372 -3.11346168  0.71767374
  H -1.07025353 -1.81667538  1.67027088
  H -2.93711597 -0.43923426  1.17386809
  H -3.62806537 -1.75045405  0.21434864
  H -3.09405192  0.03601231 -1.45501904
  H -1.05663866 -1.27492055 -2.54479804
  H -2.15184817 -2.47205092 -1.80909854
