26
opt_min/./Reactant_2683_1_opt.xyz
  C  4.46717447 -0.31200546 -0.62399742
  O  3.21576204 -0.20874226  0.04427935
  C  2.18143107  0.14936219 -0.70278488
  O  2.22155326  0.36576119 -1.88293544
  C  0.88959309  0.19042198  0.12516088
  F  1.19263369  0.45745129  1.44401739
  C -0.10491338  1.10459863 -0.40597770
  C -1.19823426  1.33855175 -0.85483472
  C -2.57882364  1.04456812 -1.10544743
 Cl -3.61593667  2.47228416 -1.40239486
 Cl -2.59371415  0.05105095 -2.61208614
  C -3.10110789  0.19931761  0.08859826
  C -2.07429257 -0.21908199  1.16345869
  C -1.08544144 -1.36831694  0.89123588
  C  0.16371778 -1.17493140  0.00439051
  H  4.76017684  0.65797435 -1.02942825
  H  4.39791678 -1.02968607 -1.44357755
  H  5.18130319 -0.64641293  0.12313452
  H -3.84995823  0.80786249  0.60064882
  H -3.59807482 -0.68626454 -0.30700725
  H -1.53469246  0.65821153  1.51556570
  H -2.68412944 -0.56705707  2.00097729
  H -1.63467125 -2.20881550  0.46451245
  H -0.72921776 -1.67683411  1.87686613
  H -0.09578325 -1.28154926 -1.05030897
  H  0.87601547 -1.96506126  0.25575852
