13
opt_min/./Reactant_708_1_opt.xyz
  C  2.34251572  2.08158669  0.82553235
  O  1.41337652  1.00334826  0.83254820
  C  0.47466438  1.01548183 -0.10363461
  O  0.32213685  1.84510797 -0.95437420
  C -0.39529032 -0.14570816  0.03308775
  C -1.15827755 -1.07145106  0.08217683
  C -2.07618509 -2.20883777  0.10717366
  F -2.60235176 -2.39560020  1.32535443
  F -3.09751675 -2.04371779 -0.74215141
  F -1.45974367 -3.34815287 -0.23362317
  H  3.19855947  1.82128345  0.20008638
  H  2.66282194  2.22326169  1.85519145
  H  1.87166090  2.98653356  0.43735886
