28
opt_min/./Reactant_3048_0_opt.xyz
  C -1.20785300  1.01131800 -2.23583400
  C -2.16299680  0.57181697 -1.13970856
  O -3.35350344  0.46918620 -1.38242162
  C -1.61814780  0.34296932  0.18179899
  N -0.31370709  0.16748904  0.51048078
  C  0.80996018 -0.04122151 -0.11342661
  C  2.05697253 -0.25480420  0.56660287
  C  3.20566962 -0.48260756 -0.20553164
  C  4.43125697 -0.69360209  0.39047040
  C  4.54409931 -0.68187008  1.77245915
  C  3.41782685 -0.45937031  2.55123413
  C  2.18813854 -0.24700866  1.96301432
  C -2.42140862  0.33894989  1.40208602
  C -3.90705257  0.46093088  1.32029936
  O -1.82925887  0.24286540  2.48067307
  H -1.78707414  1.54602940 -2.98497925
  H -0.77256727  0.13926088 -2.72104867
  H -0.41914430  1.65472059 -1.85648232
  H -0.30129943  0.13543525  1.55543158
  H  0.81960179 -0.07974078 -1.19104025
  H  3.11833914 -0.49321616 -1.28250031
  H  5.30316655 -0.86740931 -0.22249608
  H  5.50244166 -0.84550429  2.24049732
  H  3.50194376 -0.45091983  3.62780626
  H  1.32916620 -0.07867198  2.59674854
  H -4.32548035  0.49375914  2.32226160
  H -4.18016275  1.35714075  0.76932948
  H -4.31281320 -0.38402615  0.76965096
