35
opt_min/./Reactant_2710_0_opt.xyz
  C  4.11836700  0.28858700  3.03618700
  O  3.07808034  0.31731893  2.07281035
  C  3.41751660  0.74329469  0.81046130
  O  4.55015370  1.05264505  0.52305965
  C  2.25751099  0.75368447 -0.05247326
  N  1.10180064  0.25693319  0.49264659
  C -0.12678312  0.32339728  0.04092571
  C -0.47468882  1.37612087 -0.97181886
  O -0.16038278  2.52570465 -0.77928343
  O -1.35579043  0.96837857 -1.88694232
  C -1.72685828  1.93695298 -2.85814157
  C -1.16885605 -0.43485239  0.73008635
  C -2.23960227 -0.99773670  0.03265176
  C -3.20443502 -1.72426566  0.70489152
  C -3.12964505 -1.89290907  2.07760881
  C -2.07696154 -1.32936569  2.78179766
  C -1.10187468 -0.61122879  2.11775498
  C  2.30371514  0.97912091 -1.47308709
  C  3.62307109  1.32610355 -2.09297943
  O  1.29768530  0.82472871 -2.16628621
  H  5.08782537  0.31682312  2.53599261
  H  4.02466386  1.15376771  3.69550325
  H  4.00970996 -0.63094233  3.60976163
  H  1.25043408 -0.29081099  1.34145514
  H -1.89294850  2.90518922 -2.38201188
  H -0.93170617  2.03144503 -3.59863561
  H -2.64016379  1.57313010 -3.32273003
  H -2.29521571 -0.87480152 -1.03574197
  H -4.02181450 -2.16232374  0.15181706
  H -3.88916088 -2.45520908  2.59880299
  H -2.01843205 -1.44532711  3.85340319
  H -0.30607512 -0.15170485  2.68714584
  H  3.50272774  1.40985135 -3.16999343
  H  4.37138815  0.57480632 -1.85529443
  H  3.97159006  2.26948111 -1.68047596
