44
opt_min/./Reactant_5956_1_opt.xyz
  C -0.58494800 -1.67832400  2.88844100
  O -0.42824362 -0.82243116  1.77473448
  C -1.54678706 -0.60183637  1.02383702
  O -2.61389341 -1.11561371  1.30140727
  C -1.33102789  0.36202167 -0.02514941
  N -0.13392516  0.93123172 -0.31341295
  C  1.14468143  0.67178386 -0.03615900
  C  2.03989857  1.83410547 -0.15882097
  C  3.19960745  1.79192350 -0.93183659
  C  4.01415278  2.90407001 -1.02507175
  C  3.68404508  4.07055842 -0.35336807
  C  2.53075986  4.12425014  0.41248274
  C  1.71058314  3.01592901  0.50676718
  C  1.71034190 -0.62649969  0.23180297
  C  1.07816254 -1.80352771 -0.19352694
  C  1.66981598 -3.03295845  0.00969680
  C  2.89570366 -3.12663421  0.64859582
  C  3.53816539 -1.97080893  1.06595365
  C  2.95855860 -0.73612886  0.85899989
  C -2.49089119  0.88799855 -0.74906867
  C -3.52180567  0.03518831 -1.14834403
  C -4.62026722  0.52399620 -1.82883051
  C -4.71755569  1.87190631 -2.13039878
  C -3.70410239  2.73106351 -1.73695602
  C -2.60490343  2.24840992 -1.05572428
  H  0.40187115 -2.08298717  3.10641132
  H -0.95780618 -1.11601875  3.74838818
  H -1.29043640 -2.47734090  2.65322027
  H -0.26336819  1.79504088 -0.83985997
  H  3.45071741  0.87997536 -1.45305573
  H  4.90906188  2.86409965 -1.62853167
  H  4.32566802  4.93569474 -0.42783899
  H  2.27641531  5.03252316  0.93860167
  H  0.81339958  3.04881992  1.10902465
  H  0.13505031 -1.74525027 -0.71542219
  H  1.16555684 -3.92589127 -0.33074747
  H  3.35060422 -4.09073771  0.82063315
  H  4.49542541 -2.03254647  1.56303569
  H  3.45987531  0.15643554  1.20273699
  H -3.45569478 -1.01417742 -0.91378620
  H -5.40569559 -0.15329112 -2.13028896
  H -5.57577446  2.25520893 -2.66141104
  H -3.77632730  3.78728704 -1.95437111
  H -1.84545537  2.95065205 -0.73269668
