29
opt_min/./Reactant_5043_1_opt.xyz
  C  4.82904500  1.21907200 -0.60047000
  O  3.46637183  1.51918714 -0.86408004
  C  2.54951651  0.65040426 -0.38344493
  O  2.82026330 -0.35926441  0.22656698
  C  1.21426265  1.09014955 -0.74556175
  O  0.24294712  0.31988428 -0.37241030
  C -1.05470169  0.34296577 -0.50589396
  C -1.80133552  1.43579049 -1.14913061
  O -2.97903910  1.41434798 -1.42181143
  O -1.02426013  2.51375067 -1.39743873
  C -1.66463604  3.63884326 -1.98174195
  C -1.72501121 -0.82791739  0.06331208
  C -0.93890317 -1.88475705  0.55160019
  C -1.52433097 -3.00446130  1.10324882
  C -2.90573951 -3.10628723  1.18323517
  C -3.69236093 -2.06966233  0.70747801
  C -3.11635985 -0.94085255  0.15518661
  H  4.93176191  0.17295673 -0.30316116
  H  5.38897410  1.41257331 -1.51371259
  H  5.19156664  1.86303843  0.20331816
  H  1.07160115  2.01028890 -1.29130257
  H -2.03092692  4.30130733 -1.19603016
  H -2.50353692  3.31498130 -2.59916210
  H -0.91565405  4.14911123 -2.58365859
  H  0.13708096 -1.81946359  0.49387833
  H -0.90097854 -3.80613493  1.47230628
  H -3.36529797 -3.98432694  1.61231780
  H -4.76855588 -2.13824021  0.76753743
  H -3.74627164 -0.14619487 -0.20721686
