21
opt_min/./Reactant_2857_1_opt.xyz
  C  3.66335100 -0.40934000  0.03160400
  C  2.18322070 -0.57082940 -0.05805679
  O  1.63783393 -1.54265072 -0.52855735
  C  1.32729555  0.53039542  0.47420312
 Br  2.16181112  1.89050290  1.48331485
  C  0.00925108  0.51973007  0.21355210
  C -0.90483526  1.61802760  0.65398004
  C -2.14066489  1.79325447 -0.17880821
  O -0.63972129  2.30456310  1.60978388
  C -0.58876283 -0.57872925 -0.63584643
  C -1.21325618 -1.69558150  0.15330798
  O -0.66177147 -0.45214915 -1.83092722
  H  3.96848520  0.55874049 -0.36118610
  H  3.97251355 -0.45467571  1.07545197
  H  4.14712783 -1.21037541 -0.52125946
  H -1.89674328  1.76595093 -1.23836396
  H -2.83438673  0.97832458  0.02567219
  H -2.61832252  2.73621469  0.07512903
  H -0.42729166 -2.31557432  0.57826069
  H -1.82676739 -2.30543718 -0.50375370
  H -1.80931340 -1.29492105  0.97073852
