47
opt_min/./Reactant_3212_0_opt.xyz
  C  5.51420267 -0.29774894 -0.53859758
  O  4.29005391  0.34160062 -0.19747613
  C  3.40760859 -0.40288504  0.46836598
  O  3.57260416 -1.55054508  0.76964457
  C  2.15817644  0.41849511  0.82066220
  C  2.41011001  0.98549425  2.12918439
  N  2.59809719  1.38581221  3.18297914
  C  0.94500339 -0.38285685  0.85141817
  C -0.14525608 -0.69120570  0.45358556
  C -1.42637156 -0.54633398 -0.22057802
  C -2.47741205  0.02139495  0.71027452
  C -2.31033089 -0.03155950  2.08738626
  C -3.26930166  0.49479425  2.93553024
  C -4.41126740  1.07972242  2.41820880
  C -4.59078074  1.12916154  1.04607908
  C -3.63292409  0.60359233  0.19829217
  C -1.84634001 -1.85547047 -0.87225523
  C -0.90791694 -2.56146477 -1.61801799
  C -1.24477820 -3.75081254 -2.23658433
  C -2.52651891 -4.25932918 -2.11381279
  C -3.45978927 -3.57508580 -1.35644057
  C -3.12247701 -2.38357633 -0.73649444
  C -1.04560059  0.48735698 -1.33372421
  C -0.71405274  1.92022787 -0.87873376
  C  0.46043926  2.20622420  0.07892650
  C  1.81609552  1.51946930 -0.22274814
  H  5.31958794 -1.20495067 -1.11382829
  H  6.07564750  0.42077051 -1.12977062
  H  6.06448970 -0.56473279  0.36546319
  H -1.42263500 -0.48961052  2.49854403
  H -3.12096355  0.44665196  4.00419591
  H -5.15928319  1.49236220  3.07870214
  H -5.48230011  1.57844474  0.63263058
  H -3.79283471  0.64281847 -0.86940921
  H  0.10310192 -2.18851953 -1.70105454
  H -0.50202545 -4.28379668 -2.81197157
  H -2.79277222 -5.18756519 -2.59721225
  H -4.45855153 -3.97025708 -1.24103024
  H -3.86253865 -1.87121092 -0.14044488
  H -1.88183412  0.56141438 -2.03258835
  H -0.19914841  0.07872213 -1.88748250
  H -0.53987824  2.48459794 -1.79965576
  H -1.60450558  2.34030327 -0.40462393
  H  0.65831868  3.28002626  0.04519979
  H  0.15703598  1.97108071  1.09939011
  H  1.78631591  1.05156274 -1.20756221
  H  2.61974270  2.25781048 -0.23661030
