10
opt_min/./Reactant_4656_1_opt.xyz
  O  2.88813886 -0.84774212  0.48997443
  C  2.68168452 -0.14624343 -0.38986447
  O  2.49208087  0.54764859 -1.27844381
  C -0.31413683 -0.29709898  0.46454418
  C -0.73310310  0.41968950 -0.39372386
  C -3.79772161  0.43158427  0.24994271
  O -3.66462583 -0.25930732  1.15124543
  O -3.94723495  1.13751278 -0.63824454
  H  0.04780376 -0.92551743  1.22419457
  H -1.09294288  1.05056695 -1.15241432
