33
opt_min/./Reactant_5270_0_opt.xyz
  C -3.91362900  2.00490500  1.69382700
  N -3.00421313  1.15379546  0.97572737
  C -1.96064057  0.56092055  1.57476482
  O -1.79470075  0.63357007  2.79273898
  C -1.02846122 -0.14526838  0.64462222
  C -1.38941352 -0.30221500 -0.78926644
  O -2.27334617  0.32628980 -1.35755965
  N -0.82278380 -1.37377432 -1.40740242
  C -1.00902380 -1.61346148 -2.81718025
  N  0.16682108 -0.58792533  1.08522755
  C  0.28117921 -1.10727387  2.43701231
  C  1.28892550 -0.54118755  0.32608516
  C  2.45961116 -1.40174854  0.70091739
  C  1.42057167  0.52359438 -0.62640443
  C  2.82891163  0.85315546 -1.07906324
  O  0.46912239  1.19559746 -1.01603008
  H -3.75323314  3.05383162  1.43231402
  H -4.94141304  1.73327567  1.45025358
  H -3.73802209  1.87176273  2.76106614
  H -3.04524406  1.11813589 -0.04420680
  H -0.04644254 -1.85142254 -0.97852131
  H -0.10554369 -1.36873207 -3.38131845
  H -1.82277944 -0.97445008 -3.15455170
  H -1.26924332 -2.65959204 -2.98644907
  H  1.26971675 -0.91865328  2.84413979
  H -0.46445703 -0.60069796  3.05262334
  H  0.08088552 -2.17863185  2.43585839
  H  3.06218195 -1.61435316 -0.17866877
  H  2.11915683 -2.34921761  1.11341039
  H  3.11037054 -0.92606909  1.43863980
  H  2.79769143  1.78605795 -1.63558698
  H  3.50461419  0.95854926 -0.23415833
  H  3.20721092  0.06914658 -1.73268331
