21
opt_min/./Reactant_1279_1_opt.xyz
  C  2.92780400 -0.60409100 -0.35380000
  O  2.14824301  0.54063939 -0.62115526
  C  0.88233948  0.56631227 -0.13238821
  C -0.02839875  1.51770168 -0.36998573
 Cl  0.11455583  2.91032601 -1.34972151
  C -1.31456914  1.11439706  0.31364517
  C -1.86451365 -0.08893721 -0.48889019
  C -0.82415496 -1.18690246 -0.20870331
  C  0.18754691 -0.47813829  0.72358543
  C -0.74781637  0.40993042  1.54424177
  H  3.84831294 -0.47299262 -0.92197143
  H  3.16537462 -0.69885034  0.70782636
  H  2.42381509 -1.51514411 -0.69321955
  H -2.03097814  1.91814430  0.45918014
  H -2.85291851 -0.36541750 -0.12213193
  H -1.94565181  0.15010799 -1.54741336
  H -1.27242202 -2.04051918  0.30064148
  H -0.34811024 -1.55591381 -1.11655252
  H  0.84146019 -1.15400847  1.26918729
  H -0.21982018  1.08064877  2.22046936
  H -1.49144937 -0.15226122  2.10909382
