42
opt_min/./Reactant_2682_0_opt.xyz
  C  3.40165492  1.74749969 -2.95148511
  N  2.70764046  1.21042637 -1.80368752
  C  1.53332988  0.54405633 -1.93459743
  O  1.03035934  0.32866695 -3.00849027
  C  0.91012988  0.03265008 -0.61375424
  C  1.63226703 -1.29315304 -0.28386920
  O  1.12808553 -2.37132674 -0.47051005
  N  2.87825354 -1.14748894  0.22742096
  C  3.71572899 -2.28937217  0.51109976
  C -0.50014132 -0.23149780 -0.83624481
  C -1.67927426 -0.22706218 -0.61990127
  C -2.89413721  0.21119939  0.05688036
  C -3.65372953 -0.95384829  0.70735339
  C -5.03197814 -0.69011141  1.24473972
  O -3.10325360 -2.00929350  0.87117563
  C -3.69527224  1.12547551 -0.88982418
  F -3.34016355  0.96917601 -2.16681885
  F -5.02677485  0.94531271 -0.86793877
  F -3.52151228  2.43321414 -0.61459791
  C -2.24683208  1.03969199  1.24108528
  C -1.18207594  0.21746934  2.00405020
  C  0.28938910  0.65691961  1.87782411
  C  0.89589013  1.08265649  0.52561819
  H  3.05062756  1.21242010 -3.83192186
  H  3.18856213  2.81214727 -3.08066112
  H  4.47555809  1.60627342 -2.83609094
  H  3.05959481  1.47471387 -0.89969086
  H  3.28469538 -0.23815948  0.36128997
  H  4.23079061 -2.14945850  1.46107875
  H  4.45161547 -2.44341292 -0.28224737
  H  3.07354513 -3.16666306  0.56756673
  H -5.22777447 -1.38842679  2.05469550
  H -5.16032595  0.33335083  1.58628508
  H -5.76264989 -0.87492606  0.45821802
  H -1.76810910  1.90452478  0.78317493
  H -3.02831465  1.38377125  1.91858936
  H -1.25799921 -0.81984676  1.67643548
  H -1.47256479  0.24147423  3.05582889
  H  0.44408962  1.50368198  2.55447853
  H  0.88563804 -0.16796652  2.27679890
  H  0.37825392  1.96941846  0.15174410
  H  1.91461598  1.40621096  0.76269841
