23
opt_min/./Reactant_5039_1_opt.xyz
  C  1.72374854 -0.37266975 -0.62006571
  N  0.41588353 -0.40217985 -1.24331246
  C -0.68540897 -0.10953248 -0.58585857
  C -0.81583574  0.33017243  0.77840558
  C -1.96045701 -0.07660542  1.48062492
  C -2.16463343  0.32015030  2.78525646
  C -1.25153917  1.15122980  3.41612648
  C -0.13785068  1.59579711  2.72132038
  C  0.08259171  1.19514129  1.41811706
  C  0.39034340 -0.82077963 -2.54383311
  C  1.56297828 -1.01408280 -3.26892354
  N  2.53069629 -1.16853200 -3.87556898
  C -0.80385481 -1.04261279 -3.23004092
  N -1.78085357 -1.21914831 -3.81379446
  H  1.62425156 -0.53237859  0.45189586
  H  2.22263324  0.58090249 -0.80069679
  H  2.34509925 -1.15668653 -1.05308108
  H -1.60815827 -0.29364460 -1.12251944
  H -2.67460376 -0.72214925  0.99278878
  H -3.04359439 -0.01501882  3.31493303
  H -1.41274206  1.46351613  4.43595504
  H  0.56226820  2.26738426  3.19629394
  H  0.92913106  1.59403988  0.88332350
