19
opt_min/./Reactant_542_1_opt.xyz
  C -1.68177000 -1.10679800  0.89054000
  C -0.58023969 -0.55683661  0.07127992
  C -0.36034278  0.64836340 -0.45346856
  C -1.12365165  1.91206294 -0.38377509
  F -2.26825946  1.79874365  0.31103430
  F -1.45908566  2.38989824 -1.59578657
  F -0.41567233  2.89491305  0.21356845
  C  1.01085619  0.54683121 -1.15230991
  C  2.01767077  0.43773814 -0.00139443
  C  1.80256589 -0.76092631  0.51622914
  C  0.67501966 -1.35698925 -0.33476685
  O  0.96397094 -0.79372317 -1.60141524
  H -2.59299861 -1.16566682  0.29377365
  H -1.89566037 -0.45538309  1.73779106
  H -1.43139705 -2.10011647  1.25270239
  H  1.21245247  1.24944549 -1.95204667
  H  2.69610273  1.21402772  0.28461689
  H  2.26045215 -1.25021137  1.35049656
  H  0.58067569 -2.43573020 -0.37596537
