30
opt_min/./Reactant_2235_1_opt.xyz
  C -2.64558398 -1.11544238  0.90594628
  O -2.73820063  0.19527883  0.39678945
  C -1.55976229  0.90149094  0.24449563
  O -1.83396337  2.17316192 -0.19082370
  C -2.72257948  2.91007334  0.63318737
  C -0.63335735  0.87649221  1.48428233
  C  0.53247645  0.56809378  1.67688351
  C  1.82064413 -0.05812184  1.27065448
  C  2.91238582  0.51160182  2.03989380
  N  3.74567096  0.99330015  2.65405525
  C  1.67966109 -1.46682235  1.60260057
  N  1.51939525 -2.57260178  1.83884674
  C  2.24483652  0.06013410 -0.27818482
  C  1.53128114 -0.68894499 -1.45665373
  C  0.13594280 -0.18195491 -1.96679842
  C -0.39845026  0.27193125 -0.61929158
  H -3.66944137 -1.42574246  1.10544791
  H -2.19399197 -1.79843656  0.18065857
  H -2.06442460 -1.13511855  1.83429424
  H -2.76045221  3.90983842  0.20717098
  H -3.71824865  2.46280365  0.63633092
  H -2.33621703  2.95227753  1.65781404
  H  2.33140682  1.12413536 -0.51078714
  H  3.26123923 -0.34949712 -0.27258320
  H  1.42698662 -1.73758295 -1.16758536
  H  2.24149097 -0.64910501 -2.28534558
  H  0.24002938  0.63405463 -2.67976472
  H -0.40223067 -1.00243623 -2.43828588
  H  0.31301368  1.06696502 -0.42838327
  H -0.21248046 -0.62600722 -0.03086085
