32
opt_min/./Reactant_882_1_opt.xyz
  C  3.19069197  2.54433160 -2.39307810
  O  2.26377337  1.51344775 -2.08750796
  C  2.64345133  0.59873864 -1.19022432
  O  3.70846927  0.60190663 -0.63246114
  C  1.55658283 -0.43909866 -0.98091997
  C  0.21919940  0.10939920 -0.89743488
  C -0.88527931  0.32848010 -0.48428701
  C -2.11426967  0.16721201  0.27396859
  C -3.35676378  0.15201468 -0.61690360
  C -2.23546987  1.27175004  1.33239632
  C -1.91709158 -1.22540334  0.93338237
  C -0.54545551 -1.45791821  1.59914399
  C  0.55865893 -2.10283776  0.72233610
  C  1.75226221 -1.20598675  0.34541003
  H  3.84647078  2.22448921 -3.20570489
  H  2.60756643  3.40890129 -2.70195488
  H  3.79632246  2.77855057 -1.51553428
  H  1.61112764 -1.13229481 -1.83087014
  H -4.24579976 -0.02383070 -0.01453621
  H -3.28276631 -0.63369836 -1.36597192
  H -3.46701378  1.10426479 -1.13132790
  H -1.25758987  1.54904371  1.71855693
  H -2.85231048  0.93540725  2.16289714
  H -2.69246834  2.16004027  0.90215942
  H -2.06317982 -1.98848204  0.16643467
  H -2.70623345 -1.35722833  1.67780151
  H -0.17556216 -0.52042539  2.01135110
  H -0.72001953 -2.12608028  2.44592788
  H  0.11036210 -2.50913905 -0.18485108
  H  0.96743278 -2.94876811  1.27961771
  H  2.66157574 -1.80327356  0.26172053
  H  1.91793654 -0.47396566  1.13735326
