26
opt_min/./Reactant_5886_1_opt.xyz
  C  4.30477627 -2.03842246  0.77043303
  N  3.16417986 -1.33398727  0.23498249
  C  3.19843224 -0.78784274 -1.00118528
  O  4.16481448 -0.80903118 -1.73106138
  C  1.90892660 -0.10063453 -1.39541702
  C  1.76665310  0.24875088 -2.74946700
  N  1.67274209  0.35382251 -3.89046048
  O  1.01984537 -0.01721933 -0.46121884
  C -0.17514888  0.55612061 -0.43495959
  C -0.54584069  1.60207407 -1.39508261
  C -1.95904368  2.08964429 -1.39009341
  O  0.31978132  2.05748612 -2.12142634
  C -0.92716610  0.22647647  0.78404375
  O -2.00361761  0.67170054  1.10152277
  O -0.26084057 -0.69404133  1.51772795
  C -0.90003680 -1.12027745  2.71360714
  H  5.20777630 -1.62891768  0.31866500
  H  4.34164221 -1.91115710  1.84930190
  H  4.25518828 -3.10417100  0.53192147
  H  2.31913378 -1.29548211  0.78419640
  H -2.62645321  1.26919453 -1.64580000
  H -2.23940320  2.43416944 -0.39785454
  H -2.06295293  2.89170061 -2.11535930
  H -1.38506668 -0.27391581  3.20303338
  H -0.12433109 -1.54066523  3.34915352
  H -1.65178295 -1.87780854  2.48433303
