50
opt_min/./Reactant_2714_0_opt.xyz
  C -4.06684130 -1.90649433  1.33854181
  C -4.05111656 -1.70293086 -0.15426908
  O -4.47187459 -2.52426852 -0.92891081
  C -3.48399219 -0.36447074 -0.61747647
  C -4.53095437  0.75442950 -0.47829865
  C -5.95552002  0.35616340 -0.74794634
  O -4.20857196  1.87619331 -0.19264273
  C -2.24795618 -0.05894206  0.06774535
  C -1.07429464  0.08390830  0.27499534
  C  0.33867584 -0.09483237 -0.03510282
  C  0.96287305 -1.19233407  0.80091679
  C  0.28866979 -1.74690479  1.88002882
  C  0.85688345 -2.76811600  2.62204549
  C  2.11175406 -3.24963531  2.29536328
  C  2.79603572 -2.69979207  1.22445362
  C  2.22651032 -1.68113010  0.48327374
  C  1.06821434  1.23396407  0.07139680
  C  2.19724630  1.41162320  0.85879688
  C  2.81848954  2.64741877  0.93208644
  C  2.31505996  3.72752739  0.23112358
  C  1.16982386  3.56891844 -0.53106931
  C  0.55092365  2.33563842 -0.60469978
  C  0.23445825 -0.57065766 -1.52542572
  C -0.76739960 -1.72907584 -1.72188424
  C -2.01836076 -1.42099635 -2.56599026
  C -3.08085173 -0.39558230 -2.12161386
  H -5.10243192 -1.96204917  1.67343340
  H -3.55670945 -1.10385938  1.86298320
  H -3.60225250 -2.86156861  1.57571246
  H -6.02808628 -0.49605878 -1.41616628
  H -6.41235507  0.08936141  0.20588275
  H -6.50504391  1.20375673 -1.15120337
  H -0.68844517 -1.36958423  2.14589666
  H  0.31591504 -3.18765768  3.45775612
  H  2.55649149 -4.04677988  2.87266448
  H  3.77908228 -3.06543621  0.96518482
  H  2.77542850 -1.25753655 -0.34557662
  H  2.59999152  0.58834510  1.42964132
  H  3.69938874  2.76364228  1.54683589
  H  2.80254863  4.68953712  0.28842178
  H  0.75263571  4.41008926 -1.06485558
  H -0.36027837  2.23540234 -1.17640698
  H  1.22289479 -0.87096884 -1.87172833
  H -0.07821252  0.28037384 -2.12853745
  H -1.06886747 -2.13420249 -0.75723826
  H -0.25227914 -2.53903750 -2.24689208
  H -2.52432149 -2.37547416 -2.73091612
  H -1.66930172 -1.07078961 -3.53998476
  H -3.98100022 -0.61475086 -2.70103780
  H -2.75134183  0.61336782 -2.38083846
