16
opt_min/./Reactant_711_0_opt.xyz
  C -1.58823892 -0.33485297  1.17120912
  C -0.58948923  0.16254631  0.17920331
  C -0.95020219  1.22740773 -0.78852836
  N  0.62451647 -0.32134233  0.25196502
  C  1.77102073 -0.02730018 -0.42923658
  C  2.89243525 -0.81017104 -0.15218478
  N  3.80956616 -1.45993893  0.09937299
  C  1.93023662  1.01357979 -1.34132716
  N  2.11581158  1.87033210 -2.08930905
  H -2.60015100 -0.19462718  0.80260395
  H -1.49959174  0.21409501  2.11341593
  H -1.44219273 -1.39271526  1.38981537
  H -2.03040762  1.28276449 -0.90342224
  H -0.49563092  1.03426659 -1.75990950
  H -0.59383613  2.20497202 -0.45731864
  H  0.76698864 -1.05817663  0.94132008
