25
opt_min/./Reactant_1221_0_opt.xyz
  C -0.59131422 -2.51503454 -2.38760540
  C  0.29152099 -1.44468627 -1.82317449
  C  1.58024923 -1.35419196 -2.32353183
  N  2.64136252 -1.30655620 -2.77922088
  N -0.13838709 -0.57524096 -0.88097115
  C -1.51857479 -0.70346229 -0.46041822
  C  0.61843836  0.41589016 -0.41938462
  C  0.37460502  1.27160970  0.70455754
  C -0.32654949  0.88323243  1.85903537
  C -0.49494007  1.76141601  2.91092190
  C  0.03243963  3.04065132  2.85440993
  C  0.76361614  3.42681661  1.74114983
  C  0.93991035  2.55679839  0.68691014
  H -1.03860214 -3.12777673 -1.60318110
  H  0.01025810 -3.16330372 -3.02114237
  H -1.39712778 -2.10814847 -3.00469289
  H -1.64944358 -1.56601585  0.19455755
  H -2.15141308 -0.83541866 -1.33804296
  H -1.82657446  0.19797067  0.06252911
  H  1.54253527  0.57343150 -0.95800153
  H -0.69069311 -0.12796623  1.95761528
  H -1.03494313  1.43645434  3.78889713
  H -0.10662225  3.72619206  3.67681477
  H  1.19997574  4.41392195  1.69599003
  H  1.51114939  2.86294699 -0.17716225
