17
opt_min/./Reactant_490_0_opt.xyz
  C  3.11807700 -0.54041400 -0.04447500
  N  1.81602873 -0.04482246  0.31851682
  C  0.69835402 -0.34218461 -0.40841215
  O  0.74814013 -1.08716928 -1.38343270
  C -0.51072654  0.28034577  0.08215704
  N -1.69496468  0.09331269 -0.49059913
  C -2.83878477  0.76866209  0.11262232
  N -1.99174628 -0.61018360 -1.49955103
  H  3.58318636 -1.05465905  0.79840018
  H  3.77303951  0.26992224 -0.37652472
  H  2.97538948 -1.24137899 -0.86594586
  H  1.75292723  0.59578912  1.09157554
  H -0.47606598  0.92131004  0.94668196
  H -3.07130036  0.31269498  1.07478581
  H -3.68437703  0.64283224 -0.55981254
  H -2.62589032  1.82596026  0.25747126
  H -1.16422231 -1.08036167 -1.86983234
