24
opt_min/./Reactant_4315_0_opt.xyz
  C -3.15210400  1.18562600 -0.24504200
  C -2.45425137 -0.09269801 -0.56188902
  C -3.27794226 -1.23984496 -1.05114718
  N -1.14812515 -0.24839295 -0.46144370
  C -0.16227974  0.56218509 -0.05611350
  C  1.20290830  0.18014946 -0.05905344
  C  2.16606223  1.10568379  0.38879875
  C  3.50561633  0.79406554  0.41502564
  C  3.94714575 -0.45342937 -0.00233574
  C  3.01951883 -1.38019890 -0.45186453
  C  1.67620129 -1.07715451 -0.48302206
  H -2.44917551  1.99597145 -0.07929876
  H -3.77152065  1.07866725  0.64861434
  H -3.81300877  1.46611378 -1.06747738
  H -4.19185669 -1.33097366 -0.46345492
  H -3.57745858 -1.09722459 -2.09393741
  H -2.73188945 -2.18023956 -0.98381514
  H -0.81199288 -1.17006132 -0.73243641
  H -0.42806618  1.54444132  0.29326367
  H  1.83221638  2.08076761  0.71641218
  H  4.22008489  1.52781403  0.76286946
  H  4.99813789 -0.69927752  0.02167304
  H  3.35226631 -2.35537214 -0.78175356
  H  0.98863284 -1.83034840 -0.84973225
