41
opt_min/./Reactant_2549_0_opt.xyz
  C  3.27549900 -2.04368500 -2.15631400
  N  2.36190822 -1.22200295 -1.40398659
  C  1.15063492 -1.68226668 -0.98736878
  O  0.76820785 -2.81731493 -1.24362419
  C  0.33901462 -0.70059609 -0.26225582
  C  0.50667565  0.74585841 -0.53337844
  O  0.53088562  1.57468939  0.36059692
  N  0.72042228  1.06952878 -1.83408591
  C  0.88417763  2.43605574 -2.26136751
  N -0.58383089 -1.08046348  0.64390672
  C -0.36361116 -2.31165613  1.38022468
  C -1.66126514 -0.32819105  0.88897162
  C -2.54689740 -0.43744513  2.04154874
  O -3.62090729  0.12398410  2.09289852
  O -2.08824780 -1.20034946  3.06606964
  C -2.90961549 -1.30037089  4.22089597
  C -2.09784999  0.66293762 -0.11252641
  C -2.41924413  1.96697456  0.24988345
  C -2.85726158  2.86785007 -0.70305948
  C -2.98956922  2.47947992 -2.02454263
  C -2.68534428  1.17839140 -2.39196131
  C -2.23623219  0.27734582 -1.44733495
  H  2.73669437 -2.94360894 -2.45321922
  H  4.13969743 -2.33018361 -1.55179432
  H  3.62254197 -1.51223309 -3.04424008
  H  2.68680631 -0.32593535 -1.07846234
  H  0.58589824  0.36533611 -2.54289150
  H  0.79997113  3.06565907 -1.37602896
  H  1.86438672  2.58259172 -2.72222089
  H  0.10421196  2.71094746 -2.97442392
  H  0.47841425 -2.85253902  0.95417941
  H -1.25083425 -2.94374643  1.32986316
  H -0.15386145 -2.08006671  2.42416448
  H -2.37252122 -0.86806554  5.06716773
  H -3.84588926 -0.76247865  4.05821433
  H -3.10771584 -2.35680669  4.40808366
  H -2.30738770  2.27332253  1.27672565
  H -3.09572078  3.87992552 -0.41226111
  H -3.33254004  3.18485667 -2.76760266
  H -2.80277660  0.86414400 -3.41934113
  H -2.00840926 -0.74006889 -1.73630122
