28
opt_min/./Reactant_4715_0_opt.xyz
  C  1.06374900  2.55053700 -0.23696600
  N  0.17051754  1.59719997 -0.43450537
  C -1.07055623  2.04248577 -1.06060151
  C  0.28358338  0.29706453 -0.12480628
  C  1.49248456 -0.42250397  0.23941918
  O  1.43719335 -1.53573356  0.75094258
  N  2.70098918  0.15527654 -0.06362467
  C  3.93282147 -0.56521960  0.13912976
  C -0.92878053 -0.56723617 -0.11700868
  C -1.23962114 -1.37592010 -1.20533836
  C -2.34241365 -2.21007847 -1.16431866
  C -3.14200611 -2.24727532 -0.03502820
  C -2.83413323 -1.45318666  1.05589868
  C -1.73188976 -0.61767534  1.01624359
  H  0.83442660  3.54647180 -0.56237444
  H  1.88356674  2.41189990  0.43732492
  H -0.83687822  2.66778926 -1.92128824
  H -1.65178555  2.62927163 -0.34952642
  H -1.66295302  1.19073464 -1.38379576
  H  2.72749287  0.94386095 -0.68899970
  H  4.39538630 -0.84602745 -0.81070657
  H  3.68772516 -1.46744789  0.69739712
  H  4.63695087  0.04047544  0.71345485
  H -0.60652174 -1.35650171 -2.08131388
  H -2.57417167 -2.83671250 -2.01336969
  H -4.00025655 -2.90260238 -0.00231661
  H -3.44920758 -1.48958936  1.94291750
  H -1.48208996 -0.00615796  1.87072575
