10
opt_min/./Reactant_4519_1_opt.xyz
  O  2.88813886 -0.84774212  0.48997444
  C  2.68168452 -0.14624342 -0.38986446
  O  2.49208088  0.54764861 -1.27844381
  C -0.31413683 -0.29709899  0.46454419
  C -0.73310309  0.41968950 -0.39372386
  C -3.79772160  0.43158425  0.24994270
  O -3.66462582 -0.25930731  1.15124545
  O -3.94723494  1.13751279 -0.63824455
  H  0.04780376 -0.92551744  1.22419456
  H -1.09294288  1.05056694 -1.15241433
