10
opt_min/./Reactant_5172_1_opt.xyz
  O  2.88813886 -0.84774212  0.48997443
  C  2.68168433 -0.14624302 -0.38986412
  O  2.49208101  0.54764877 -1.27844372
  C -0.31413584 -0.29709889  0.46454405
  C -0.73310254  0.41968930 -0.39372405
  C -3.79771983  0.43158342  0.24994253
  O -3.66462441 -0.25930719  1.15124608
  O -3.94723380  1.13751256 -0.63824415
  H  0.04780437 -0.92551770  1.22419433
  H -1.09294202  1.05056669 -1.15241472
