24
opt_min/./Reactant_5163_0_opt.xyz
  C  3.21625500  2.57928500 -0.00408900
  N  2.20527566  1.56586911 -0.17724813
  C  2.51448515  0.25326953 -0.21110187
  O  3.62731892 -0.19445985 -0.06664085
  C  1.30414007 -0.63810268 -0.40259394
  O  0.19084749 -0.04304097 -0.18986648
  N -1.02069362 -0.58403569 -0.28380003
  C -1.97411682  0.40757479 -0.08764479
  O -1.73302757  1.58164010  0.06921050
  O -3.18287663 -0.14752311 -0.11258646
  C -4.28306282  0.73771248  0.04702559
  C  1.49421729 -2.07070608 -0.79489785
  C  0.39690970 -3.00434154 -0.37910156
  O  2.47134324 -2.41376723 -1.40948088
  H  4.13690844  2.08672356  0.30297925
  H  3.39405379  3.11401384 -0.93910915
  H  2.90411140  3.28920230  0.76079665
  H  1.25026517  1.87087550 -0.28770064
  H -3.99730147  1.59453875  0.66003946
  H -5.07390707  0.16686631  0.52797517
  H -4.61733456  1.09186964 -0.92997531
  H  0.19185616 -2.90762763  0.68472515
  H  0.68981517 -4.02458959 -0.61099102
  H -0.52168332 -2.74813364 -0.90377013
