17
opt_min/./Reactant_433_0_opt.xyz
  C -2.33635700  1.00466000  0.26637600
  C -0.97077369  0.42921046  0.08679190
  O -0.87380118 -0.73260346 -0.45145062
  C  0.15082846 -1.51230997 -0.68136676
  C  1.56596923 -1.28448451 -0.48152528
  O  2.36106347 -2.20899137 -0.41652993
  N  1.97086789  0.03487439 -0.35632371
  C  3.39189807  0.31176974 -0.31019819
  H -2.70846063  0.83027225  1.27855807
  H -2.32162261  2.08049331  0.10537180
  H -3.03324224  0.54477266 -0.42960178
  H -0.12137851  0.94685031  0.51013545
  H -0.13472529 -2.49284150 -1.02792854
  H  1.43824907  0.72405149 -0.86845281
  H  3.85393816 -0.42983379  0.33833743
  H  3.54858165  1.30858018  0.09873973
  H  3.86146374  0.24336964 -1.29625150
