28
opt_min/./Reactant_754_1_opt.xyz
  C -1.97028300  3.05231000  0.95091400
  O -1.10323650  2.04847285  0.44281539
  C -1.21821419  0.83601751  1.01007425
  O -2.00473745  0.59815509  1.89452538
  C -0.31071606 -0.16816814  0.44048918
  C  0.81975824 -0.07548580 -0.28700453
  C  1.66810414  1.04577718 -0.72789759
  C  1.91606932  2.14222769  0.27563554
  O  2.18464962  1.03586685 -1.82250069
  C  1.15331932 -1.48374334 -0.74177528
  C  0.06182664 -1.84693367 -1.77618931
  C -1.20843360 -1.95571396 -0.91872037
  C -0.68880634 -1.63031635  0.50407524
  C  0.69041192 -2.28977863  0.47212569
  H -1.80219790  3.93726269  0.34271307
  H -3.00988134  2.72716146  0.87623684
  H -1.74036587  3.25570111  1.99904283
  H  1.08924600  2.84624026  0.22042968
  H  1.95925106  1.74212874  1.28508971
  H  2.83700324  2.66372408  0.03128331
  H  2.16818772 -1.61434244 -1.10320398
  H  0.30858799 -2.80053966 -2.24220860
  H -0.00617816 -1.09227779 -2.55697962
  H -1.98830958 -1.26065581 -1.22711578
  H -1.62516046 -2.96215478 -0.94314746
  H -1.37549172 -1.88878690  1.30340821
  H  0.65078363 -3.36202149  0.29275270
  H  1.27980048 -2.09160718  1.36690246
