23
opt_min/./Reactant_1619_0_opt.xyz
  C -1.72005977  2.85419415  0.83359795
  O -1.41529334  1.49284343  1.09529398
  C -0.84579470  0.80141685  0.08578914
  O -0.56957986  1.29632811 -0.98614953
  C -0.67253084 -0.60259885  0.42214888
  C -1.44127493 -1.21584319  1.55137497
  N -0.05407474 -1.45908628 -0.38774738
  C  0.87107112 -1.37674053 -1.36371187
  C  0.98977892 -2.56235237 -2.11662624
  N  1.04673269 -3.55274966 -2.69607719
  C  1.91601459 -0.37647896 -1.62836830
  C  2.17531259  0.67463900 -0.58559599
  O  2.61613627 -0.49144517 -2.61319201
  H -0.98206368  3.28624735  0.15523545
  H -2.70912762  2.93214691  0.37696652
  H -1.70808110  3.36593742  1.79288719
  H -2.05761784 -0.46830926  2.03802894
  H -0.75847810 -1.63008863  2.29490321
  H -2.08040672 -2.02530946  1.19474540
  H -0.34379082 -2.42829834 -0.22901399
  H  3.21815752  0.97338159 -0.64655567
  H  1.93196443  0.32571639  0.41647561
  H  1.55249972  1.53839156 -0.81396604
