22
opt_min/./Reactant_2439_1_opt.xyz
  C  4.03101400 -0.09503500  0.48596300
  O  2.63218129  0.13690485  0.45580556
  C  1.87186418 -0.94513439  0.11953005
  O  2.37910928 -2.01711833 -0.13688351
  C  0.44295528 -0.74901193  0.10326957
  N -0.26067102  0.35197634  0.32091666
  C  0.42192171  1.60682566  0.58229642
  C -1.60045824  0.39339283  0.31494030
  C -2.48717520 -0.71325056  0.10432722
  C -3.96311769 -0.36569484  0.16422824
  O -2.13221215 -1.86643990 -0.10778268
  H  4.47626883  0.78778389  0.93870806
  H  4.41354445 -0.23855208 -0.52701736
  H  4.25551483 -0.98768266  1.07288657
  H -0.11930614 -1.64846419 -0.10581999
  H  1.13468025  1.81663026 -0.21296126
  H -0.29677679  2.42079851  0.64681979
  H  0.97485474  1.54049434  1.51856473
  H -2.04236262  1.35973883  0.49148095
  H -4.14056197  0.67726319  0.40476231
  H -4.41426365 -0.59794011 -0.79845852
  H -4.44263444 -0.99881217  0.90755658
