21
opt_min/./Reactant_750_1_opt.xyz
  C  3.02980500 -0.40816400  0.30400500
  O  1.93015512  0.06884095  1.05196733
  C  0.76617322  0.19211245  0.38176432
  C  0.38460421 -0.00036057 -0.88063549
  F  1.10299498 -0.45703066 -1.93645194
  C -1.10036790  0.24122779 -0.97936954
  C -1.77974188 -0.93052198 -0.23114595
  C -1.35497050 -0.69055012  1.23015230
  C -0.49033451  0.59000082  1.13496529
  C -1.24391966  1.36672426  0.05090970
  H  3.87512336 -0.43388692  0.98786068
  H  3.25538350  0.25685258 -0.53423293
  H  2.83534623 -1.41240409 -0.08325539
  H -1.46837821  0.41287092 -1.98735710
  H -1.44418522 -1.89294230 -0.61454910
  H -2.86172506 -0.87958951 -0.34651594
  H -2.21731953 -0.50684584  1.86984566
  H -0.78915118 -1.52128532  1.64732854
  H -0.30220480  1.07867211  2.08624773
  H -2.27719156  1.58455673  0.31576773
  H -0.74292120  2.28644261 -0.24591665
