19
opt_min/./Reactant_359_0_opt.xyz
  C -1.12971682 -0.87301188 -1.86913018
  N -1.29480022 -0.00834837 -0.91293600
  C -2.60916184  0.58947362 -0.73673136
  C -0.33979338  0.39716466 -0.02911952
  C -0.67509781  1.35073466  0.92474659
  N -0.91140557  2.16348370  1.71056254
  C  1.02250144 -0.15182200 -0.02634023
  O  1.42522015 -0.99503242 -0.81801105
  N  1.82326905  0.35714857  0.94664026
  C  3.20102936 -0.03542665  1.09028281
  H -1.96149901 -1.12907630 -2.49899206
  H -0.17163539 -1.33670814 -2.01308406
  H -3.10309385  0.14990591  0.13222342
  H -3.22052521  0.41267019 -1.61991108
  H -2.51532749  1.66260101 -0.56964101
  H  1.46343799  1.06518888  1.56778900
  H  3.41206217 -0.30083246  2.12705028
  H  3.87505388  0.76762886  0.77882637
  H  3.36447816 -0.90148812  0.44856983
