33
opt_min/./Reactant_2571_1_opt.xyz
  C  4.78139459 -0.36378102  0.30844175
  N  3.49288124 -1.00782401  0.24297607
  C  2.33982668 -0.36288354  0.54414184
  O  2.31006276  0.79539716  0.89796009
  C  1.09533000 -1.22788814  0.34941522
  C -0.03465053 -0.72054727  1.09474505
  C -1.08620134 -0.15793566  1.22708877
  C -2.36621762  0.43987073  0.89366144
  C -2.26436605  1.97154037  0.94491934
  C -3.48714262 -0.04284575  1.81902567
  C -2.58559846 -0.08341865 -0.54368241
  C -1.56444111  0.33860102 -1.62319760
  C -0.03506419  0.24636127 -1.43611561
  C  0.61765424 -1.11915038 -1.12803154
  H  5.46201166 -0.92660656  0.95028400
  H  4.62626458  0.63046020  0.72555558
  H  5.22107046 -0.26851012 -0.68815140
  H  3.46831577 -1.97100168 -0.05267075
  H  1.31921184 -2.26622941  0.61946001
  H -2.89636426  2.41989490  0.17934171
  H -1.23860348  2.29419934  0.77863902
  H -2.58499994  2.34163165  1.91606947
  H -3.69425790 -1.10014393  1.65722615
  H -4.40078127  0.52103046  1.63296423
  H -3.19801702  0.09489171  2.85923154
  H -2.63638455 -1.17402559 -0.50790280
  H -3.55906522  0.27583481 -0.89935159
  H -1.74982740  1.39279185 -1.85063350
  H -1.82702000 -0.23863992 -2.51609336
  H  0.29029289  0.96551592 -0.68604854
  H  0.37405724  0.59243910 -2.39128429
  H -0.07747275 -1.93129039 -1.34374281
  H  1.48291025 -1.24481963 -1.78349820
