22
opt_min/./Reactant_3115_0_opt.xyz
  C  3.40904808  0.03012636  0.82273523
  C  2.33364198 -0.49381177 -0.10372835
  O  2.57481612 -1.29934693 -0.97547043
  C  0.99163750  0.06445366  0.10255790
  N  0.85250172  1.04156918  0.92106699
  C  0.71267272  1.96222584  1.65229503
  C  0.54905008  2.98491718  2.48858349
  N  0.40648601  3.88014719  3.21234859
  C -0.19270183 -0.41579181 -0.62031682
  C -0.24328097 -1.71405685 -1.13203835
  C -1.36794461 -2.14675072 -1.80784348
  C -2.45830209 -1.30916634 -1.97718624
  C -2.41883895 -0.02386411 -1.46408185
  C -1.29747590  0.42086385 -0.79085460
  H  3.76761963  0.98639266  0.44143498
  H  4.24548331 -0.66407770  0.82303442
  H  3.04513621  0.17192663  1.83684504
  H  0.59789322 -2.37444588 -1.00408056
  H -1.39477713 -3.15194210 -2.20247291
  H -3.33221774 -1.65447041 -2.50652220
  H -3.26416320  0.63639198 -1.59006194
  H -1.27244009  1.43108340 -0.40594530
