17
opt_min/./Reactant_4103_0_opt.xyz
  C  0.34815494  0.24344703  2.40474401
  N  0.31244424  0.51676083  1.13432681
  C  0.80780311  1.80101173  0.69332000
  C -0.18477166 -0.35017184  0.19792515
  C -0.71562524 -1.55826288  0.66557158
  N -1.15748254 -2.54971895  1.04974776
  C -0.16660976 -0.10269216 -1.22472907
  C -0.76757352 -1.20134176 -2.07398282
  O  0.30720931  0.90034332 -1.74288104
  H  0.71613934  0.97132972  3.10225735
  H -0.00422778 -0.70542360  2.76524983
  H  0.03558572  2.32584299  0.13218533
  H  1.10999330  2.39509734  1.55382136
  H  1.65304036  1.66391530  0.01815220
  H  0.00277666 -1.94330572 -2.28282731
  H -1.09336960 -0.77752795 -3.02136518
  H -1.59782491 -1.69571710 -1.57797524
