17
opt_min/./Reactant_3835_1_opt.xyz
  O  4.71291700  0.72396900  0.05001100
  C  3.78924482  0.02636478 -0.00356279
  N  3.23665153 -1.07809065 -0.08904849
  O  1.86750855 -1.15236933 -0.09302316
  C  1.30506138  0.05924559  0.00268332
  C -0.15326663  0.06589941  0.00535229
  C -0.81161643  1.29423983  0.10269441
  C -2.19172172  1.33357927  0.10778978
  C -2.91948181  0.15643543  0.01649215
  C -2.26703727 -1.06414552 -0.08022639
  C -0.88698540 -1.11820160 -0.08647822
  O  2.04182549  1.03281288  0.07814203
  H -0.22500030  2.19673747  0.17264546
  H -2.70315247  2.28071625  0.18284711
  H -3.99840017  0.18995017  0.02069613
  H -2.83890779 -1.97676585 -0.15099833
  H -0.37119371 -2.06163029 -0.16125498
