23
opt_min/./Reactant_2463_0_opt.xyz
  C -4.03163309  2.11928496  2.07895583
  N -3.28561276  0.94757636  1.69403840
  C -1.99868467  1.02003128  1.27681090
  O -1.35082692  2.05619831  1.24705996
  C -1.38930578 -0.25382582  0.89071373
  N -0.13698896 -0.19386479  0.51424002
  C  0.73454207 -1.10906152  0.09445167
  C  0.41716474 -2.45666728 -0.03400152
  N  0.19713364 -3.58203486 -0.15326924
  C  2.07497281 -0.56209034 -0.20518667
  O  2.29080177  0.62914363 -0.04463817
  N  2.98855185 -1.45304356 -0.64559281
  C  4.35357435 -1.07991813 -0.91848066
  H -3.31560164  2.90864618  2.30515346
  H -4.67774532  2.46489800  1.26495657
  H -4.64223938  1.90263408  2.95381047
  H -3.77226132  0.06668662  1.65749857
  H -1.91174480 -1.19591034  0.90660914
  H  0.28559260  0.75994277  0.54998167
  H  2.73417687 -2.42736808 -0.71075441
  H  5.00522056 -1.30405424 -0.06846908
  H  4.38107536 -0.00689976 -1.10641476
  H  4.71683786 -1.61578980 -1.79501321
