23
opt_min/./Reactant_1732_0_opt.xyz
  C  4.79178603  1.56120409  1.35744779
  O  3.53672141  1.01778118  0.96797148
  C  3.58199957 -0.09703298  0.20434938
  O  4.58240043 -0.65735536 -0.18269419
  C  2.28409352 -0.54629887 -0.09411344
  N  1.21525541 -0.92627827 -0.41746171
  C  0.04990410 -1.34371313 -0.77201113
  C -0.00867932 -2.49551158 -1.57745627
  N -0.06905773 -3.43888751 -2.22930984
  C -1.16762598 -0.65849217 -0.35488938
  C -2.41183136 -1.16144531 -0.74032102
  C -3.56934410 -0.51697061 -0.35040480
  C -3.50500232  0.63051659  0.42428122
  C -2.27241102  1.13317816  0.80944531
  C -1.10828147  0.49764237  0.42535936
  H  5.59001593  1.13059123  0.74972597
  H  4.73909282  2.63915019  1.21187868
  H  4.96885560  1.33399702  2.41022014
  H -2.46215791 -2.05568117 -1.34383550
  H -4.52811300 -0.91123679 -0.65185409
  H -4.41262356  1.13077057  0.72616751
  H -2.21655069  2.02692586  1.41282692
  H -0.14954252  0.89467260  0.72858695
