10
opt_min/./Reactant_4290_1_opt.xyz
  C -1.62683699  0.61044100 -0.56313905
  C -0.76801769 -0.59610644 -0.36024664
  N  0.44933934 -0.50078119 -0.03412567
  C  1.59789434 -0.37720521  0.25347455
  C  2.87395205 -0.24797094  0.59455020
  N  3.99238152 -0.13717922  0.89142519
  H -2.54265232  0.32360160 -1.07215192
  H -1.11117469  1.36054442 -1.16188914
  H -1.89492588  1.06720177  0.39190778
  H -1.18167556 -1.58761654 -0.44810006
