19
opt_min/./Reactant_827_0_opt.xyz
  C  3.36623642  1.46322026 -0.12311997
  C  2.23129949  0.99588103  0.67081973
  N  1.44301080  0.09004704  0.58808153
  C  0.47691653 -0.71939135  0.80161832
  C  0.69352978 -1.94709376  1.63607166
  C -0.82750650 -0.53863098  0.16576631
  O -1.71466497 -1.37343409  0.25730257
  N -0.99832849  0.62991462 -0.51806016
  C -2.18939618  0.89190970 -1.28328280
  H  3.08196042  2.41376459 -0.57715074
  H  4.19738004  1.68217258  0.54820998
  H  3.68721841  0.76401898 -0.89645130
  H  1.68380693 -1.93119095  2.08589932
  H -0.05875808 -1.99505291  2.42148100
  H  0.59285869 -2.84365287  1.02502099
  H -0.22231161  1.26084769 -0.62033888
  H -2.49146086  1.93153665 -1.15866092
  H -2.03844851  0.68620230 -2.34805450
  H -2.97152283  0.23336029 -0.90854697
