25
opt_min/./Reactant_2246_1_opt.xyz
  C -2.10917292 -1.38347066 -2.35456991
  O -1.11113127 -0.78686581 -1.54342550
  C -1.55627722 -0.18570317 -0.41883705
  O -2.73230471 -0.15171157 -0.11943767
  C -0.49246291  0.31875204  0.42813187
  N -0.80326206  1.00570246  1.53822624
  C -1.91159488  1.61831112  1.94235038
  C -3.05973846  1.86928940  1.20305235
  N -4.01604208  2.25855280  0.68972306
  C  0.91610354 -0.04173544  0.24405531
  C  1.52152173  0.03550662 -1.01060471
  C  2.85778074 -0.28010750 -1.16655258
  C  3.61871050 -0.67445039 -0.07857451
  C  3.02997982 -0.75608133  1.17230713
  C  1.69438787 -0.44229544  1.33372387
  H -1.66971426 -1.50858511 -3.34117967
  H -2.99309211 -0.74339369 -2.39938943
  H -2.39625722 -2.35445205 -1.94378573
  H -0.01146333  1.11050140  2.17075602
  H -1.88106170  2.06793924  2.92498696
  H  0.94030272  0.35643809 -1.85881683
  H  3.31120169 -0.21086704 -2.14414964
  H  4.66237639 -0.91937552 -0.20367659
  H  3.61169131 -1.07268416  2.02560663
  H  1.24697415 -0.55047899  2.31420175
