27
opt_min/./Reactant_1930_1_opt.xyz
  C  4.06236600  0.25744600  0.10748800
  N  2.67618191  0.13990459 -0.28305436
  C  1.74937212 -0.36935124  0.55947713
  O  2.00786942 -0.74965224  1.68561738
  C  0.36697252 -0.44101494  0.01722244
  C -0.33034892  0.37761054 -0.77954075
  C  0.08608485  1.65503083 -1.41674418
  F  0.87457096  1.44849408 -2.50495847
  F -0.95125017  2.38485530 -1.84641878
  F  0.80468438  2.45310966 -0.60385954
  C -1.75952134 -0.11696565 -0.81718408
  C -2.32436195  0.22272528  0.58489153
  C -1.52559429 -0.70674465  1.51094939
  C -0.60699409 -1.47593728  0.52914135
  C -1.53119755 -1.62401150 -0.68060383
  H  4.51628434  1.10196113 -0.40628221
  H  4.10142714  0.41304384  1.18491501
  H  4.61692024 -0.65425726 -0.13369983
  H  2.44144048  0.37733559 -1.23218484
  H -2.36395270  0.24176642 -1.64350388
  H -2.19266079  1.27772424  0.82572828
  H -3.39212324  0.00455799  0.61520297
  H -2.17719640 -1.41261873  2.02388185
  H -0.93677841 -0.17420906  2.25485677
  H -0.14614986 -2.35918081  0.95628106
  H -1.03663397 -2.06162548 -1.54783874
  H -2.44359911 -2.17610698 -0.46627629
