17
opt_min/./Reactant_1271_1_opt.xyz
  C  2.80996600  0.41960700  0.06597400
  O  1.62272715  0.78354177 -0.61975650
  C  0.53669696  0.03759639 -0.41251691
  C  0.18238094 -1.02811689  0.31164557
 Br  1.10201090 -2.08635293  1.55985295
  C -1.31124632 -1.22754585  0.01896797
  C -2.01313895 -0.04523504  0.69509490
  C -1.66698469  1.00595963 -0.03143678
  C -0.76955534  0.43653891 -1.13506235
  O -1.36062664 -0.83316517 -1.34073609
  H  3.57536484  1.10819465 -0.28641607
  H  3.10195330 -0.60688107 -0.16480304
  H  2.69090392  0.52303275  1.14713536
  H -1.71104731 -2.22489402  0.17754920
  H -2.61700945 -0.09788525  1.57732661
  H -1.90303960  2.04297630  0.08794480
  H -0.65776371  1.00382719 -2.05238163
