11
opt_min/./Reactant_3385_1_opt.xyz
  C -2.24991900 -0.03163400 -0.97603899
  C -0.95230312  0.00893410 -0.38719094
  N  0.11215952  0.04973746  0.08737024
  C  1.30270040  0.08487149  0.63223756
  C  1.94899981 -1.10305316  0.98706153
  N  2.49762617 -2.06539616  1.29327769
  C  1.92788478  1.31359319  0.86615670
  N  2.44293710  2.32125667  1.06571014
  H -2.54934281 -1.07715889 -1.05957864
  H -2.23465213  0.41219874 -1.97405513
  H -2.97838025  0.49401789 -0.35576934
