23
opt_min/./Reactant_1452_0_opt.xyz
  C -3.00651391 -0.25399257  0.99895864
  N -1.60722226 -0.09678963  0.68279782
  C -1.20378514  0.47020378 -0.47720096
  O -1.97235826  1.02644802 -1.23895719
  C  0.27229258  0.54400104 -0.69937785
  C  0.70806836  1.77442349 -1.42276515
  N  1.14224860 -0.34424077 -0.25219742
  C  2.54358870  0.02625921 -0.13235775
  C  0.81952683 -1.62121109  0.11601724
  C -0.33050028 -2.25943777 -0.35684469
  N -1.22307751 -2.86803335 -0.75357113
  C  1.66120320 -2.38786789  0.91691036
  N  2.32272323 -3.02601585  1.61059488
  H -3.56633081  0.46362270  0.40242294
  H -3.34589850 -1.26272023  0.75099314
  H -3.16672914 -0.06822849  2.05970865
  H -0.94589217 -0.54410065  1.29805952
  H -0.17874258  2.20662583 -1.88318195
  H  1.43570751  1.55659300 -2.20383123
  H  1.13550356  2.51550387 -0.74406101
  H  2.71265282  0.53840922  0.81685284
  H  3.18486381 -0.85333442 -0.17632383
  H  2.83491352  0.69923221 -0.93653773
