33
opt_min/./Reactant_2074_0_opt.xyz
  C  5.79017552 -0.24123190 -0.35673814
  N  4.36226515 -0.44818731 -0.29628860
  C  3.53262217  0.57263725  0.06818923
  O  3.91787347  1.69778977  0.35879413
  C  2.16705218  0.25795888  0.11836105
  N  0.98447241  0.19358862  0.12485805
  C -0.29709579  0.09316717  0.16361312
  C -1.08496836  1.24009911  0.58166368
  C -2.44531471  1.32707257  0.27399073
  C -3.18267700  2.42587445  0.66741050
  C -2.58556039  3.46428867  1.36311523
  C -1.23116026  3.39913606  1.65421606
  C -0.48683652  2.30319389  1.26825929
  C -0.86640290 -1.20067260 -0.21699868
  C -1.96504618 -1.73325767  0.45976184
  C -2.48042573 -2.96289139  0.10085576
  C -1.90766389 -3.69100830 -0.92997802
  C -0.80583284 -3.18107704 -1.59754854
  C -0.28936643 -1.94998866 -1.24428908
  H  6.19162074 -0.04864250  0.64173907
  H  6.26721441 -1.12289867 -0.77350788
  H  6.01041181  0.62790469 -0.97880491
  H  3.98379941 -1.35332234 -0.51486922
  H -2.91797805  0.53971200 -0.29427274
  H -4.23404793  2.47682633  0.42270479
  H -3.16645422  4.32096127  1.66969817
  H -0.75280003  4.20772252  2.18600633
  H  0.56691987  2.26338170  1.50418647
  H -2.40064456 -1.18329285  1.28153780
  H -3.33087454 -3.36348494  0.63267913
  H -2.31325490 -4.65178807 -1.21028067
  H -0.35153916 -3.74363497 -2.39983638
  H  0.56303335 -1.54897481 -1.77631558
