28
opt_min/./Reactant_4123_0_opt.xyz
  C -1.26313200 -3.21734100 -1.70027200
  N -1.09191745 -1.99726599 -0.94995156
  C  0.01555680 -1.19777831 -1.12727494
  O  0.85782481 -1.46569394 -1.97676599
  C  0.04442306 -0.01410452 -0.28769039
  N  1.20065691  0.60182700  0.10636563
  C  2.44449449  0.24089047  0.21667770
  C  3.42593344  1.24283165  0.72885422
  C  2.91464676 -1.13260187 -0.08950088
  C -1.07954890  0.85914814  0.00126959
  O -0.88893105  1.90169317  0.64380090
  N -2.30594447  0.53857340 -0.48905591
  C -3.43879344  1.41388809 -0.32587315
  H -2.28443623 -3.29181346 -2.07940670
  H -0.56474936 -3.18202329 -2.53568030
  H -1.04344726 -4.10039671 -1.09348112
  H -1.61551729 -1.90552653 -0.09431923
  H  0.91276535  1.52273810  0.48900032
  H  4.28502446  1.30188439  0.06137909
  H  2.97676010  2.22974770  0.81307353
  H  3.79437659  0.94481950  1.71192392
  H  2.34491649 -1.85848855  0.49382297
  H  3.97191496 -1.23722022  0.13478043
  H  2.73277016 -1.37882725 -1.13976383
  H -2.37431313 -0.20027051 -1.17000415
  H -4.28267047  0.87319934  0.10952478
  H -3.74852120  1.84614299 -1.28093171
  H -3.13585610  2.21441460  0.34806849
