53
opt_min/./Reactant_2883_0_opt.xyz
  C  3.46370482  2.26029978  3.09285007
  N  2.97978225  1.49987496  1.96518527
  C  3.81574203  1.04223385  1.00864767
  O  5.00475462  1.25643853  1.02194938
  C  3.11628595  0.17313845 -0.05767463
  C  3.82938261  0.25227688 -1.40665421
  O  4.94019568  0.64603253 -1.61429847
  O  3.01393488 -0.20098461 -2.37450676
  C  3.52923897 -0.19553958 -3.69611092
  C  1.70382605  0.44362206 -0.20859657
  C  0.50925545  0.31794821 -0.17794011
  C -0.75631569 -0.28033733  0.22015171
  C -1.54804768  0.60876768  1.16527268
  C -1.03907843  1.79256083  1.67690653
  C -1.78137683  2.55385603  2.56228724
  C -3.04475026  2.14191192  2.94693755
  C -3.56802694  0.96947459  2.42780770
  C -2.82539803  0.20981451  1.54345653
  C -1.60234658 -0.51628601 -1.01849107
  C -1.82120311  0.56367710 -1.86785142
  C -2.60609948  0.42643167 -2.99586107
  C -3.18919461 -0.79483404 -3.29073020
  C -2.97926692 -1.87191572 -2.45038284
  C -2.19078344 -1.73563080 -1.31823571
  C -0.27841839 -1.57020818  0.94502251
  C  0.85731554 -1.32047873  1.96354368
  C  2.31430403 -1.73174502  1.64556917
  C  3.11872341 -1.31302165  0.39187215
  H  4.17545840  3.01194289  2.74713996
  H  3.97565209  1.60891083  3.80647147
  H  2.62636560  2.74537210  3.58874185
  H  1.99111775  1.32382764  1.88065505
  H  2.66962213 -0.18213015 -4.36305391
  H  4.15518653  0.68603051 -3.85197535
  H  4.12817779 -1.09350043 -3.86582261
  H -0.06602716  2.14060616  1.35648788
  H -1.37010390  3.47435129  2.95064376
  H -3.62267916  2.73422173  3.64040202
  H -4.55950086  0.64598765  2.71109752
  H -3.24243811 -0.69982374  1.13401268
  H -1.36394651  1.51571032 -1.63770328
  H -2.76414376  1.27498704 -3.64552797
  H -3.80563731 -0.90599642 -4.17093516
  H -3.43112235 -2.82813257 -2.67144107
  H -2.04779577 -2.58970026 -0.67548520
  H -1.12322501 -1.99623163  1.49003035
  H  0.04407875 -2.30866989  0.21000093
  H  0.80949037 -0.28375078  2.29646524
  H  0.61814653 -1.91386605  2.85316896
  H  2.33327268 -2.82564161  1.61341007
  H  2.89189929 -1.41418208  2.51954894
  H  2.76812964 -1.89445942 -0.46518486
  H  4.15497329 -1.60248112  0.59862570
