17
opt_min/./Reactant_1553_1_opt.xyz
  C  3.18519364  1.62703776 -1.71189043
  N  4.93966307 -16.08430021 -14.35261500
  C  8.61820121 -13.47977921 -3.90433405
  O -26.22140853  17.73025373 -0.67579652
  C  38.61808627 -48.00353120  23.63611552
  C  13.07603438 -24.99919823 -37.52598242
  C  12.61701911 -0.46222692 -29.99929299
  O -9.38542623 -11.35013306 -32.62740397
  O  13.43252981 -12.65581786 -40.00985087
  C -24.57272794  34.74058609 -10.09920935
  H -3.54807013 -43.75836403  24.18324118
  H  6.85930778 -0.02628692 -7.14902676
  H  16.04022678  3.00505037  3.77928077
  H  36.46707438  7.99762030 -31.42628782
  H -26.70843286 -10.43801444  44.90697894
  H -34.53888515 -17.36209848  36.03774587
  H  3.31996592 -26.31119792  22.27370980
