21
opt_min/./Reactant_2300_1_opt.xyz
  C  2.62135100 -0.47062200 -0.28335100
  O  1.63471227 -0.07589657  0.66669700
  C  0.36676140  0.00399484  0.20148031
  O  0.16062069  0.68790357 -0.96392091
  C  0.35336212  2.09541027 -0.84985457
  C -0.66961744 -0.54878982  0.84865191
  O -1.98693309 -0.33871736  0.50920140
  C -2.41289393 -0.89367951 -0.72817331
  C -0.55350517 -1.41694663  2.07652599
  F -1.19179403 -0.88526047  3.12542455
  F -1.12666661 -2.61891263  1.85601288
  F  0.69695584 -1.67529993  2.46973387
  H  3.57451986 -0.37556289  0.22981792
  H  2.46998889 -1.50982656 -0.58355205
  H  2.60888195  0.17123742 -1.16658779
  H  0.20397175  2.49076413 -1.85138242
  H -0.37850667  2.52789334 -0.16542409
  H  1.36013391  2.34097590 -0.50103104
  H -3.46604520 -0.63507766 -0.80605248
  H -2.30013336 -1.98128122 -0.73035022
  H -1.86385881 -0.46987942 -1.57123270
