27
opt_min/./Reactant_4246_1_opt.xyz
  C  4.36520997  1.24319213  0.33486188
  O  3.01545010  1.01236726  0.70147879
  C  2.40124975 -0.06150227  0.16032452
  O  2.96450873 -0.83199731 -0.59815639
  C  1.03294947 -0.14843623  0.63154934
  C  0.58593753  0.90640633  1.44004400
  N  0.27146692  1.74202797  2.16555139
  N  0.17403858 -1.16129662  0.31475378
  C  0.76664194 -2.43325325 -0.05630403
  C -1.13900479 -1.06668510  0.40899162
  C -2.03113004 -2.26179410  0.50018814
  C -1.85431598  0.23313527  0.47625077
  O -2.90638236  0.37360627  1.05081532
  O -1.29405452  1.16388740 -0.30869880
  C -1.90190473  2.45033916 -0.32016648
  H  4.79425134  0.34643645 -0.11614841
  H  4.40710235  2.06949800 -0.37790516
  H  4.90660781  1.51249133  1.24133965
  H  0.02288856 -3.10436562 -0.47102204
  H  1.23791342 -2.89143134  0.81524319
  H  1.55105275 -2.25321102 -0.79374590
  H -1.60591842 -3.05562981  1.10976153
  H -2.96516100 -1.93284711  0.95321293
  H -2.26366757 -2.66053353 -0.49041078
  H -2.96527121  2.36106603 -0.09143248
  H -1.75122301  2.86581818 -1.31348967
  H -1.41550012  3.07386366  0.43232148
