24
opt_min/./Reactant_2665_1_opt.xyz
  C  3.65402500 -0.06746500 -0.98604000
  C  2.63729051  0.25987077  0.09574029
  O  3.01065482  0.68971346  1.18098882
  C  1.28937145 -0.00081086 -0.32340825
  N  0.15206364  0.14665889  0.36679933
  C  0.24506140  0.50894697  1.76559118
  C -1.05624992 -0.04640270 -0.19269092
  C -1.12065825 -0.24791552 -1.67862552
  C -2.27123448 -0.09970041  0.59545129
  C -3.53428590 -0.52278123 -0.13298661
  O -2.33511014  0.14979251  1.79272703
  H  4.64178691  0.23580643 -0.64985563
  H  3.41370198  0.44394880 -1.91507984
  H  3.65772987 -1.14033897 -1.17298898
  H  1.20150939 -0.38130455 -1.32485273
  H -0.20240515 -0.26734204  2.38497994
  H -0.31570717  1.42671101  1.94518381
  H  1.28785051  0.65680767  2.03370236
  H -0.78023882 -1.24459624 -1.96772239
  H -0.49104918  0.48740247 -2.18107977
  H -2.13192584 -0.11802203 -2.04657333
  H -3.38307836 -1.43566410 -0.70266614
  H -4.30551805 -0.68832658  0.61594321
  H -3.87275691  0.26578264 -0.80274090
