15
opt_min/./Reactant_1583_0_opt.xyz
  C  3.21142800  0.23816600 -0.31951700
  O  1.87445685  0.21202437  0.17017297
  C  0.91179706 -0.03962889 -0.71437067
  O  1.06229220 -0.25717037 -1.88791994
  C -0.39781751 -0.03297998 -0.04215600
  O -1.51051632 -0.27087200 -0.74676357
  C -2.53278052 -0.21194662  0.05127851
  C -3.85971184 -0.41445954 -0.35927910
  N -4.94672871 -0.58043081 -0.68459369
  O -2.19007137  0.05817009  1.29273694
  C -0.75790247  0.19849380  1.33172560
  O -0.18050631  0.44499964  2.34125508
  H  3.49840081  1.26864814 -0.53498433
  H  3.84185861 -0.17289767  0.46581028
  H  3.28885842 -0.35650925 -1.23257421
