31
opt_min/./Reactant_5222_0_opt.xyz
  C  4.25530300  1.52012000  0.14136100
  N  3.05553290  0.73235209  0.30621505
  C  3.04602166 -0.60705596 -0.03655045
  O  4.04376365 -1.14649945 -0.49951100
  C  1.78823243 -1.30604040  0.16270568
  C  1.82157183 -2.79904589  0.06283270
  N  0.66833046 -0.56816023  0.23149856
  C -0.61477422 -0.81675592  0.51670958
  C -0.99783253 -2.11970769  1.14536920
  C -1.57541370  0.21970614  0.25126964
  C -2.84260050  0.24584554  0.85517871
  C -3.73838932  1.26551139  0.61677149
  C -3.41864585  2.30836190 -0.23900867
  C -2.18594267  2.29265788 -0.87302910
  C -1.28973017  1.27061773 -0.64534167
  H  4.65105260  1.84716044  1.10489169
  H  4.98996402  0.89114405 -0.35724918
  H  4.04941215  2.39638901 -0.47898691
  H  2.40207809  1.07768260  0.98896705
  H  1.80955175 -3.28430794  1.03989879
  H  0.99598163 -3.17768250 -0.53459792
  H  2.76030162 -3.06107887 -0.41993302
  H  0.82676696  0.40403499 -0.03207908
  H -1.82096607 -1.98427200  1.84282879
  H -1.32500351 -2.84873991  0.40337488
  H -0.16205656 -2.52662094  1.70160444
  H -3.13443862 -0.53720212  1.53849484
  H -4.70151097  1.24845924  1.10661853
  H -4.11939209  3.10818491 -0.42042076
  H -1.92601073  3.07991261 -1.56662191
  H -0.37018532  1.27536806 -1.21644493
