24
opt_min/./Reactant_1362_0_opt.xyz
  C -4.29502918  1.27109391  0.54202216
  N -3.25942696  0.39637849  0.05763369
  C -1.96302287  0.61066942  0.31663995
  O -1.51917456  1.52326316  0.98643818
  C -1.03902934 -0.41635839 -0.29884900
  N  0.21124492 -0.22801624 -0.05956239
  C  1.31649060  0.05441283  0.22039544
  C  2.70336770  0.17333399  0.45688531
  O  3.50110436 -0.62664862  0.01932434
  O  3.00757200  1.24983891  1.19269757
  C  4.39001212  1.43825806  1.45408330
  C -1.45714952 -1.54894421 -1.10918716
  C -0.35585103 -2.43776480 -1.62850980
  O -2.62798641 -1.76915946 -1.38238181
  H -4.73990455  1.83564427 -0.28083470
  H -3.84944444  1.96794969  1.25081703
  H -5.07318599  0.69184092  1.04005763
  H -3.49784775 -0.40325498 -0.52322773
  H  4.83704968  0.51793337  1.83570996
  H  4.44952358  2.23058247  2.19563690
  H  4.91247680  1.73282297  0.54116635
  H  0.46663453 -2.53154893 -0.92509694
  H -0.76465228 -3.41801349 -1.85918342
  H  0.03018339 -2.00900079 -2.55338506
