16
opt_min/./Reactant_186_0_opt.xyz
  C -2.59503200  0.38480200 -0.43455100
  C -1.47046642 -0.55648423 -0.66958347
  N -0.24105071 -0.25727638 -0.33504294
  C  0.88914352 -0.96007817 -0.48559161
  C  2.15709690 -0.49309228 -0.04816750
  C  2.20219796  0.87775172  0.62747627
  O  3.18309516 -1.14679722 -0.19842954
  H -2.26737776  1.24379521  0.14760359
  H -3.00661074  0.74566679 -1.37867767
  H -3.40570755 -0.10896917  0.10113934
  H -1.65554426 -1.50015198 -1.15409269
  H -0.11070118  0.64290309  0.12456611
  H  0.82645577 -1.92181165 -0.96712946
  H  3.23205170  1.08834076  0.89962330
  H  1.59914059  0.88322778  1.53481473
  H  1.85756911  1.66197475 -0.04506656
