14
opt_min/./Reactant_2840_1_opt.xyz
  C  2.83896100 -0.20814700 -0.24897900
  O  1.44449938 -0.37432219  0.00525841
  C  0.67578834  0.72814265 -0.03786940
  O  1.05751114  1.83827406 -0.27309142
  C -0.71836365  0.33937334  0.24177272
  N -1.13801129 -0.89378863  0.49778364
  N -2.43745370 -0.94721019  0.71066392
  C -2.90509701  0.30898191  0.59125682
  O -3.99211818  0.77027042  0.69112153
  O -1.74604187  1.15191217  0.27850187
  H  3.09745436 -0.81377316 -1.11686729
  H  3.38644415 -0.55976720  0.62550995
  H  3.05997988  0.84335174 -0.43527960
  H -0.57087164 -1.73120295  0.53741866
