27
opt_min/./Reactant_3963_1_opt.xyz
  C  0.64968600  3.85537200  0.68283800
  N -0.03282259  2.62635842  0.43926654
  N  0.70304165  1.59016646  0.41348559
  C  0.38084428  0.31633535  0.22834645
  C  1.57695176 -0.53521440  0.22555335
  O  2.66850573 -0.06700822  0.54997562
  N  1.43178581 -1.80910643 -0.20321871
  C  2.53069487 -2.73963196 -0.23457933
  C -0.99330558 -0.12725694  0.03010723
  C -1.88061320  0.64428575 -0.72182426
  C -3.18263335  0.22485660 -0.91477274
  C -3.62777582 -0.96130469 -0.35543745
  C -2.76523953 -1.72098458  0.41631938
  C -1.46013627 -1.30985252  0.61259289
  H  0.36962672  4.57303251 -0.09085936
  H  0.32732289  4.26013416  1.64691341
  H  1.74494784  3.73928907  0.69607510
  H  1.73783011  1.66982567  0.57387692
  H  0.52585710 -2.11879226 -0.51799315
  H  2.51100330 -3.31286576 -1.16111678
  H  2.49286513 -3.42556601  0.61714556
  H  3.45673447 -2.16696559 -0.17713482
  H -1.54062947  1.57261660 -1.15228486
  H -3.85800227  0.82695048 -1.50492813
  H -4.64610092 -1.28778419 -0.50749436
  H -3.11298871 -2.63449323  0.87689938
  H -0.80973046 -1.88352254  1.25795679
