32
opt_min/./Reactant_5906_1_opt.xyz
  C -2.43204100 -2.42460500  1.56453000
  N -1.59571796 -1.27291427  1.78398087
  C -0.55829638 -0.99030075  0.96764351
  O -0.17359053 -1.75144672  0.07820133
  C  0.05852129  0.32765264  1.16906587
  O  1.23162806  0.65130903  0.57511819
  C  2.27208755 -0.09523599  0.38716873
  C  2.39127203 -1.45912695  0.94051806
  C  3.32077166  0.54176056 -0.39293055
  C  4.65513724  0.11831524 -0.36206584
  C  5.61154515  0.76106480 -1.12143496
  C  5.26694705  1.83572239 -1.92643480
  C  3.95169213  2.27068269 -1.96395042
  C  2.98864722  1.63283792 -1.21027804
  C -0.62712715  1.44155307  1.75937910
  C  0.06088297  2.78551829  1.63851874
  O -1.69038561  1.33157786  2.36923599
  H -3.40057598 -2.13812966  1.14560977
  H -1.92102759 -3.08021737  0.86077144
  H -2.59587187 -2.95202024  2.50527384
  H -1.95165638 -0.50317506  2.34431505
  H  2.00352010 -1.47183596  1.96184036
  H  3.41105005 -1.82210191  0.91313204
  H  1.74857509 -2.14111622  0.36934235
  H  4.95448660 -0.69779304  0.27586131
  H  6.63697393  0.42474837 -1.08426184
  H  6.01908273  2.33079092 -2.52186913
  H  3.67741958  3.10586094 -2.59094958
  H  1.96135697  1.95859473 -1.25548352
  H  0.19042878  3.04571697  0.59024321
  H  1.04371214  2.75551314  2.10496928
  H -0.55041481  3.53859015  2.12731840
