28
opt_min/./Reactant_5441_0_opt.xyz
  C  1.44283600 -2.78955900  0.57856000
  O  1.03847722 -1.42615851  0.62096641
  C  1.24236506 -0.70288630 -0.48977867
  O  1.73958875 -1.12065905 -1.49896437
  C  0.77411106  0.69809586 -0.25945174
  O -0.34536994  0.99110653  0.34569736
  C -1.33969657  0.22436827  0.68102561
  C -1.55319217 -1.19030142  0.20249562
  C -1.63927593 -1.28988263 -1.30692777
  O -1.74238784 -2.11187135  0.94615579
  C -2.41816232  0.84512516  1.47849753
  C -2.09922574  2.21486947  2.02341618
  O -3.46940474  0.27900286  1.67084636
  C  1.66802326  1.81777885 -0.59432582
  C  1.07632166  3.19196740 -0.38751965
  O  2.79787849  1.63507678 -0.98624923
  H  1.10877857 -3.22733809  1.51437013
  H  2.52712854 -2.85298420  0.48027395
  H  0.97691738 -3.29881979 -0.26647511
  H -0.75049246 -1.77255078 -1.71038259
  H -1.75164022 -0.31607630 -1.77726600
  H -2.49031136 -1.91910519 -1.55573874
  H -1.18780440  2.18263969  2.61512113
  H -2.92532790  2.55418476  2.63998754
  H -1.95105267  2.91277023  1.20251863
  H  0.99560788  3.38748134  0.68028334
  H  0.08848245  3.26883835 -0.83154105
  H  1.73969162  3.93050267 -0.82740880
