29
opt_min/./Reactant_4994_0_opt.xyz
  C  1.70234600 -2.34166600 -1.18348200
  C  0.79826303 -1.31115348 -0.60820486
  N  1.12129008 -0.07363910 -0.31772843
  C  2.44463502  0.40898667 -0.65041368
  C  0.25780445  0.79734058  0.28725929
  C  0.56037405  2.15780162  0.56186729
  C -0.53084565  2.93511406  1.28542999
  O  1.62230909  2.72943429  0.29399509
  C -1.06246114  0.25254889  0.69977154
  C -1.20743410 -0.37119673  1.93495960
  C -2.43621356 -0.86600454  2.33307391
  C -3.53628726 -0.74655260  1.50039725
  C -3.40202404 -0.13165160  0.26687869
  C -2.17348666  0.36279945 -0.13188755
  H  1.81270882 -2.22117548 -2.26524570
  H  1.26823657 -3.32374405 -1.00844063
  H  2.69657216 -2.32964337 -0.73683881
  H -0.21898551 -1.60877734 -0.41034290
  H  2.36041954  1.32879866 -1.22885233
  H  2.98556883  0.66152191  0.26163455
  H  2.99502306 -0.33281442 -1.22167916
  H -0.28537890  3.99342370  1.24327903
  H -1.51332980  2.76586395  0.85606530
  H -0.55444170  2.62686579  2.33043738
  H -0.34834126 -0.46207614  2.58535099
  H -2.53682880 -1.34424460  3.29648109
  H -4.49632265 -1.13124042  1.81169652
  H -4.25756190 -0.03708072 -0.38642334
  H -2.06761843  0.84220231 -1.09553816
