17
opt_min/./Reactant_846_0_opt.xyz
  C  2.63224400 -0.94985500 -0.22934100
  O  1.26173031 -0.59794558 -0.06827119
  C  0.90599993  0.64954092 -0.46218033
  O  1.66858665  1.44717016 -0.93657876
  C -0.51277922  0.89720209 -0.24033099
  C -1.20629648  2.15600454 -0.47813518
  O -0.89029617  3.22805220 -0.88803988
  O -2.52503502  1.86825218 -0.07844764
  N -2.61682602  0.60551732  0.33786334
  N -1.45389202  0.06763444  0.23953414
  C -1.33107803 -1.30497311  0.64654111
  H  3.11384361 -0.25921424 -0.92397624
  H  3.13235439 -0.90487956  0.73880997
  H  2.65988140 -1.96721186 -0.61863124
  H -0.72313870 -1.85306974 -0.07019778
  H -2.33305392 -1.72423792  0.71349127
  H -0.85008947 -1.35674659  1.62490176
