15
opt_min/./Reactant_603_1_opt.xyz
  O  2.79727100 -0.16295200 -1.25810700
  N  2.68654701  0.71353345 -0.39542333
  N  1.69452745  1.15317704  0.22134806
  C  0.40106930  0.68945779  0.04274137
  C  0.04627716 -0.48140573 -0.63319211
  C -1.28568389 -0.84134356 -0.71703698
  C -2.26869966 -0.04913796 -0.14572728
  C -1.91923604  1.11072286  0.52915958
  C -0.59343985  1.47765449  0.62787890
  H  3.56053140  1.19118791 -0.09097631
  H  0.79958654 -1.10692101 -1.08460788
  H -1.56020409 -1.74863899 -1.23760958
  H -3.30697089 -0.33535418 -0.22658711
  H -2.68307811  1.72856083  0.98032439
  H -0.29703917  2.37142888  1.15263885
