21
opt_min/./Reactant_3946_0_opt.xyz
  C  3.12470300  0.25369200 -0.86397400
  C  2.44436676  0.42841328  0.47636947
  O  3.12095979  0.68871118  1.46342280
  C  1.01601032  0.34741776  0.65324452
  N  0.01105307  0.00350233 -0.14305302
  C  0.26018211 -0.49081812 -1.48305831
  C -1.25457437  0.09425637  0.27811001
  C -2.45557884 -0.28440393 -0.40704481
  C -3.70254927 -0.04874258  0.42105100
  O -2.53209432 -0.74476342 -1.54195819
  H  4.15364008  0.58680260 -0.75320190
  H  3.14215466 -0.79363922 -1.15776379
  H  2.64321648  0.83925924 -1.64167559
  H  0.72460864  0.64261204  1.65475180
  H  1.04343149 -1.24253453 -1.46762679
  H  0.55568394  0.33162686 -2.13413106
  H -0.65879062 -0.92041497 -1.88309590
  H -1.38110952  0.47447275  1.28103591
  H -3.65430484 -0.62540506  1.34176014
  H -4.57590757 -0.35203966 -0.14948750
  H -3.78857500  1.00471103  0.67795401
