37
opt_min/./Reactant_2116_0_opt.xyz
  C  0.93827469 -3.02060273  0.24131599
  C -0.09693470 -1.97158709 -0.10394793
  O -1.24857361 -2.28842519 -0.38541786
  C  0.34124694 -0.60261631 -0.02227869
  C  1.69783432 -0.29567651  0.48549396
  C  1.96681692 -0.23765670  1.85039419
  C  3.24608073  0.03199894  2.30049587
  C  4.27000290  0.24901839  1.39332457
  C  4.01200113  0.19051529  0.03487654
  C  2.73379049 -0.08199774 -0.41774849
  N -0.53612805  0.41049407 -0.20027745
  C -0.23133678  1.68955230  0.41789269
  C -1.61457403  0.31477682 -0.99874759
  C -1.57075013 -0.55814896 -2.09833321
  N -1.50814155 -1.12715551 -3.09642597
  C -2.82110077  1.10263225 -0.83512053
  C -3.58233273  1.44712806 -1.95821021
  C -4.75110530  2.16802064 -1.82198989
  C -5.19242575  2.55640736 -0.56711137
  C -4.45992121  2.20273422  0.55367025
  C -3.28827859  1.48304749  0.42687201
  H  1.40458539 -2.81992473  1.20333831
  H  0.45482447 -3.99409689  0.26035998
  H  1.71363306 -3.02263182 -0.52255790
  H  1.17070401 -0.41799631  2.56054154
  H  3.44475775  0.07316442  3.36188059
  H  5.26843925  0.46074742  1.74625847
  H  4.80999827  0.35356352 -0.67583837
  H  2.52823122 -0.13006730 -1.47844120
  H -0.92030611  2.45126704  0.05964585
  H  0.78905132  1.97565419  0.15194233
  H -0.29239752  1.62475253  1.50459669
  H -3.24035725  1.14376129 -2.93642192
  H -5.32398086  2.42700854 -2.70032144
  H -6.10658102  3.12146304 -0.46298671
  H -4.81109901  2.47955539  1.53756453
  H -2.75734572  1.17373659  1.31537672
