44
opt_min/./Reactant_2423_0_opt.xyz
  C -4.61439800 -2.14259048  0.72372268
  N -3.54196743 -1.33953574  0.18952648
  C -2.39356358 -1.11734947  0.86571074
  O -2.17420813 -1.54296548  1.97658120
  C -1.40706175 -0.26023424  0.06048634
  C -2.11042225  1.02164253 -0.42304907
  O -2.13349742  1.38099411 -1.58006329
  N -2.69113058  1.69182070  0.59040475
  C -3.36308802  2.95507261  0.40666426
  C -0.24319826  0.09837631  0.81934595
  C  0.86835457  0.28083503  1.22931922
  C  2.20077226 -0.21810055  1.49108167
  F  2.57810108 -0.00384524  2.81355691
  C  3.25652857  0.34788609  0.57172603
  C  2.91999742  0.78450049 -0.70319447
  C  3.90338430  1.24740407 -1.55896725
  C  5.22558061  1.28135936 -1.14905413
  C  5.56213562  0.85130298  0.12276433
  C  4.58280717  0.38138822  0.97993354
  C  2.02859367 -1.73781588  1.30405535
  C  1.62118432 -2.27394420 -0.08212232
  C  0.31569506 -2.11369312 -0.96004398
  C -0.80370810 -1.03854024 -1.13112052
  H -5.52763266 -1.55273358  0.81887653
  H -4.81057783 -3.00383396  0.08240776
  H -4.30262347 -2.48878935  1.70753049
  H -3.66509883 -0.94263448 -0.72910585
  H -2.57761841  1.35223876  1.53358821
  H -2.84892284  3.75036644  0.94845033
  H -4.39475694  2.89263118  0.75630069
  H -3.35252045  3.18044703 -0.65819890
  H  1.88723513  0.76598370 -1.01707608
  H  3.63494198  1.58576587 -2.54895457
  H  5.99108080  1.64439241 -1.81895553
  H  6.59074891  0.87968876  0.44996593
  H  4.84401631  0.04865371  1.97327432
  H  1.32492349 -2.07818693  2.06798575
  H  3.00144035 -2.19779316  1.50816632
  H  2.45848571 -2.04966449 -0.74738665
  H  1.64886606 -3.35386010  0.08532445
  H  0.74299023 -2.11777706 -1.96927353
  H -0.20715777 -3.06850149 -0.86431988
  H -1.61414947 -1.58958334 -1.61595615
  H -0.46820821 -0.27439892 -1.83695777
