18
opt_min/./Reactant_1282_0_opt.xyz
  C  0.66926612 -2.44928698  0.27490379
  C  0.73304650 -1.18078044 -0.54723847
  O  1.41638600 -1.10198066 -1.54588014
  C -0.02501697 -0.04706142 -0.00641689
  O -0.80662277 -0.33915099  1.02925050
  C -1.36926480  0.45110658  1.87583230
  C -1.19390626  1.82110137  2.09073405
  N -1.02079433  2.90870079  2.42705998
  C -0.17723573  1.26008766 -0.65138754
  C  0.65709947  1.54872720 -1.85876227
  O -1.03986813  2.01996372 -0.24053089
  H -0.30583642 -2.59366632  0.72841669
  H  0.91693628 -3.29270250 -0.36407865
  H  1.42016660 -2.38629315  1.06177618
  H -2.02128178 -0.07149145  2.57136841
  H  1.71031267  1.53329576 -1.58976891
  H  0.50910208  0.77740693 -2.61082947
  H  0.37955430  2.52301714 -2.25342297
