31
opt_min/./Reactant_2203_1_opt.xyz
  C -0.96882336  2.56024156  1.42514291
  O -0.79679271  1.17453105  1.65048131
  C -1.11946081  0.35345536  0.56289495
  O -2.46840452  0.59717381  0.23721076
  C -2.94422794 -0.01909615 -0.93330296
  C -0.16210797  0.54182628 -0.53128219
  C  0.84524610  0.27000076 -1.13272001
  C  2.08555652 -0.38967500 -1.43696389
  C  3.28586445  0.55209476 -1.52410227
 Br  1.89805470 -1.39617880 -3.16149043
  C  2.21021805 -1.39635030 -0.27501343
  C  1.11318416 -2.46718417 -0.15741529
  C -0.38655549 -2.12545555 -0.00958402
  C -0.84782686 -1.10844448  1.04934991
  H -2.01134807  2.79610610  1.20197055
  H -0.66701565  3.04920352  2.34835921
  H -0.33250284  2.89958524  0.59938220
  H -3.05271113 -1.10114016 -0.80774311
  H -3.92241283  0.41958187 -1.12322551
  H -2.28320943  0.18031907 -1.78470349
  H  3.60937982  0.69954997 -2.55133672
  H  3.02388940  1.52393912 -1.10870141
  H  4.12330506  0.15138120 -0.95652011
  H  2.24754537 -0.80499972  0.64335206
  H  3.15644146 -1.93554692 -0.37553762
  H  1.17466783 -3.09893503 -1.04846232
  H  1.39741033 -3.09588201  0.69073454
  H -0.85129937 -3.08223239  0.24806377
  H -0.78201158 -1.83941355 -0.98434222
  H -1.79217774 -1.44819502  1.48284212
  H -0.12219457 -1.03344542  1.85886479
