25
opt_min/./Reactant_4040_1_opt.xyz
  C  4.21842200 -0.74912500  1.89919300
  N  2.79123438 -0.57936667  1.80137926
  C  2.14299722 -0.56345289  0.60833101
  O  2.71635568 -0.73509087 -0.47021795
  C  0.71249578 -0.33923556  0.65720319
  N  0.13639435 -0.33367443 -0.53046593
  C -1.10920582 -0.15969734 -0.94486830
  C -1.34932847 -0.20961338 -2.42302043
  C -2.17296588  0.07717957  0.01803016
  O -2.00261566  0.07095285  1.23418995
  N -3.40799155  0.31536464 -0.51896634
  C -4.56183793  0.55965798  0.30666893
  H  4.72490976  0.21034597  2.05456327
  H  4.56737935 -1.17483443  0.95780100
  H  4.46306459 -1.42205431  2.72188621
  H  2.26360635 -0.42025395  2.64491648
  H  0.13575720 -0.20512586  1.55164961
  H  0.85300792 -0.49210415 -1.25973121
  H -2.08222420 -0.97608865 -2.68565272
  H -1.70523913  0.75175020 -2.80287677
  H -0.42052428 -0.44836089 -2.94190093
  H -3.53764771  0.32163036 -1.51614215
  H -4.21995600  0.57398571  1.34181449
  H -5.01926005  1.52233119  0.06143836
  H -5.30631612 -0.23347509  0.18544798
