22
opt_min/./Reactant_2312_1_opt.xyz
  N  2.98278659  0.90442162  0.22204142
  C  2.11110986  0.51491293 -0.40026886
  C  0.98856668 -0.00432296 -1.16941642
  C  1.38282785 -0.09679608 -2.56624225
  N  1.68965235 -0.18214933 -3.66144203
  C -0.16890917  0.83820024 -0.95374167
  C -1.23037748  1.16615932 -0.50098081
  C -2.32582878  1.17311125  0.42061456
  F -3.46873992  0.68199761 -0.12883181
 Br -2.76658187  3.01171772  1.06893333
  C -1.87891632  0.29953819  1.59906608
  C -1.39732273 -1.12625982  1.25428443
  C  0.05885190 -1.45344728  0.83725619
  C  0.55581041 -1.39642608 -0.62159425
  H -1.10843765  0.82865370  2.16249177
  H -2.75555280  0.19199426  2.24471135
  H -1.50162783 -1.65196779  2.20809223
  H -2.09514794 -1.59444847  0.55733279
  H  0.75759346 -0.92956834  1.49317328
  H  0.14367074 -2.51905480  1.07312217
  H  1.43757435 -2.04192032 -0.68272242
  H -0.20808397 -1.80910553 -1.28488294
