45
opt_min/./Reactant_3075_0_opt.xyz
  C -4.91454572  0.48228922 -2.15581017
  O -3.90977618  0.20861614 -1.18895890
  C -3.10367211 -0.81713676 -1.42867789
  O -3.13345886 -1.49458437 -2.41900861
  C -2.09701823 -0.97661097 -0.28345806
  C -2.84040513 -1.00851465  1.05354916
  O -4.00978251 -1.24554934  1.18291559
  O -2.00024578 -0.77368226  2.05936291
  C -2.52860316 -0.78967127  3.37980451
  C -1.11903235  0.08518225 -0.34083359
  C -0.08073881  0.67559939 -0.45741759
  C  1.32613789  0.78277772 -0.80390679
  C  2.16143878  1.11931973  0.42213462
  C  1.60365849  1.88080459  1.44081146
  C  2.35950937  2.22701895  2.54586088
  C  3.67904344  1.81947903  2.64120334
  C  4.24071043  1.06971603  1.62378367
  C  3.48810110  0.72210534  0.51457643
  C  1.52157455  1.92879240 -1.80871850
  F  1.02201890  3.08877927 -1.35852924
  F  2.82128676  2.15148292 -2.07955668
  F  0.93587004  1.70038139 -2.99592571
  C  1.66073070 -0.59104897 -1.45168351
  C  0.51906584 -1.23759519 -2.27193314
  C -0.34168640 -2.37205564 -1.67842987
  C -1.20007074 -2.23340202 -0.39980687
  H -5.19682919  1.52452950 -2.02166100
  H -5.77443699 -0.16764301 -1.98194067
  H -4.52578770  0.30943868 -3.16154745
  H -2.07336377  0.03997485  3.91746991
  H -3.61471367 -0.68386550  3.34852106
  H -2.26526906 -1.73521607  3.85851420
  H  0.57346558  2.19833920  1.36683374
  H  1.91730352  2.81999143  3.33290330
  H  4.27041110  2.08961686  3.50426096
  H  5.27212584  0.75519056  1.68725983
  H  3.94341149  0.15288952 -0.28013349
  H  2.51215855 -0.45771714 -2.12164781
  H  1.97331852 -1.27690595 -0.66284452
  H -0.13317359 -0.46730619 -2.67890396
  H  0.99777739 -1.70362827 -3.13927492
  H  0.30680034 -3.23253374 -1.48842283
  H -1.03013064 -2.63426397 -2.48397202
  H -1.83775057 -3.12326522 -0.38046399
  H -0.55913857 -2.24567890  0.48456817
