23
opt_min/./Reactant_2789_1_opt.xyz
 Cl  0.77718600  2.47350500 -1.43210000
  C  1.17392054  0.89887375 -0.96307769
  C  0.42896646 -0.08055385 -0.43204269
  C -0.97072164 -0.14507921 -0.06134027
  C -1.67408239 -1.34735873 -0.16754320
  C -3.01257904 -1.40089880  0.17179404
  C -3.66588949 -0.26761303  0.62857488
  C -2.97178954  0.92475144  0.74380426
  C -1.63426347  0.99102224  0.40091279
  C  1.45212200 -1.22519328 -0.25615247
  C  2.35359971 -0.76026216  0.89237583
  C  3.07730860  0.22053317  0.37747708
  C  2.59851021  0.33033537 -1.07506256
  O  2.30478047 -1.02261467 -1.37038155
  H -1.17381375 -2.22855694 -0.53903576
  H -3.54852598 -2.33342998  0.07736765
  H -4.71236228 -0.31289826  0.89310524
  H -3.47823817  1.80836026  1.10460201
  H -1.09405511  1.91933703  0.50558617
  H  1.07102312 -2.24054435 -0.21289627
  H  2.33574538 -1.16186568  1.88383783
  H  3.81628916  0.84962488  0.82783629
  H  3.25768185  0.78441767 -1.80860674
