30
opt_min/./Reactant_2692_1_opt.xyz
  C  2.55433600 -2.70929800  0.83689200
  N  1.77339211 -1.50533824  0.71855523
  C  2.24738397 -0.39263258  0.10558168
  O  3.34668346 -0.33944677 -0.41346484
  C  1.32484193  0.75166714  0.10232740
  C -0.00408116  0.89383939  0.20494758
  C -1.09964421 -0.05697740  0.27239587
  C -1.09638787 -1.19439132 -0.53792367
  C -2.14850324 -2.08865363 -0.49042892
  C -3.21396285 -1.86762400  0.36799219
  C -3.22630289 -0.74183535  1.17450475
  C -2.18207036  0.16263647  1.12426313
  C -0.22153002  2.42126090  0.11109328
  C  0.08122161  2.75606683 -1.35000807
  C  1.39126932  2.61038190 -1.46248327
  C  1.85474934  2.18778197 -0.06862143
  O  0.94487098  2.90148027  0.75497079
  H  1.99371285 -3.56482426  0.45645477
  H  3.45851853 -2.57125133  0.24631881
  H  2.83174880 -2.89893948  1.87680326
  H  0.87174796 -1.47746311  1.16600147
  H -0.27128314 -1.35475772 -1.21625610
  H -2.14034229 -2.96103953 -1.12713350
  H -4.03454622 -2.56862398  0.40570996
  H -4.05477093 -0.56568427  1.84509278
  H -2.18756816  1.03373880  1.76236889
  H -1.13075403  2.82528823  0.54038868
  H -0.66533207  3.01162830 -2.07405197
  H  2.04472764  2.71610496 -2.30300987
  H  2.89180902  2.35163019  0.19529938
