25
opt_min/./Reactant_1193_0_opt.xyz
  C  3.81350091  2.21530913 -0.28068232
  N  3.07628290  1.01651277 -0.59510410
  C  1.76681967  0.88402059 -0.26886022
  O  1.16505317  1.74500982  0.35161519
  C  1.16256461 -0.38570304 -0.74194358
  C  1.98631837 -1.24484771 -1.46862734
  N  2.72220714 -1.94689614 -2.01427594
  N -0.12516039 -0.73150509 -0.51676571
  C -0.62918047 -1.91117666 -1.19881424
  C -0.94050604 -0.06684454  0.27924990
  C -2.34988922 -0.36206272  0.45127289
  O -3.00543252 -1.22875293 -0.09047245
  O -2.87761986  0.50743087  1.33805416
  C -4.26194351  0.36055705  1.60367083
  H  3.34000537  2.68771203  0.57996948
  H  4.84560663  1.96297647 -0.04523461
  H  3.79679022  2.92062174 -1.11717453
  H  3.53767769  0.29504190 -1.12648652
  H -1.45417672 -1.62921759 -1.85390625
  H  0.16119473 -2.37915123 -1.78103334
  H -1.02535444 -2.62087691 -0.47361426
  H -0.56261075  0.79668048  0.80191929
  H -4.47433734  0.99060264  2.46353248
  H -4.85026119  0.68237392  0.74113003
  H -4.50006575 -0.68390578  1.82011706
