44
opt_min/./Reactant_2814_0_opt.xyz
  C  3.06820711  3.22537670 -0.70620105
  O  2.50408701  1.92491487 -0.78152937
  C  1.38236934  1.73028587 -0.07983755
  O  0.85040666  2.58291687  0.57729203
  C  0.90262785  0.28572969 -0.23437481
  C  2.01232155 -0.59458093  0.30094234
  C  2.82131838 -1.38579110 -0.49988743
  C  3.83396438 -2.14460781  0.06396984
  C  4.05210624 -2.11903664  1.42967846
  C  3.24776480 -1.33059336  2.23559541
  C  2.23621984 -0.57452870  1.67482869
  C -0.34781924  0.09662769  0.47362984
  C -1.51592134 -0.08458951  0.68600872
  C -2.94430501 -0.08875045  0.38551149
  O -3.30391196 -1.44562348  0.16666477
  C -4.68814885 -1.70518192  0.09812913
  O -3.77095920  0.52969265  1.33557150
  C -3.37404281  0.36290351  2.67923416
  C -3.01088659  0.75794971 -0.91450598
  C -2.11190002  0.22891870 -2.04586399
  C -0.70124809  0.85603843 -2.20209468
  C  0.50051925  0.02476805 -1.70734755
  H  3.91047474  3.23184158 -1.39315981
  H  2.33022420  3.97724266 -0.99346335
  H  3.40393611  3.43351579  0.31169710
  H  2.67341800 -1.42273595 -1.56754227
  H  4.45568617 -2.75820283 -0.57143922
  H  4.84435294 -2.71025394  1.86447177
  H  3.40871624 -1.30504454  3.30337236
  H  1.60423717  0.03886934  2.30194974
  H -5.18345350 -1.07313454 -0.64418501
  H -5.17478151 -1.55712707  1.06647652
  H -4.77228503 -2.74944045 -0.19785956
  H -3.28875471 -0.69657373  2.94508877
  H -2.41321287  0.85458226  2.86522022
  H -4.15097867  0.83054665  3.28131378
  H -4.05143317  0.76860821 -1.24109465
  H -2.73701498  1.77664793 -0.64081374
  H -2.64429372  0.40759408 -2.98208312
  H -2.02014731 -0.85309603 -1.93189442
  H -0.68937357  1.84279002 -1.73759167
  H -0.55127323  0.99085125 -3.27585835
  H  1.36254773  0.23975392 -2.34166979
  H  0.25607227 -1.03537491 -1.79556146
