27
opt_min/./Reactant_2124_1_opt.xyz
  C  3.29968837  1.32753201 -1.08024149
  C  2.19495877  0.36612459 -0.77287622
  O  2.03844642 -0.67979506 -1.34587360
  C  1.18754502  0.80857150  0.29957005
 Cl  1.95798160  1.87663670  1.52894698
  C  0.53979607 -0.31611777  0.91907959
  C -0.27958498 -1.13844877  1.22318232
  C -1.52927021 -1.88037440  1.16356882
  C -2.37002606 -1.50894385  2.29184431
  N -3.03107311 -1.19927297  3.16911180
  C -1.33008771 -3.31858745  1.18567421
  N -1.16823341 -4.44807072  1.20047375
  C -2.18719720 -1.42700044 -0.17913282
  C -2.14044297  0.09885507 -0.38546350
  C -0.92394009  0.63500080 -1.17733066
  C  0.02532385  1.56987584 -0.40203369
  H  2.97550450  2.36006301 -0.98978592
  H  4.10034006  1.16365175 -0.35821531
  H  3.68978422  1.12688978 -2.07494431
  H -1.65327374 -1.92619270 -0.99068207
  H -3.22144070 -1.77800563 -0.18494728
  H -3.04849606  0.37353636 -0.92635962
  H -2.19766244  0.59374044  0.58639778
  H -0.34547656 -0.19978296 -1.57676334
  H -1.29594222  1.19772184 -2.03568810
  H  0.45688687  2.30662164 -1.08070921
  H -0.53198295  2.10589242  0.36807708
