20
opt_min/./Reactant_4119_0_opt.xyz
  C  3.30345000 -0.02053700  0.12761900
  C  2.01517539  0.75498754  0.16902856
  O  1.96098935  1.97337103  0.27496838
  C  0.83258045 -0.05706267  0.06899041
  O  0.87528528 -1.39611297 -0.07120786
  C -0.42640162 -1.87565135 -0.19067210
  O -0.68513755 -3.04627757 -0.32816152
  C -1.26021444 -0.71403128 -0.11642598
  C -2.73794209 -0.67763646 -0.18721714
  N -0.45391154  0.34913669  0.03776685
  C -0.89537993  1.70917627  0.17618855
  H  3.34757303 -0.62230501 -0.77678586
  H  4.14257696  0.66771977  0.15861324
  H  3.34977204 -0.69835571  0.97702507
  H -3.16815124 -0.25858041  0.72274144
  H -3.09001662 -1.69880134 -0.30628889
  H -3.08526128 -0.08810519 -1.03602102
  H -1.01849828  1.95338954  1.23206760
  H -1.84525178  1.83665956 -0.33745611
  H -0.14141348  2.37798949 -0.23570322
