22
opt_min/./Reactant_379_1_opt.xyz
  C -2.35078900  1.90699100  0.53541600
  N -1.38456173  0.83170704  0.51867281
  C -1.53628287 -0.23133955 -0.32323969
  O -2.43776909 -0.30059000 -1.13853438
  C -0.54116427 -1.31931444 -0.16211935
  C -0.98160299 -2.70836239 -0.49396379
  O  0.69127652 -1.19067374  0.19082428
  C  1.43877664 -0.12792094  0.37862811
  C  2.81202622 -0.35192983  0.75057699
  C  3.65571914  0.90328038  0.86235075
  O  3.26814668 -1.46318043  0.96530553
  H -1.92842673  2.80799492  0.08440014
  H -2.65797760  2.12732021  1.55570954
  H -3.21351531  1.59486410 -0.05299835
  H -0.78029868  0.75160166  1.32020338
  H -0.32008951 -3.42701282 -0.01771488
  H -0.94402753 -2.86310583 -1.57312077
  H -2.00980960 -2.86437314 -0.18106723
  H  1.05739871  0.86685953  0.19656125
  H  3.93293011  1.04302537  1.90454363
  H  3.13024248  1.78244953  0.50646949
  H  4.57174761  0.76513006  0.29607684
