22
opt_min/./Reactant_4542_0_opt.xyz
  C  2.99186300 -0.60681600 -0.30212500
  C  3.15871764  0.87743735 -0.49170934
  O  4.24808108  1.40295535 -0.65939855
  C  1.95868060  1.68541220 -0.48754034
  N  0.71481667  1.26684611 -0.31632552
  N  0.30835443  0.06151280 -0.15925457
  C -1.01967101 -0.17082291  0.09877647
  C -1.50177370 -1.45262861 -0.18722990
  C -2.81945202 -1.77223002  0.06059201
  C -3.67995292 -0.83181426  0.60780470
  C -3.20643960  0.43164589  0.92189684
  C -1.89056005  0.76805654  0.67430764
  H  3.96363443 -1.08786645 -0.34936132
  H  2.33370193 -1.01259927 -1.06539334
  H  2.52434880 -0.80509899  0.65873663
  H  2.08877930  2.74291075 -0.64721619
  H -0.00173931  2.01221281 -0.33850873
  H -0.83051439 -2.17748536 -0.61754334
  H -3.18457302 -2.76243593 -0.17115335
  H -4.71100935 -1.08447486  0.80423279
  H -3.86457047  1.15977621  1.37122788
  H -1.53156667  1.74427867  0.97677188
