29
opt_min/./Reactant_615_1_opt.xyz
  C -1.36180584  1.79533786  3.39217814
  N -1.29551110  1.00693692  2.18646111
  C -0.17083327  0.96310779  1.45117551
  O  0.85752925  1.55497726  1.77120315
  C -0.25103438  0.22207096  0.17630760
  C -1.44114927 -0.45544966 -0.28528223
  O -2.52284498 -0.42359828  0.30007047
  N -1.28198666 -1.25854860 -1.38327887
  C -2.37479513 -2.03110129 -1.92109470
  N  0.85734733  0.33660055 -0.62300188
  C  0.69803428  0.92705610 -1.94908268
  C  2.09160304  0.13846558 -0.18530684
  C  2.45872387 -0.61030471  1.05423030
  C  3.16836597  0.53944890 -0.98560689
  N  4.07240693  0.81588428 -1.64359949
  H -0.37789420  1.79821864  3.86400048
  H -1.63395789  2.83347498  3.17646587
  H -2.09947177  1.36274518  4.06436166
  H -2.14346634  0.56378573  1.84965459
  H -0.37878951 -1.38591025 -1.80669183
  H -2.78402731 -1.56035976 -2.82059340
  H -2.04179404 -3.04012396 -2.16298127
  H -3.15582049 -2.07170226 -1.16180506
  H  0.97657441  1.98242021 -1.89435188
  H -0.34439001  0.86516097 -2.25314383
  H  1.33978887  0.43914177 -2.68353065
  H  1.65128263 -0.63074452  1.77498848
  H  3.32823601 -0.14710570  1.51641524
  H  2.72562611 -1.63680599  0.78377790
