23
opt_min/./Reactant_3660_0_opt.xyz
  C -2.83918400 -1.41429400 -0.93493900
  C -1.45166112 -1.03022026 -0.54516482
  O -1.29514415  0.11917186  0.02611553
  C -0.25230998  0.77224537  0.47410650
  C -0.59322438  2.19037776  0.85205500
  C  1.09419235  0.28070777  0.61446220
  C  2.16449320  1.19256593  0.65720932
  C  3.46601088  0.76698246  0.81221879
  C  3.75646410 -0.58211753  0.94257096
  C  2.71552379 -1.49591585  0.93875939
  C  1.41022139 -1.07793797  0.77780926
  H -2.86158727 -1.76872776 -1.96534684
  H -3.49644994 -0.55314047 -0.83962504
  H -3.22746782 -2.21687516 -0.30333944
  H -0.63464378 -1.69893794 -0.75908397
  H -0.16063255  2.45417970  1.81544208
  H -1.67521421  2.28535454  0.91579607
  H -0.23503142  2.90484264  0.10902018
  H  1.96856471  2.24762980  0.55028283
  H  4.26412367  1.49563183  0.82937568
  H  4.77588368 -0.91890488  1.05674577
  H  2.92051695 -2.54927646  1.06776885
  H  0.62627933 -1.81693246  0.84018902
