24
opt_min/./Reactant_5825_1_opt.xyz
  C  3.16825312 -1.10926765  0.01499970
  C  2.55268242 -2.02741480 -1.01576739
  O  3.17238274 -2.90506263 -1.57362442
  C  1.13038995 -1.78023974 -1.28984531
  C  0.47435119 -2.56152800 -2.24942973
  N  0.00208569 -3.23825614 -3.05090330
  O  0.55424567 -0.81690570 -0.59138436
  C -0.67834343 -0.39772971 -0.64372848
  C -1.64963688 -0.90898975 -1.52659046
  N -2.51186913 -1.25745209 -2.20177403
  C -1.06534595  0.66826128  0.26427883
  C -2.34981603  1.22364093  0.20702079
  C -2.70707019  2.23613861  1.07314638
  C -1.79862966  2.71285075  2.00769769
  C -0.52475443  2.16775870  2.07271378
  C -0.15627399  1.15479027  1.21270798
  H  4.23686660 -1.29532837  0.05508023
  H  2.98656255 -0.06494452 -0.22692016
  H  2.74047954 -1.32446493  0.99302381
  H -3.05737397  0.85556420 -0.52068696
  H -3.69894732  2.65738522  1.01983000
  H -2.08204981  3.50487046  2.68350649
  H  0.18327496  2.53475299  2.79968752
  H  0.83550721  0.73129349  1.27188734
