20
opt_min/./Reactant_3380_1_opt.xyz
  C  1.24823812 -2.05037996  2.81554197
  N  0.51115369 -1.00260159  2.15507789
  C  0.47257717 -0.91125458  0.79869805
  O  1.01434950 -1.73996496  0.08007344
  C -0.26769007  0.24902627  0.32469405
  N -0.45885342  0.55839996 -0.94318103
  C  0.04212573 -0.30136363 -1.99223102
  C -1.13149983  1.67141579 -1.31300089
  C -1.64169203  2.56126927 -0.35964871
  N -2.03055327  3.31514273  0.41688614
  C -1.35646659  2.00686256 -2.64996144
  N -1.58229977  2.29507319 -3.74083309
  H  2.24638797 -1.71053058  3.10640840
  H  0.70779743 -2.38260168  3.69987311
  H  1.35672664 -2.87666557  2.11438864
  H  0.10331426 -0.28050503  2.72491351
  H -0.67709169  0.93079775  1.05723018
  H -0.35056437 -1.30948778 -1.86183782
  H  1.12823268 -0.37021190 -1.93351393
  H -0.25208401  0.08817265 -2.96551982
