39
opt_min/./Reactant_2881_0_opt.xyz
  C  4.12370617  0.67310843  3.48480412
  N  3.52599390  0.92247382  2.19563373
  C  2.23751516  0.60649155  1.91974592
  O  1.49283843  0.11765061  2.73881716
  C  1.84344032  0.87959631  0.46549403
  C  0.42510688  1.02166440  0.27879263
  C -0.65319023  0.77559019 -0.18272244
  C -1.64854526  0.25770241 -1.07964920
  C -2.80165119  1.24181026 -1.31295440
  O -3.28858906  1.48148600 -2.38439778
  O -3.19886641  1.78005485 -0.16370933
  C -4.28239309  2.69673811 -0.21078966
  C -2.31409976 -0.97659825 -0.46121148
  O -2.74195776 -1.89983411 -1.10301148
  O -2.38066544 -0.86908481  0.85787156
  C -2.97703137 -1.93599870  1.58210380
  C -0.90795390 -0.05253566 -2.38550601
  C  0.35847127 -0.92592186 -2.32166581
  C  1.74935284 -0.43156531 -1.84879634
  C  2.20030971 -0.36740568 -0.37412222
  H  4.46684876  1.60362831  3.94231028
  H  4.96624998 -0.01560182  3.39342446
  H  3.35664209  0.22613277  4.11565472
  H  4.10678511  1.34538326  1.48863651
  H  2.35549491  1.77719887  0.09796911
  H -4.96355778  2.43245690 -1.02218496
  H -3.90139427  3.70735424 -0.37536527
  H -4.78353415  2.63706808  0.75342810
  H -2.18713911 -2.55976183  2.00421896
  H -3.61012915 -2.53337846  0.92202312
  H -3.56280600 -1.49162234  2.38560594
  H -0.66887543  0.88961942 -2.88405899
  H -1.61348467 -0.58736006 -3.02906742
  H  0.54204714 -1.14699170 -3.38076228
  H  0.12397115 -1.87287976 -1.82824053
  H  2.41072030 -1.20550901 -2.26084863
  H  1.99453330  0.50652904 -2.35558337
  H  1.83009673 -1.25826484  0.13835445
  H  3.29401702 -0.44217480 -0.39510106
