29
opt_min/./Reactant_4676_1_opt.xyz
  C -3.68197600  1.68087900  1.29503800
  O -2.70440628  0.76904312  0.82778319
  C -3.16068235 -0.35413193  0.20955663
  O -4.34214733 -0.59395260  0.04746200
  C -2.08886332 -1.22137363 -0.21295831
  C -2.45325878 -2.50165887 -0.89821352
  O -0.88672262 -0.76268059  0.04569548
  C  0.33379242 -1.15847570 -0.11364980
  C  0.75055007 -2.49724733 -0.64594049
  C  1.33844449 -0.19695743  0.29602951
  C  0.94795557  1.03621749  0.84367427
  C  1.88955793  1.96572211  1.22974625
  C  3.24249406  1.70062661  1.07850319
  C  3.64210370  0.48967958  0.53634257
  C  2.70844802 -0.45070768  0.14839130
  H -3.69676791  1.65966870  2.38678415
  H -4.66365054  1.40070362  0.90785094
  H -3.40803912  2.67712408  0.94792294
  H -1.97039218 -2.59730839 -1.87013712
  H -2.21387441 -3.37754566 -0.28984442
  H -3.53014830 -2.48031265 -1.04297201
  H -0.10064526 -3.14985148 -0.78903312
  H  1.43247429 -2.97722787  0.05485323
  H  1.27071991 -2.38923843 -1.59861239
  H -0.10344269  1.24582695  0.96570167
  H  1.56912252  2.90727615  1.65129124
  H  3.97834039  2.43108837  1.37902748
  H  4.69398255  0.27573144  0.41377741
  H  3.04912150 -1.38204383 -0.27427874
