28
opt_min/./Reactant_3049_0_opt.xyz
  C -1.20785300  1.01131800 -2.23583400
  C -2.16299682  0.57181697 -1.13970857
  O -3.35350347  0.46918625 -1.38242163
  C -1.61814782  0.34296933  0.18179898
  N -0.31370711  0.16748905  0.51048077
  C  0.80996016 -0.04122148 -0.11342663
  C  2.05697251 -0.25480417  0.56660285
  C  3.20566960 -0.48260752 -0.20553167
  C  4.43125695 -0.69360208  0.39047037
  C  4.54409930 -0.68187008  1.77245911
  C  3.41782684 -0.45937032  2.55123410
  C  2.18813852 -0.24700866  1.96301430
  C -2.42140865  0.33894991  1.40208601
  C -3.90705260  0.46093088  1.32029934
  O -1.82925889  0.24286544  2.48067308
  H -1.78707413  1.54602942 -2.98497925
  H -0.77256728  0.13926088 -2.72104868
  H -0.41914429  1.65472057 -1.85648231
  H -0.30129945  0.13543524  1.55543157
  H  0.81960177 -0.07974073 -1.19104027
  H  3.11833912 -0.49321611 -1.28250034
  H  5.30316652 -0.86740928 -0.22249611
  H  5.50244165 -0.84550429  2.24049729
  H  3.50194375 -0.45091985  3.62780624
  H  1.32916619 -0.07867198  2.59674852
  H -4.32548038  0.49375916  2.32226158
  H -4.18016278  1.35714074  0.76932945
  H -4.31281322 -0.38402616  0.76965096
