21
opt_min/./Reactant_232_1_opt.xyz
  C  3.02980500 -0.40816400  0.30400500
  O  1.93015513  0.06884095  1.05196734
  C  0.76617323  0.19211246  0.38176433
  C  0.38460422 -0.00036056 -0.88063548
  F  1.10299500 -0.45703065 -1.93645192
  C -1.10036789  0.24122779 -0.97936954
  C -1.77974186 -0.93052198 -0.23114595
  C -1.35497049 -0.69055012  1.23015230
  C -0.49033450  0.59000083  1.13496529
  C -1.24391966  1.36672426  0.05090971
  H  3.87512336 -0.43388693  0.98786067
  H  3.25538349  0.25685258 -0.53423293
  H  2.83534622 -1.41240409 -0.08325539
  H -1.46837819  0.41287091 -1.98735711
  H -1.44418519 -1.89294230 -0.61454911
  H -2.86172504 -0.87958953 -0.34651595
  H -2.21731952 -0.50684584  1.86984565
  H -0.78915118 -1.52128531  1.64732854
  H -0.30220480  1.07867212  2.08624774
  H -2.27719157  1.58455672  0.31576773
  H -0.74292121  2.28644262 -0.24591664
