16
opt_min/./Reactant_188_0_opt.xyz
  C -2.59503200  0.38480200 -0.43455100
  C -1.47046643 -0.55648424 -0.66958345
  N -0.24105072 -0.25727639 -0.33504294
  C  0.88914353 -0.96007817 -0.48559162
  C  2.15709691 -0.49309227 -0.04816750
  C  2.20219796  0.87775172  0.62747627
  O  3.18309517 -1.14679722 -0.19842952
  H -2.26737775  1.24379520  0.14760358
  H -3.00661074  0.74566679 -1.37867768
  H -3.40570756 -0.10896916  0.10113934
  H -1.65554427 -1.50015199 -1.15409268
  H -0.11070119  0.64290309  0.12456610
  H  0.82645579 -1.92181164 -0.96712948
  H  3.23205171  1.08834076  0.89962330
  H  1.59914059  0.88322778  1.53481472
  H  1.85756912  1.66197474 -0.04506655
