27
opt_min/./Reactant_4310_1_opt.xyz
  C  4.41331700  1.84654500  0.47407800
  O  3.08920995  1.57543323  0.05079552
  C  2.39887882  0.64732155  0.76869374
  O  2.86705273  0.04536878  1.72988759
  C  1.07965818  0.44698283  0.29019110
  N  0.37210016 -0.48308040  0.95455497
  C -0.83044775 -0.96851468  0.77855235
  C -1.33001643 -2.03927054  1.69183128
  C -1.71048514 -0.45726446 -0.28230133
  C -2.03234675  0.89804335 -0.34025010
  C -2.87557293  1.37464534 -1.32612526
  C -3.40645287  0.50878050 -2.26801964
  C -3.09158511 -0.83851032 -2.21853408
  C -2.25260110 -1.32122365 -1.23145278
  H  4.44230656  2.80799158  0.99219070
  H  4.75462907  1.05912454  1.14986127
  H  5.04415558  1.88635976 -0.41389114
  H  0.67238573  0.96508884 -0.55468196
  H  0.93131919 -0.85858144  1.73000847
  H -1.87378108 -2.79835679  1.13312308
  H -2.02146209 -1.62064538  2.42706711
  H -0.50815220 -2.51292396  2.22573726
  H -1.62264144  1.57367275  0.39607630
  H -3.12340439  2.42547479 -1.35921437
  H -4.06338834  0.88252825 -3.03911834
  H -3.49693856 -1.51841126 -2.95340632
  H -2.00043437 -2.37098683 -1.20187342
