37
opt_min/./Reactant_2496_0_opt.xyz
  C -0.94032200 -3.84846100 -0.65377400
  N -0.69768245 -2.46245683 -0.33397519
  C -1.29474290 -1.46846132 -1.02424738
  O -2.14649194 -1.72557168 -1.86573389
  C -0.94416719 -0.07127415 -0.60326082
  C -1.96836385  0.99590774 -0.89479347
  O -1.67198128  2.18077468 -0.93430651
  N -3.22391266  0.56514691 -1.10887927
  C -4.28868742  1.46795041 -1.46462082
  C  0.28164596  0.22450267 -0.11249600
  C  0.76028819  1.49238340  0.55978363
  O  1.94577791  1.76795547  0.56363653
  N -0.14780744  2.18518361  1.27304344
  C  0.23226870  3.33481000  2.05670078
  C  1.41973068 -0.71577121 -0.22866213
  C  2.14517506 -1.11806594  0.89111168
  C  3.24495691 -1.94335457  0.74748269
  C  3.64200744 -2.36051013 -0.51216247
  C  2.93497950 -1.94923998 -1.63020106
  C  1.82828595 -1.13279525 -1.49304214
  H -0.28826329 -4.17763458 -1.46704784
  H -0.75807286 -4.46050042  0.22566119
  H -1.97487479 -3.95806932 -0.97716615
  H -0.01011042 -2.25036533  0.36994096
  H -3.36801210 -0.42625864 -1.24878539
  H -3.86787289  2.46730985 -1.56910969
  H -4.74553634  1.16595498 -2.40723283
  H -5.05243080  1.47378848 -0.68367145
  H -1.12645633  2.04284381  1.08941731
  H  1.21558018  3.66499742  1.72344734
  H  0.28313146  3.06889069  3.11603485
  H -0.48832920  4.13874384  1.92197832
  H  1.83897787 -0.78090095  1.87108618
  H  3.79821296 -2.25223651  1.62187133
  H  4.50674805 -2.99755139 -0.62198977
  H  3.25066256 -2.26095163 -2.61477511
  H  1.27837823 -0.80048217 -2.36106009
