17
opt_min/./Reactant_2713_1_opt.xyz
  C  0.94017437  0.93757658 -2.33876844
  C  0.58652560  0.19903407 -1.09968171
  N -0.31258915  0.67872679 -0.28482722
  C -0.84161810  0.28866921  0.90864657
  C -1.84113432  1.15986075  1.37725488
  N -2.64721329  1.90792434  1.71229271
  C -0.53097937 -0.85921492  1.73470585
  C  0.57809837 -1.79861012  1.30139675
  O -1.14447830 -1.06452663  2.76777282
  H  0.08501354  1.48762825 -2.73096093
  H  1.73966607  1.65906956 -2.14658103
  H  1.29681000  0.24917378 -3.09987614
  H  1.09904381 -0.71348915 -0.86510306
  H -0.73291856  1.55539557 -0.60206353
  H  0.32358829 -2.28747190  0.36194688
  H  0.68614912 -2.55942617  2.07181922
  H  1.52168346 -1.26618321  1.19489154
