25
opt_min/./Reactant_4732_1_opt.xyz
  C -2.79199507 -2.93990196  0.17953759
  N -1.82216069 -1.86975808  0.21822613
  C -2.22751836 -0.57143000  0.28876181
  O -3.39177504 -0.25710005  0.28447077
  C -1.10724988  0.41384362  0.37152738
  N  0.10421823  0.01300305  0.40472751
  C  1.23488254 -0.34456904  0.45389276
  C  2.56832934 -0.75025426  0.53503336
  C  2.74057950 -2.25613670  0.51972685
  O  3.49034227  0.04421406  0.60935293
  C -1.41304259  1.88025413  0.39745457
  O -2.53490655  2.31821189  0.32221176
  N -0.31346354  2.67407816  0.48068227
  C -0.42911203  4.11156186  0.52739902
  H -2.35448237 -3.81120428 -0.30203926
  H -3.65908285 -2.60142811 -0.38821759
  H -3.12558686 -3.20498778  1.18644492
  H -0.84624821 -2.10991556  0.25893597
  H  1.89767239 -2.76572596  0.98180397
  H  3.65930903 -2.50751820  1.04321417
  H  2.82966526 -2.59243313 -0.51280224
  H  0.60983793  2.27936587  0.56065355
  H -0.30073255  4.48449615  1.54735143
  H -1.42741261  4.37727016  0.18146129
  H  0.31955481  4.56593940 -0.12058736
