30
opt_min/./Reactant_2437_1_opt.xyz
  C -3.61019006  0.49770276  1.78708214
  O -2.31987566  0.88991578  1.39593015
  C -1.54570298 -0.11762393  0.78776256
  C -0.13430677  0.07905559  0.98440499
  C  1.00901893  0.29358261  0.69350027
  C  2.30281450 -0.04908643  0.15249745
  C  3.05242693  1.17188346 -0.39246850
  F  2.32373859  1.81807137 -1.31236184
  F  3.34912533  2.06108334  0.55718950
  F  4.19952495  0.84027642 -0.99685628
  C  3.14313233 -0.70627928  1.27470063
  F  2.95113829 -0.09765515  2.44930559
  F  4.45879818 -0.67967021  1.04282766
  F  2.81851361 -1.99060778  1.46113119
  C  1.97976717 -1.05421721 -0.99363095
  C  0.74858566 -0.80414997 -1.89911968
  C -0.75682684 -1.02411917 -1.58845589
  C -1.66946017 -0.09791599 -0.76076254
  H -3.57868315 -0.34819732  2.48462793
  H -4.23507696  0.22718929  0.92751146
  H -4.04674093  1.35982958  2.28697168
  H -1.83884626 -1.11447642  1.15320072
  H  1.93175973 -2.05772422 -0.57296012
  H  2.82805120 -1.02496149 -1.68541771
  H  0.85160375  0.18061562 -2.36141987
  H  0.92442701 -1.53067239 -2.70032559
  H -1.19073566 -0.94006061 -2.59140340
  H -0.91473951 -2.06191958 -1.28110517
  H -2.69163842 -0.40875892 -0.99250497
  H -1.53511698  0.93421042 -1.08615984
