27
opt_min/./Reactant_1345_0_opt.xyz
  C -3.38764698  2.22950942 -1.18477216
  N -2.87856585  0.90735178 -0.92470918
  C -1.59623404  0.57701210 -1.17610294
  O -0.80592428  1.28997191 -1.76620464
  C -1.23946211 -0.82823909 -0.80934461
  C -2.23776947 -1.78945120 -0.88653343
  N -3.10488060 -2.55206008 -0.90791011
  N  0.04962954 -1.16116966 -0.62972827
  C  0.46831065 -2.51394032 -0.94559399
  C  0.93834361 -0.27449658 -0.14254078
  C  2.39643305 -0.51142428 -0.37837937
  C  0.47546447  0.70665377  0.80747583
  C  1.54221355  1.47945516  1.54675816
  O -0.71173996  0.85722468  1.08350513
  H -2.70785658  2.71495358 -1.88221005
  H -4.38228270  2.16280280 -1.62607365
  H -3.43748391  2.82065397 -0.26736939
  H -3.42818593  0.30207527 -0.33501594
  H -0.39221329 -3.17807028 -0.87357942
  H  1.23952892 -2.84323182 -0.25212800
  H  0.85693561 -2.56433012 -1.96428360
  H  2.92649689  0.43583576 -0.40178486
  H  2.54427947 -1.00075955 -1.33819134
  H  2.85687301 -1.12894782  0.39699064
  H  2.27314160  0.81332262  1.99807376
  H  1.06752708  2.07361893  2.32259145
  H  2.05049110  2.14536419  0.85322437
