24
opt_min/./Reactant_5067_0_opt.xyz
  C  3.05513782  2.66481507  2.42881914
  N  2.40099370  1.71958973  1.55936155
  C  1.05098878  1.69489165  1.42795748
  O  0.28065214  2.44478220  1.99187406
  C  0.57203799  0.69160503  0.53138270
  N  0.05846478 -0.11781767 -0.14559251
  C -0.52680760 -0.98780058 -0.89363899
  C  0.25058293 -1.97910420 -1.64389181
  C  1.74343036 -1.93322971 -1.38882285
  O -0.24664534 -2.75853800 -2.41831160
  C -1.99930605 -0.94034363 -0.98471520
  O -2.68981419 -1.69712567 -1.60728378
  O -2.48210907  0.07190414 -0.23103629
  C -3.89418636  0.21068483 -0.21633931
  H  3.55077597  2.15338311  3.25732703
  H  2.28907179  3.33088433  2.82579684
  H  3.79234848  3.24852175  1.87466396
  H  2.97172870  1.05559005  1.06119764
  H  2.20061858 -2.82094409 -1.82178603
  H  2.16088779 -1.05449123 -1.88147425
  H  1.96549368 -1.88557406 -0.32556794
  H -4.36602952 -0.73990252  0.04203235
  H -4.11284219  0.96763013  0.53269133
  H -4.24965800  0.52566739 -1.20034489
