13
opt_min/./Reactant_3677_0_opt.xyz
  C -2.68170993  0.01047986 -0.87745263
  N -1.40017536  0.44489438 -0.38013809
  C -0.38319665 -0.42014817 -0.17785529
  O -0.41621709 -1.61318677 -0.39073842
  C  0.81423009  0.19876509  0.33683464
  N  1.89339211  0.21413610  0.79990155
  N  2.91193666  0.62234149  1.32836002
  C  4.03620702  0.03086538  1.58154662
  N  5.07589454 -0.36301818  1.87660174
  H -3.47596903  0.28417488 -0.18159715
  H -2.89033374  0.45666867 -1.85191635
  H -2.64507808 -1.07330568 -0.98271161
  H -1.27675825  1.42273483 -0.16826216
