41
opt_min/./Reactant_2836_0_opt.xyz
  C -3.60551460 -2.82153911  0.11958533
  N -2.73016231 -1.67700105  0.01146620
  C -2.72583015 -0.90762851 -1.09115311
  O -3.42966410 -1.11219053 -2.05351102
  C -1.72556583  0.28193253 -1.06409277
  C -2.53449071  1.57270794 -0.90514705
  O -3.72823432  1.65960037 -0.95826655
  O -1.70769960  2.59805488 -0.67579922
  C -2.28279104  3.88697457 -0.50593381
  C -0.75013486  0.15370793  0.03513671
  C  0.16206802 -0.20100647  0.76341660
  C  1.50371777 -0.85874141  0.71165601
  O  1.57896512 -1.76806976  1.77516044
  C  2.73618192 -2.58245230  1.81755930
  O  2.52857781  0.10387605  0.76642942
  C  2.50287193  0.92732771  1.91424592
  C  1.72902781 -1.57582396 -0.73140050
  C  0.68263441 -0.90439896 -1.60625409
  C -0.03764114 -0.74178588 -2.93844183
  C -1.07395509  0.35762401 -2.51702665
  H -3.17012180 -3.68953405 -0.38251796
  H -4.55391765 -2.58599829 -0.36401205
  H -3.77202753 -3.05617131  1.16770236
  H -2.13410330 -1.44039872  0.79025893
  H -3.37124147  3.80825592 -0.48109134
  H -1.97286032  4.51909817 -1.33907979
  H -1.90965443  4.29909781  0.43112301
  H  2.90263689 -2.81793644  2.86840557
  H  2.57414426 -3.51510463  1.26803323
  H  3.60223165 -2.05892647  1.41053370
  H  2.60995216  0.33519690  2.82799900
  H  3.34258793  1.61155286  1.81333536
  H  1.56302870  1.48873970  1.96014395
  H  2.76223460 -1.37379237 -1.00716401
  H  1.56500753 -2.64584762 -0.62930155
  H  0.89094248  0.14220913 -1.37346677
  H -0.18199941 -1.29874443 -1.07554099
  H -0.53927188 -1.65061867 -3.26829646
  H  0.57189682 -0.35060561 -3.75309468
  H -1.92310327  0.35419952 -3.20360289
  H -0.57531678  1.32598074 -2.58667427
