28
opt_min/./Reactant_1143_0_opt.xyz
  C -0.45010400  4.04243600 -0.39188200
  N -0.29107739  2.60340352 -0.44077073
  C -1.13828504  1.81097806  0.26660307
  O -1.96071444  2.25091332  1.03918848
  C -0.95090704  0.34675745  0.04624380
  N  0.22515940 -0.24256317  0.09181149
  C  1.46110319  0.18957250  0.32675703
  C  2.45135881 -0.84799329  0.30937219
  O  2.15839291 -2.01605537  0.07959789
  O  3.70479830 -0.42529737  0.54911546
  C  4.71114679 -1.42471279  0.54549670
  C -2.16844711 -0.44660674 -0.25068351
  O -3.05810936 -0.01875978 -0.95756055
  N -2.17414918 -1.70184520  0.27288753
  C -3.28521920 -2.60087638  0.06246441
  H -1.47934138  4.32308307 -0.62661188
  H  0.23024267  4.50758779 -1.09919958
  H -0.22914439  4.39557023  0.61653580
  H  0.22495899  2.22100408 -1.21584137
  H  0.26171852 -1.26231538 -0.09368920
  H  1.68634443  1.20582822  0.58523493
  H  5.66218439 -0.89882686  0.52203397
  H  4.63821876 -2.03678209  1.44805184
  H  4.60380750 -2.07040587 -0.32882580
  H -1.50969767 -1.97452030  0.97876525
  H -3.98007157 -2.11245784 -0.61812200
  H -3.79376041 -2.81648528  1.00381856
  H -2.93718775 -3.53587338 -0.38122095
