35
opt_min/./Reactant_5208_1_opt.xyz
  C -3.33587724  1.95941197 -2.73735271
  O -2.40084209  1.19654314 -1.99003896
  C -1.48878690  1.89370494 -1.29680898
  O -1.43448334  3.11512121 -1.28041107
  C -0.57122162  1.08518680 -0.51371761
  N  0.26645135  1.84924555  0.20463910
  C  1.30784723  1.59454658  0.99811569
  C  1.85214337  2.66199187  1.71797445
  N  2.33403450  3.52381533  2.31131761
  C  1.96125006  0.29359432  1.13403450
  C  2.39697804 -0.13878338  2.38763330
  C  3.01656971 -1.36565271  2.52333610
  C  3.22149728 -2.16952046  1.41382319
  C  2.82663987 -1.72991349  0.16025810
  C  2.20306215 -0.50713471  0.01586777
  C -0.66230559 -0.36753634 -0.41710233
  C -0.66335346 -0.98978539  0.83332367
  C -0.75425321 -2.36367863  0.93138684
  C -0.84104557 -3.14034316 -0.21176819
  C -0.85701695 -2.53296696 -1.45627456
  C -0.77174501 -1.15825831 -1.56228399
  H -2.89341112  2.27142502 -3.68619916
  H -4.18850570  1.31008830 -2.91748264
  H -3.63500939  2.84717947 -2.17814570
  H  0.01677378  2.84224150  0.07928800
  H  2.23588228  0.48886199  3.25188984
  H  3.33839480 -1.69750624  3.49905474
  H  3.69856251 -3.13166836  1.52273883
  H  3.00486933 -2.34242840 -0.71030946
  H  1.92407120 -0.15833682 -0.96660450
  H -0.62050105 -0.39088226  1.73135319
  H -0.75635882 -2.82885297  1.90564403
  H -0.90175501 -4.21525199 -0.13056408
  H -0.92960616 -3.13409229 -2.35049515
  H -0.77223597 -0.68791677 -2.53235326
