25
opt_min/./Reactant_4439_0_opt.xyz
  C  4.60483600 -0.30956100  1.69984300
  N  3.18092006 -0.11050732  1.63133494
  C  2.47434288 -0.27537188  0.48518181
  O  2.99572271 -0.57414852 -0.59067608
  C  1.04714325 -0.06254459  0.58456925
  N  0.40210840 -0.21974904 -0.55768646
  C -0.87348969 -0.12785330 -0.91092334
  C -1.20414980 -0.39430104 -2.34959547
  C -1.88462410  0.21359187  0.07920137
  O -1.63094617  0.44472662  1.25708058
  N -3.16774519  0.25000103 -0.38550978
  C -4.27665132  0.57450622  0.47277747
  H  4.97498492 -0.36908785  0.67724725
  H  5.08218037  0.52318803  2.21692916
  H  4.85115627 -1.24139531  2.21777745
  H  2.68835008  0.12222639  2.47717855
  H  0.52353426  0.20046995  1.48308129
  H  1.07544491 -0.46967984 -1.29936188
  H -1.85793593 -1.26232444 -2.45653499
  H -1.69221004  0.46252620 -2.81585990
  H -0.29080192 -0.59709759 -2.90636329
  H -3.36499837  0.06081495 -1.35175917
  H -3.87459423  0.70919000  1.47619545
  H -4.76432321  1.49920809  0.15379914
  H -5.01279305 -0.23211589  0.48151669
