22
opt_min/./Reactant_3710_0_opt.xyz
  C -1.69013315  1.91405499  1.06121779
  C -0.49929394  1.20165545  0.53621077
  N -0.54976874 -0.02077471  0.07884743
  C -1.83090944 -0.71048902  0.09328560
  C  0.53127680 -0.73050650 -0.39292060
  C  0.34698202 -2.02912794 -0.84301880
  N  0.24585877 -3.10624913 -1.25224701
  C  1.87607050 -0.16010116 -0.47495877
  O  2.15662220  0.99747240 -0.17611345
  N  2.82325178 -1.02878751 -0.91699070
  C  4.20076328 -0.64398631 -1.08496295
  H -1.38288256  2.86967474  1.47528624
  H -2.19683207  1.34608793  1.84151101
  H -2.42008310  2.10923454  0.27120143
  H  0.45802811  1.69488501  0.50541546
  H -2.13586946 -0.91625577  1.11953429
  H -1.75353070 -1.65351476 -0.44261561
  H -2.58673560 -0.08913931 -0.38426377
  H  2.55733644 -1.96768373 -1.16741134
  H  4.52370396 -0.80433556 -2.11537504
  H  4.27285350  0.41480670 -0.84059423
  H  4.84851156 -1.21508248 -0.41602563
