21
opt_min/./Reactant_1035_0_opt.xyz
  C  0.16565124 -2.78597698 -1.35097423
  N  0.00181750 -1.57470035 -0.58357506
  C  0.74170312 -0.46342988 -0.84065276
  O  1.53034148 -0.38070536 -1.75847797
  C  0.50574200  0.65788636  0.11225022
  N  1.47090332  1.47940873  0.28231525
  C  2.35362562  2.23780277  0.46152036
  C  3.36170529  3.09979804  0.62744430
  N  4.23542307  3.84335451  0.77699412
  C -0.74085414  0.92936890  0.87455052
  O -0.74520072  1.57450440  1.90262462
  N -1.86483651  0.41690253  0.31066585
  C -3.16808375  0.63406848  0.89362901
  H  0.86824880 -2.56859590 -2.15475908
  H -0.79160262 -3.09584410 -1.77884896
  H  0.56110580 -3.59720124 -0.73780004
  H -0.52129418 -1.63121649  0.27630097
  H -1.82134793 -0.02172720 -0.59510238
  H -3.88220583  0.91301813  0.12001433
  H -3.08590336  1.43663906  1.62519056
  H -3.52442258 -0.26560337  1.40329541
