16
opt_min/./Reactant_1917_0_opt.xyz
  C -3.38820700  0.14130000 -0.03922599
  O -1.96557566  0.23655098 -0.00925046
  C -1.28974604 -0.93006741 -0.07936255
  O -1.78934585 -2.01588393 -0.17505895
  C  0.14856693 -0.64627048 -0.03701369
  N  0.69479919  0.56221027  0.06667184
  C  2.04771704  0.46366645  0.07994234
  C  2.91927173  1.54172452  0.17976810
  N  3.63234348  2.43847807  0.26478651
  C  2.36080387 -0.94724620 -0.02643279
  O  3.38548693 -1.55985478 -0.05908068
  O  1.09586220 -1.57109833 -0.09504646
  H -3.76697847  0.00742507  0.97551184
  H -3.69382713 -0.70660703 -0.65365434
  H -3.75359800  1.07625264 -0.45734408
  H  0.16040460  1.41978753  0.12589078
