17
opt_min/./Reactant_1037_0_opt.xyz
  C -1.45164927  0.93113972 -1.33120961
  C -0.99701305  0.65333828  0.06406270
  C -1.78523035  1.16961507  1.09445258
  N -2.50011932  1.57647947  1.90025506
  N  0.06927978 -0.08773335  0.34303256
  C  0.51145245 -0.17073381  1.72705413
  C  0.84048123 -0.74625948 -0.55012840
  C  1.98965692 -1.42118561 -0.11455472
  N  2.92495871 -2.00602843  0.21182666
  C  0.62570338 -0.86269858 -1.92881393
  N  0.55138287 -1.01575496 -3.06653503
  H -2.29820907  1.61387831 -1.30730393
  H -1.77376724  0.00755563 -1.81753326
  H -0.64797328  1.36102857 -1.92964088
  H  0.78792204 -1.19881784  1.97122494
  H -0.28011942  0.15242544  2.40096626
  H  1.39278285  0.45726530  1.87815459
