24
opt_min/./Reactant_5431_1_opt.xyz
  C  5.30226202 -0.19973780 -0.59534999
  O  3.88078991 -0.24187783 -0.55429953
  C  3.25539415  0.94485024 -0.50685461
  O  3.78590025  2.02592708 -0.49891855
  C  1.84778288  0.75777503 -0.43385362
  N  0.68772652  0.65181682 -0.31386330
  C -0.58637759  0.54104106 -0.17402989
  C -1.39055437  1.77471886 -0.30877599
  O -0.90041586  2.85156696 -0.55214980
  O -2.68814406  1.54172399 -0.14394938
  C -3.57056075  2.64965605 -0.26195337
  C -1.15083521 -0.78965260  0.09441303
  O -2.31321200 -1.04724948  0.25390024
  O -0.15754556 -1.70469965  0.15352946
  C -0.54145605 -3.04773166  0.41424135
  H  5.66750754  0.70915623 -0.11351169
  H  5.63784678 -0.21782590 -1.63419110
  H  5.65653383 -1.08470342 -0.07123255
  H -3.06040953  3.48694382 -0.74209350
  H -4.42144101  2.32164421 -0.85678197
  H -3.90554085  2.94361369  0.73422632
  H -1.49235253 -3.06936053  0.94971502
  H  0.24950662 -3.49232491  1.01507771
  H -0.64354281 -3.58778922 -0.52896450
