28
opt_min/./Reactant_601_0_opt.xyz
  C -1.98098600  1.68031200  0.30871700
  C -2.55229147  0.28674717  0.11257124
  O -3.76687373  0.13238786 -0.00303527
  C -1.68042931 -0.84049959  0.27623824
  C -2.29024624 -2.12646121  0.76568106
  O -0.35387015 -0.85362916  0.30206864
  C  0.51215555 -0.15908149 -0.39365024
  C  0.10430280  0.66089418 -1.57076589
  C  1.89371905 -0.34100477 -0.03324814
  C  2.24927010 -1.21634001  1.00813267
  C  3.56733456 -1.39643710  1.36410535
  C  4.57235621 -0.70235618  0.70679083
  C  4.23881487  0.17721592 -0.31142482
  C  2.92215189  0.36203900 -0.67935059
  H -1.92035717  2.22467064 -0.63162203
  H -2.67093512  2.22098129  0.95356224
  H -0.99662571  1.65083141  0.77224996
  H -2.32470734 -2.16049632  1.85623956
  H -3.31044491 -2.18062044  0.39459455
  H -1.71849274 -2.97995482  0.40802113
  H -0.90356680  0.37614431 -1.87426365
  H  0.12473173  1.73320970 -1.37846829
  H  0.78746427  0.45658318 -2.39586971
  H  1.47346801 -1.75685549  1.52785443
  H  3.81713869 -2.07964711  2.16275960
  H  5.60606551 -0.83808111  0.98638731
  H  5.01562647  0.72772097 -0.82156237
  H  2.69159726  1.06129948 -1.46731984
