25
opt_min/./Reactant_2511_1_opt.xyz
  C  3.30943958  1.01045947 -0.50293471
  C  2.06273070  0.30481653 -0.93565074
  O  1.74053459  0.14962031 -2.08317154
  C  1.11707128 -0.18086725  0.17660175
 Br  2.11157379 -0.72819353  1.79396241
  C  0.31408282 -1.30943402 -0.30105280
  C -0.75105591 -1.77329049 -0.66056161
  C -2.22453197 -1.78205261 -0.83393206
  F -2.62849176 -2.69138969 -1.76168281
  F -2.78530237 -2.20615741  0.34119176
  C -2.90194045 -0.40743341 -1.24389828
  C -2.63346265  0.88809776 -0.40551014
  C -1.15729626  0.65673329 -0.09858255
  C  0.16246204  1.09332107  0.52264984
  H  4.08291313  0.26223847 -0.32767508
  H  3.64667141  1.66828863 -1.30068597
  H  3.16659083  1.56733110  0.41925552
  H -2.56938574 -0.23374468 -2.26966362
  H -3.96897347 -0.64044729 -1.26650457
  H -2.85771902  1.75594527 -1.02562082
  H -3.25561179  0.91539176  0.48746352
  H -0.80429746  0.41158361 -1.10414417
  H -1.31313251 -0.22665945  0.51991786
  H  0.10662757  1.23019248  1.60116267
  H  0.60675222  1.98032528  0.06861993
