31
opt_min/./Reactant_4596_1_opt.xyz
  C -3.08878946  3.45643762  0.37474013
  C -3.45341986  2.10098407  0.97783529
  O -4.55181525  1.84768222  1.44915972
  C -2.36049746  1.25437851  0.95492232
  N -1.38982945  0.59968826  0.74683520
  C -0.36409068 -0.07955263  0.38919141
  C -0.29416533 -1.50431206  0.65679607
  C -1.14407481 -2.08048332  1.60895802
  C -1.09951026 -3.43645127  1.85908748
  C -0.20810995 -4.24561022  1.17199042
  C  0.64270890 -3.68444341  0.23355827
  C  0.60592528 -2.32813392 -0.02298831
  C  0.75009052  0.66436793 -0.24533165
  C  1.00722899  0.53767660 -1.60628087
  C  2.06430342  1.22135192 -2.17944508
  C  2.86452887  2.04428604 -1.40336383
  C  2.59989854  2.18878405 -0.05252005
  C  1.54634809  1.50302323  0.52629826
  H -2.20294100  3.87193942  0.85015772
  H -3.93061965  4.12874539  0.51560702
  H -2.89120766  3.35309921 -0.69106734
  H -1.84003882 -1.45598123  2.15057184
  H -1.76010167 -3.86638453  2.59779672
  H -0.17107388 -5.30652796  1.36971558
  H  1.33905536 -4.31141793 -0.30393690
  H  1.28267117 -1.90020467 -0.74730189
  H  0.36789427 -0.08568563 -2.21486935
  H  2.26372846  1.11802724 -3.23567333
  H  3.68768929  2.57353330 -1.85965705
  H  3.21446348  2.83438693  0.55758921
  H  1.34314096  1.61387789  1.58178926
