19
opt_min/./Reactant_418_0_opt.xyz
  C  3.94527329  0.57115226 -0.89114941
  N  2.60268362  0.09818301 -0.67052776
  C  1.71405170  0.81314303  0.09162996
  O  2.00107101  1.84752210  0.68711125
  C  0.43266888  0.27649383  0.18562610
  N -0.70183247 -0.05125294  0.35159191
  C -1.91601681 -0.35823684  0.55363986
  C -2.50458617 -1.57632947 -0.09261545
  C -2.77251382  0.49962610  1.43360294
  H  4.03968949  1.07804957 -1.85700052
  H  4.16473927  1.29038912 -0.10223770
  H  4.64947551 -0.25826668 -0.84432156
  H  2.29271128 -0.73085281 -1.14767342
  H -3.20332489 -2.05555425  0.59016455
  H -3.04618423 -1.31533923 -1.00421181
  H -1.72395599 -2.28802267 -0.35523219
  H -2.90171020  0.03883053  2.41579822
  H -2.32041155  1.47840158  1.57330433
  H -3.75948224  0.62095632  0.98942823
