28
opt_min/./Reactant_2735_1_opt.xyz
  C -2.63386474  1.71309319  0.51917878
  C -2.51565135  0.59930171 -0.48918326
  O -3.37183544  0.39126833 -1.31186040
  C -1.22663264 -0.22786087 -0.45034018
  C -1.49187422 -1.62454114 -1.02407045
  C -0.62339871 -0.33560059  0.85360551
  C  0.20139457 -0.35791157  1.72224173
  C  1.52546362 -0.39365381  2.28106061
  C  2.43974518 -0.71413124  1.08763691
  C  2.33232186  0.16173540 -0.17856489
  C  1.27677247 -0.03595856 -1.29522607
  C -0.14608326  0.55358662 -1.23783565
  H -3.66275232  1.77411935  0.87005097
  H -1.95488296  1.56950730  1.35559062
  H -2.40171968  2.65587475  0.02277443
  H -1.44797213 -1.60630180 -2.11228023
  H -0.76153102 -2.33850483 -0.64937943
  H -2.48470388 -1.95803003 -0.73117480
  H  1.62040880 -1.15564331  3.06016092
  H  1.76222563  0.57914042  2.72553468
  H  3.47243427 -0.60607098  1.43709726
  H  2.31313326 -1.75797355  0.79535449
  H  2.36265804  1.21926513  0.10307859
  H  3.26936856 -0.06094392 -0.70658386
  H  1.24091619 -1.08906075 -1.58345069
  H  1.72498407  0.51535653 -2.13400777
  H -0.07780958  1.57276958 -0.84662205
  H -0.49301796  0.62492425 -2.27552931
