29
opt_min/./Reactant_1673_0_opt.xyz
  C  1.66237975  1.88194999 -1.99609058
  C  1.37020312  0.79768334 -0.99917245
  N  0.14102840  0.43019241 -0.85887277
  C -0.99237239  0.13790365 -0.69228692
  C -2.30801538 -0.17795263 -0.46849543
  C -2.65436163 -1.23256585  0.40244979
  C -3.97711909 -1.54354426  0.61765683
  C -4.98791977 -0.83230409 -0.01526833
  C -4.65456991  0.20602605 -0.87248021
  C -3.34110692  0.54092387 -1.10722759
  C  2.39159746  0.20014642 -0.17833589
  C  2.10349231 -0.92544848  0.61135942
  C  3.06804974 -1.49024015  1.41728417
  C  4.34707005 -0.95699485  1.46480655
  C  4.64582741  0.15219362  0.69119139
  C  3.68882981  0.72662274 -0.11970177
  H  1.76738790  2.85337576 -1.50598370
  H  2.59775811  1.66832932 -2.51137195
  H  0.86135295  1.95316721 -2.72745981
  H -1.86903376 -1.78452511  0.89668208
  H -4.22693605 -2.35518228  1.28574640
  H -6.02172067 -1.08583542  0.15941936
  H -5.43693339  0.76676552 -1.36448412
  H -3.08301943  1.34985682 -1.77324766
  H  1.11314390 -1.35657908  0.57951583
  H  2.82482740 -2.35769677  2.01462309
  H  5.10012744 -1.40081846  2.09814507
  H  5.63804926  0.57991543  0.72429060
  H  3.93883130  1.59893884 -0.70287460
