20
opt_min/./Reactant_1316_0_opt.xyz
  C  4.63303658  0.76362984  0.42739118
  O  3.32741613  0.22706386  0.28178277
  C  2.33847629  1.13101806  0.09840671
  O  2.48648812  2.32760335  0.01797742
  C  1.08615902  0.50112005 -0.01773799
  N -0.00391078  0.05506199 -0.05361011
  C -1.22364576 -0.35774825 -0.02013866
  C -1.40313802 -1.84075998  0.13729627
  C -2.24423885  0.66507286 -0.19485080
  C -3.69931581  0.26864487 -0.11370897
  O -1.93560879  1.82733122 -0.39991694
  H  4.82832784  0.99392484  1.47707816
  H  5.32327737 -0.00249287  0.08137100
  H  4.73997465  1.67512363 -0.16347473
  H -0.73020269 -2.21480926  0.90606222
  H -1.16748176 -2.35324389 -0.79735246
  H -2.41826444 -2.09643943  0.41746627
  H -4.17536768  0.51594091 -1.05912035
  H -3.86898730 -0.77716535  0.11413473
  H -4.16761433  0.88171614  0.65470657
