23
opt_min/./Reactant_2741_1_opt.xyz
  C -3.57755500 -0.53195800 -0.06956900
  N -2.47164236  0.35493248  0.03993170
  N -1.34016352 -0.19086645  0.14919331
  C -0.15502182  0.39227200  0.33391902
  C  1.05526378 -0.45994594  0.30419598
  O  1.98451504 -0.35493151  1.07349115
  N  1.02502853 -1.41887455 -0.67073588
  C  2.14332959 -2.31333463 -0.87511372
  C -0.07377611  1.81134204  0.68949425
  O -1.00476191  2.50157379  1.02781980
  O  1.19306320  2.25623975  0.60402848
  C  1.40335277  3.59963834  1.00469112
  H -3.28087330 -1.55008083 -0.37719004
  H -4.27714683 -0.11281721 -0.78927470
  H -4.09057660 -0.60132977  0.89305134
  H -1.28062805 -1.23250235  0.06534162
  H  0.36387276 -1.35879068 -1.42715577
  H  2.49973329 -2.26130163 -1.90322482
  H  1.85949579 -3.34339686 -0.64529948
  H  2.93970811 -2.00717054 -0.19831454
  H  1.01310385  4.28443805  0.24810079
  H  2.47862242  3.71927118  1.10900757
  H  0.89991528  3.79722215  1.95309366
