33
opt_min/./Reactant_5948_1_opt.xyz
  C -3.34799709  2.08610353 -2.70838045
  N -2.29688880  1.51493741 -1.89800053
  C -2.40086361  0.25412312 -1.42524352
  O -3.34030455 -0.49159600 -1.70020226
  C -1.33369989 -0.22863374 -0.53963810
  N -1.61121077 -1.44558563 -0.07726548
  C -0.95251946 -2.30962965  0.69154526
  C -1.57576231 -3.49415870  1.07676307
  N -2.07149650 -4.49589702  1.35625481
  C  0.46662920 -2.09360744  1.14361805
  O  0.80254340 -2.09358651  2.30683439
  N  1.32771345 -1.95305665  0.10915599
  C  2.73381379 -1.70544252  0.31046178
  C -0.17844466  0.56855355 -0.13066041
  C  0.08549900  0.78581482  1.22325098
  C  1.16668239  1.55224544  1.61105109
  C  1.99832549  2.12147315  0.65897765
  C  1.73926551  1.92354547 -0.68713588
  C  0.66141566  1.15370287 -1.08265162
  H -3.52866311  1.44890270 -3.57563404
  H -3.05075992  3.07751856 -3.03743895
  H -4.28112688  2.14892817 -2.14217658
  H -1.57232804  2.11482176 -1.53976198
  H -2.54176900 -1.72792114 -0.44203997
  H  0.98196900 -1.95909814 -0.83778356
  H  3.32355544 -2.35151506 -0.33859585
  H  2.96035235 -1.92601715  1.35234467
  H  2.98294947 -0.65968111  0.11013730
  H -0.56528885  0.36037449  1.97207576
  H  1.36007060  1.70549151  2.66131915
  H  2.84535404  2.71767003  0.96529490
  H  2.38443271  2.36542506 -1.43270771
  H  0.47540910  0.97877901 -2.13313387
