26
opt_min/./Reactant_1869_1_opt.xyz
  C  1.09703100  2.61311600 -0.02057800
  O  1.37283676  1.23353308 -0.12378026
  C  0.34228524  0.37613149 -0.18402940
  C  0.42615931 -0.97566144 -0.19780941
  C  1.57929322 -1.85827079 -0.15787524
  C  2.93156778 -1.19740806 -0.28182260
  O  1.46136023 -3.06476631 -0.03585006
  C -0.99960377 -1.48513010 -0.14182887
  C -1.50692415 -1.17702854  1.28141313
  C -1.60036481  0.35983533  1.28532067
  C -1.12293727  0.73972515 -0.13454273
  C -1.71797977 -0.40849966 -0.95579597
  H  2.06787871  3.10193810  0.07073837
  H  0.58827621  2.98798301 -0.91476289
  H  0.49212179  2.83777043  0.86393983
  H  2.93752835 -0.47935753 -1.09838974
  H  3.69553900 -1.95703183 -0.43649238
  H  3.14660099 -0.65979901  0.64030710
  H -1.11653732 -2.51920546 -0.44939024
  H -2.47927869 -1.63618473  1.45588602
  H -0.80934117 -1.55377900  2.02993612
  H -0.98515831  0.81406077  2.06229229
  H -2.62964578  0.69477616  1.42518794
  H -1.37870959  1.75135699 -0.44065201
  H -1.40893447 -0.38972620 -1.99975393
  H -2.80317954 -0.46208986 -0.88938061
