21
opt_min/./Reactant_404_0_opt.xyz
  C  3.45809798  0.67822308 -0.36223807
  C  2.69303266 -0.34800216  0.44410342
  O  3.20387193 -1.20601827  1.13670643
  C  1.29861073 -0.21683121  0.32165905
  N  0.12920428 -0.12382153  0.20873480
  C -1.14912509 -0.04904524  0.09833445
  C -1.74710754  0.99739823 -0.76283320
  C -0.75337776  1.92596953 -1.43197467
  O -2.93434024  1.09372142 -0.93782949
  C -1.99859063 -1.01532115  0.84367234
  C -1.23186439 -2.02979795  1.66128138
  O -3.20001773 -0.97692062  0.80714885
  H  3.60213140  1.56717948  0.25100079
  H  2.92788578  0.96081856 -1.26758734
  H  4.43585819  0.27188368 -0.60888957
  H -0.39097252  1.44795632 -2.34146948
  H  0.09463262  2.16075647 -0.79553188
  H -1.27058357  2.83970216 -1.71283186
  H -0.80741060 -1.54052407  2.53691646
  H -0.42073795 -2.48115077  1.09656703
  H -1.92169252 -2.80053504  1.99509969
