27
opt_min/./Reactant_5218_1_opt.xyz
  C  3.25344888  1.68070126  0.28626287
  N  2.44871315  0.48397520  0.33754282
  C  1.45242771  0.26881820 -0.54550684
  O  1.24531203  0.95943199 -1.52388969
  C  0.67336003 -1.00164240 -0.34473038
  C  1.46471988 -2.26459363 -0.27652355
  N -0.64033002 -0.96211318 -0.37073738
  C -1.42367146 -2.15729745 -0.62292462
  C -1.31234154  0.21071770 -0.10146407
  C -0.64060985  1.15280413  0.68390518
  N -0.12577890  1.87644089  1.41900638
  C -2.64125119  0.54119097 -0.55185846
  C -3.08738695  1.93896654 -0.18647302
  O -3.38802400 -0.21234745 -1.16831884
  H  3.10457900  2.28016791  1.18534520
  H  4.31014354  1.42394868  0.18581233
  H  2.93335635  2.25304357 -0.58373951
  H  2.46867886 -0.04862313  1.19250972
  H  1.84913825 -2.40436723  0.73833967
  H  0.88308297 -3.14428087 -0.53326027
  H  2.32376095 -2.20182561 -0.94445496
  H -2.41622204 -1.84248425 -0.95438271
  H -1.52037969 -2.74605876  0.29038923
  H -0.96299129 -2.75701199 -1.40568974
  H -3.12525984  2.04887815  0.89707297
  H -2.38869857  2.67799372 -0.57566327
  H -4.07688398  2.11437974 -0.60338867
