28
opt_min/./Reactant_1214_0_opt.xyz
  C  0.44399600  2.26488600  1.15073700
  N -0.33717040  1.40377614  0.52274195
  C -1.60791363  1.94432796  0.05462326
  C -0.07954478  0.10623293  0.29710086
  C  1.23051035 -0.53111984  0.29826314
  O  1.34940652 -1.74803781  0.36224253
  N  2.33110477  0.27586962  0.15861838
  C  3.64837528 -0.28808499  0.01172352
  C -1.19621139 -0.82763513  0.00464016
  C -1.38585331 -1.34065770 -1.27404195
  C -2.40622990 -2.24019438 -1.52434662
  C -3.24882996 -2.63863065 -0.50057288
  C -3.06161646 -2.14060396  0.77797706
  C -2.04062718 -1.24302670  1.03081656
  H  1.32284120  1.93458529  1.66426806
  H  0.18264951  3.30436503  1.15348965
  H -1.42351314  2.63117460 -0.77273461
  H -2.10298179  2.48902157  0.85723933
  H -2.25511060  1.14189360 -0.28968720
  H  2.21485753  1.24925518 -0.07212374
  H  3.93189719 -0.39728630 -1.04045072
  H  3.63057992 -1.27623928  0.46880792
  H  4.38141850  0.34213406  0.51616120
  H -0.71951987 -1.04121966 -2.07044882
  H -2.54352256 -2.63349749 -2.52120676
  H -4.04440323 -3.34275448 -0.69560701
  H -3.70793746 -2.45988494  1.58286211
  H -1.88631991 -0.86240576  2.03038923
