26
opt_min/./Reactant_1836_1_opt.xyz
  C  3.25318600  1.91061000 -0.05941400
  N  2.34715112  0.82918002 -0.35720651
  C  1.02041839  0.91784248 -0.08021079
  O  0.53073226  1.91021524  0.41680464
  C  0.24687030 -0.30258038 -0.40436357
  C -1.04782416 -0.59279643 -0.20372499
  C -2.23273487  0.14039327  0.27383645
  O -3.22864366 -0.42822242  0.65936255
  O -2.10690212  1.45587359  0.18716953
  C -3.21008463  2.23501315  0.62191922
  C -1.18323517 -2.08063106 -0.57028628
  C -0.44175260 -2.82153280  0.54435742
  C  0.83592957 -2.54609550  0.33605591
  C  0.84062381 -1.64462803 -0.90078468
  O -0.24948976 -2.17104136 -1.63093806
  H  3.91411357  2.09138382 -0.90714893
  H  3.85612469  1.68799357  0.82552721
  H  2.65342041  2.79836641  0.13729329
  H  2.74223238 -0.01601264 -0.73153193
  H -3.25064083  2.24802764  1.71337417
  H -3.04071378  3.23839067  0.23928154
  H -4.14465602  1.81828941  0.23819464
  H -2.17424132 -2.42399902 -0.84056218
  H -0.92112436 -3.39396261  1.31065015
  H  1.70789934 -2.83414012  0.88716967
  H  1.73757681 -1.62237522 -1.51117410
