27
opt_min/./Reactant_3010_1_opt.xyz
  C  3.30823314  0.45237279 -2.38122477
  N  2.40258577  0.70814612 -1.28667038
  C  1.94616576 -0.27495980 -0.49482663
  O  2.18279170 -1.45041754 -0.64253878
  C  1.04846702  0.23447806  0.64877696
 Br  2.27362843  1.14555096  1.93600929
  C  0.02421561  1.13361805  0.21079350
  C -1.11998369  1.45842632  0.02523402
  C -2.53991246  1.41062103  0.12226730
 Br -3.33257507  0.72709240 -1.55733843
 Br -3.34061536  3.19241078  0.48639764
  C -2.83088054  0.46225455  1.28698237
  C -2.34870955 -0.99741281  1.12342361
  C -0.95432616 -1.38348344  0.58772857
  C  0.29732420 -0.91210964  1.35765662
  H  3.16156108 -0.57491080 -2.71085087
  H  3.09614891  1.13665221 -3.20003427
  H  4.34738607  0.57484755 -2.06587210
  H  2.19174855  1.66943250 -1.06455659
  H -2.38494165  0.90573740  2.18189084
  H -3.91247563  0.41781119  1.44297376
  H -2.46517990 -1.45281831  2.10897952
  H -3.05283625 -1.49535124  0.45148112
  H -0.86656181 -1.10446687 -0.46253570
  H -0.94704737 -2.47604427  0.60780217
  H  0.99895157 -1.74685198  1.42671626
  H  0.02928531 -0.60407264  2.36900438
