24
opt_min/./Reactant_1197_1_opt.xyz
  C  3.57365400  1.10613800  0.64544600
  O  2.21522700  0.72352197  0.48024378
  C  1.95268457 -0.30893681 -0.30571165
  O  2.80122994 -0.94815716 -0.88676992
  C  0.52441777 -0.70499888 -0.45606962
  C -0.66785918 -0.26308804 -0.02302368
  C -1.88612138 -1.05307943 -0.45055620
  O -3.02510924 -0.77254045 -0.20772172
  O -1.55429074 -2.13370831 -1.17542900
  C -2.64667258 -2.92481951 -1.62422295
  C -0.99775653  0.92517605  0.83758160
  O -2.10250809  1.18620317  1.22881837
  O  0.07180856  1.66866328  1.11473017
  C -0.11776892  2.82547307  1.91611491
  H  3.76366701  1.19621689  1.71418397
  H  3.72383441  2.07211109  0.16165269
  H  4.23494747  0.36003536  0.20096653
  H  0.49366249 -1.58896507 -1.08581041
  H -3.24768347 -3.25713449 -0.77561392
  H -3.28245947 -2.34529118 -2.29653877
  H -2.20968261 -3.77286464 -2.14444973
  H  0.35062562  2.65802414  2.88675492
  H -1.18351512  3.02353565  2.04621356
  H  0.36678920  3.65977068  1.41072950
