37
opt_min/./Reactant_2454_0_opt.xyz
  C  2.92852700  3.17030000 -0.08953700
  O  2.45267397  1.83527493 -0.01331178
  C  1.19558724  1.69882089  0.40279435
  O  0.51572760  2.60062216  0.82587874
  C  0.76265664  0.26815857  0.39190830
  C  1.80159279 -0.76025982  0.43214127
  C  1.79680087 -1.79231330 -0.50835460
  C  2.80407406 -2.73744730 -0.51245612
  C  3.82374756 -2.67459882  0.42389522
  C  3.83684186 -1.65247997  1.35884433
  C  2.83893434 -0.69636090  1.36123394
  N -0.52840918  0.00631600  0.49479689
  C -1.00170160 -1.27918583  0.97470964
  C -1.42770545  0.83781155 -0.16425041
  C -2.73707404  1.16119459  0.33130875
  C -2.92140026  1.05326044  1.83713256
  O -3.64516256  1.57741590 -0.37110948
  C -0.91624844  1.26736226 -1.43084237
  C -1.87986852  1.74964816 -2.47113299
  O  0.29462177  1.17590690 -1.67398667
  H  2.31063544  3.75022996 -0.77731315
  H  3.95005044  3.10532569 -0.45477109
  H  2.89885024  3.64328247  0.89488668
  H  1.01862757 -1.82419587 -1.25670657
  H  2.79750829 -3.52334935 -1.25284116
  H  4.60904684 -3.41515809  0.42057840
  H  4.63107599 -1.59676958  2.08819441
  H  2.84992612  0.09650530  2.09377604
  H -0.18477987 -1.99621439  1.00125924
  H -1.39426179 -1.16641606  1.98546915
  H -1.79683097 -1.64811266  0.32861398
  H -3.30889458  0.07292848  2.10708677
  H -1.98591217  1.24018580  2.35723061
  H -3.65973956  1.79218267  2.13769306
  H -1.33747390  1.96026594 -3.38921992
  H -2.36971025  2.64940716 -2.10483660
  H -2.65988813  1.01357453 -2.64726614
