17
opt_min/./Reactant_3418_1_opt.xyz
  C -2.98899502  1.23838842  0.36747366
  O -1.95050696  0.30491321  0.11577712
  C -2.35874932 -0.94279197 -0.21896517
  O -3.51778620 -1.27042989 -0.29791057
  C -1.23543504 -1.83450518 -0.44811173
  N -0.02922295 -1.42892187 -0.34728810
  C  1.04612634 -0.96830370 -0.20621625
  C  2.29803343 -0.39203768  0.03189625
  C  2.14827389  1.06810790  0.42751240
  O  3.36235941 -0.96479155 -0.07958507
  H -2.50743067  2.20566757  0.48751388
  H -3.69157500  1.25988599 -0.46791251
  H -3.53078747  0.96680425  1.27613189
  H -1.42743651 -2.85622660 -0.72712015
  H  1.10682434  1.34316754  0.56900335
  H  2.58779838  1.68383508 -0.35549589
  H  2.71026814  1.24055271  1.34267112
