19
opt_min/./Reactant_1197_0_opt.xyz
  C -3.15336400  0.29755200 -0.34740100
  C -2.41013662 -1.02819852 -0.30668354
  O -2.91692436 -2.08422449 -0.58327398
  N -1.14995060 -0.89482289  0.21186073
  N -0.07214604 -0.56961233 -0.33601369
  C -0.00379935 -0.53363348 -1.80340200
  N  0.90651582 -0.20649748  0.39509461
  C  2.22437012 -0.20090262  0.02456437
  C  3.04432580  0.62594053  0.97784321
  O  2.69286756 -0.83812419 -0.89851534
  H -4.08184422  0.19193172  0.20753333
  H -3.40528392  0.51945116 -1.38320074
  H -2.56298154  1.10545749  0.07431927
  H -0.25535053  0.47009558 -2.14762450
  H  1.00874077 -0.78931512 -2.11420545
  H -0.71591383 -1.24994943 -2.20894049
  H  2.70436556  0.46325458  1.99545434
  H  4.09481592  0.36983740  0.87532264
  H  2.91027327  1.67938187  0.73764604
