22
opt_min/./Reactant_2254_1_opt.xyz
  C  2.23130300  0.93014300 -1.01352000
  C  1.51650452  1.14282389  0.28236345
  O  1.78511039  1.97865987  1.09854670
  C  0.47443497  0.08798307  0.56660696
  C  1.07941771 -1.12124170  1.25784298
  C  1.24252990 -0.92569447  2.73073051
  O  1.45663142 -2.06492401  0.62645288
  C -0.81594217  0.19132780  0.26190633
  C -1.41986805  1.41105874 -0.39935223
  F -2.06580950  2.18280082  0.48055799
  F -2.29236095  1.08079188 -1.35415516
  F -0.49428151  2.18079094 -0.98399630
  C -1.80500609 -0.92299392  0.53255264
  F -1.84131803 -1.80320172 -0.47362940
  F -1.49217347 -1.61436709  1.63750361
  F -3.04519455 -0.46917326  0.70577194
  H  2.99560807  0.16930942 -0.85293573
  H  2.71998999  1.85402232 -1.30891445
  H  1.56200734  0.58314993 -1.79449910
  H  0.33741963 -0.53230520  3.18583812
  H  2.03963060 -0.19895466  2.89126291
  H  1.52047317 -1.86897516  3.19117270
