10
opt_min/./Reactant_3515_1_opt.xyz
  O  2.88813889 -0.84774207  0.48997429
  C  2.68168294 -0.14623552 -0.38985786
  O  2.49208760  0.54765172 -1.27844269
  C -0.31412839 -0.29709865  0.46454109
  C -0.73309610  0.41968579 -0.39372991
  C -3.79770431  0.43157028  0.24993800
  O -3.66461924 -0.25930037  1.15125920
  O -3.94722908  1.13751465 -0.63823524
  H  0.04780685 -0.92552314  1.22418947
  H -1.09293206  1.05056213 -1.15242362
