29
opt_min/./Reactant_2973_1_opt.xyz
  C  2.65387500 -2.81215200  0.74879400
  O  2.54782592 -1.47744691  0.28787779
  C  1.32488325 -0.97655220  0.19576896
  O  0.25513162 -1.77533506  0.46535143
  C  0.94619581  0.29233460 -0.11590808
  C  1.85519208  1.37363893 -0.41660994
  O  3.05556644  1.24393477 -0.50562763
  O  1.22909089  2.56729117 -0.57301797
  C  2.05533567  3.67985274 -0.87110832
  N -0.46386907  0.33194112 -0.05700203
  C -1.28565080  1.30637758 -0.71531786
  C -0.93483498 -0.97644389  0.35407321
  C -1.59977929 -0.90378463  1.73772324
  C -1.85557695 -1.66015627 -0.66597399
  H  2.06235229 -2.96628195  1.65377703
  H  3.70985001 -2.96817338  0.95732021
  H  2.31788710 -3.51459118 -0.01903317
  H  1.67312506  4.53004988 -0.30809390
  H  3.08744468  3.46327064 -0.58834954
  H  2.01004029  3.89220006 -1.94165344
  H -1.19993403  2.27149781 -0.21269364
  H -2.32229629  0.98241898 -0.67266723
  H -1.00303281  1.43912719 -1.76525185
  H -0.91874450 -0.42745262  2.43737078
  H -2.51125943 -0.31733886  1.67716450
  H -1.83361556 -1.90328662  2.09178917
  H -1.40657669 -1.61726705 -1.65472929
  H -1.97826890 -2.70136820 -0.38180514
  H -2.83175845 -1.18685996 -0.69183763
