29
opt_min/./Reactant_2300_0_opt.xyz
  C  4.08350800  1.46349207  2.16331595
  O  3.11357379  0.77250253  1.39170043
  C  3.56049017 -0.29893153  0.70189193
  O  4.70364041 -0.68334980  0.70756119
  C  2.47435388 -0.92171667 -0.05529464
  C  2.77127901 -1.99447043 -0.89495963
  N  3.02353618 -2.85934775 -1.61196199
  O  1.27939729 -0.34969255  0.06607147
  C  0.13706688 -0.69050140 -0.43319239
  C -0.13820156 -2.01660755 -1.08411087
  C  0.12346502 -3.20562419 -0.19300691
  O -0.65589585 -2.10637459 -2.16826877
  C -0.94314497  0.25754249 -0.24544981
  C -2.23004326  0.01714384 -0.74977106
  C -3.23530696  0.94263501 -0.55508372
  C -2.98856368  2.11115413  0.14805080
  C -1.71959279  2.35913536  0.65230326
  C -0.70334431  1.44797396  0.46052675
  H  5.05614214  1.42427131  1.67011149
  H  3.73784740  2.49085167  2.25147601
  H  4.16631600  1.00687358  3.15152825
  H -0.75732621 -3.84346803 -0.21131863
  H  0.34909404 -2.91022988  0.82845517
  H  0.95351113 -3.79064418 -0.58915167
  H -2.42696638 -0.87998403 -1.31351192
  H -4.21996369  0.74846658 -0.95227554
  H -3.77953918  2.83011904  0.30038175
  H -1.52301582  3.27039019  1.19624725
  H  0.28253542  1.64494285  0.85200598
