27
opt_min/./Reactant_2461_1_opt.xyz
  C -4.10289600 -1.23241700  0.07437200
  N -2.68872249 -1.46956827 -0.06990512
  C -1.78126467 -0.53861291  0.28310621
  O -2.09570531  0.55597400  0.70391749
  C -0.34356653 -0.92647290  0.09741624
 Cl -0.11153737 -2.60318972 -0.34753512
  C  0.66759591 -0.07914041  0.28627457
  C  2.15170256 -0.22687232  0.08090072
  O  2.86296510  0.75537401  0.15920642
  N  2.64788223 -1.44392481 -0.22326752
  C  4.06672418 -1.64904049 -0.38426996
  C  0.42165013  1.30725791  0.89867789
  O  0.75890219  1.51001108  2.03760857
  N -0.07478435  2.22061773  0.04891515
  C -0.22385405  3.60405258  0.42258253
  H -4.59416540 -2.13952201  0.42302404
  H -4.54745625 -0.92311758 -0.87489596
  H -4.24041571 -0.43259837  0.80079596
  H -2.38822908 -2.35147899 -0.45599961
  H  2.05132406 -2.24245780 -0.37234191
  H  4.57403501 -0.73790863 -0.07311821
  H  4.31388380 -1.85673122 -1.42808383
  H  4.39348396 -2.48624718  0.23366708
  H -0.55826587  1.87362691 -0.76269715
  H  0.47634619  4.21968478 -0.14615862
  H  0.00053274  3.68523507  1.48463188
  H -1.24235566  3.94846418  0.24354089
