15
opt_min/./Reactant_3293_1_opt.xyz
  C -1.49710376  1.31023398  1.67755986
  N -0.88597173  0.41986868  1.22766769
  C -0.14007505 -0.51942289  0.75818523
  C  0.10306165 -1.76990142  1.55191123
  C  0.50522534 -0.30995848 -0.50854979
  O  1.36512321 -1.00813809 -0.99939358
  O  0.05245911  0.83856584 -1.10736970
  C  0.65621382  1.16468906 -2.34796707
  H -1.96429272  2.13557219  2.12259882
  H -0.69331872 -2.49985704  1.39568023
  H  1.03911856 -2.20595286  1.21099679
  H  0.17137145 -1.55594341  2.61789835
  H  0.14161096  0.64992047 -3.16331190
  H  1.70522195  0.86280141 -2.34877110
  H  0.56562255  2.24257333 -2.47000885
