30
opt_min/./Reactant_3144_1_opt.xyz
  F  0.37418314 -1.99515134  0.66443435
  C  0.35566784 -0.72140447  0.09421957
  C  1.76377901 -0.28689545 -0.22025425
  C  2.74039973 -1.22968981 -0.50976596
  C  4.02501022 -0.81908445 -0.81720356
  C  4.33892698  0.52923735 -0.84298265
  C  3.36367704  1.47075561 -0.55870081
  C  2.07884868  1.06572743 -0.24660305
  C -0.40637000  0.14806020  0.96347798
  C -1.36171767  0.72909618  1.40240475
  C -2.73382600  1.09067226  1.51683436
 Br -3.01183450  2.90367250  0.74179530
 Br -3.37907584  1.14534075  3.39270815
  C -3.53242314  0.05636120  0.72407748
  C -3.06908253 -0.17676495 -0.72722762
  C -1.97442773 -1.23233949 -1.02757454
  C -0.50334512 -0.80253817 -1.19402306
  H  2.49658105 -2.28097700 -0.48276229
  H  4.78305978 -1.55564188 -1.03701992
  H  5.34269815  0.84666539 -1.08083388
  H  3.60432697  2.52309019 -0.57556230
  H  1.31659706  1.79759450 -0.01862364
  H -3.50212781 -0.88939707  1.27306076
  H -4.57369055  0.39327001  0.70644993
  H -3.96407600 -0.54888978 -1.23080659
  H -2.81290247  0.77006668 -1.20311234
  H -2.24029298 -1.63128066 -2.00914107
  H -2.04263036 -2.05796069 -0.31988933
  H -0.44984181  0.16076142 -1.70485869
  H -0.00619566 -1.54316709 -1.82618671
