16
opt_min/./Reactant_487_0_opt.xyz
  C -2.91810200  0.48318800  0.57093300
  C -1.44291470  0.41109959  0.41795120
  N -0.89112158 -0.59673061 -0.18176634
  N  0.35416981 -0.91548626 -0.45822401
  C  1.36149057 -0.12898993  0.00318755
  O  1.28326807  0.87121203  0.69236009
  O  2.53525586 -0.64743655 -0.41556054
  C  3.69503619  0.05676507 -0.01129209
  H -3.23162437  1.51555548  0.69482241
  H -3.42615030  0.05624114 -0.29383168
  H -3.24022586 -0.07216360  1.45501059
  H -0.80230231  1.17204892  0.83472658
  H -1.52376391 -1.31157289 -0.55626203
  H  4.52786785 -0.63363888 -0.12435543
  H  3.84682015  0.93598434 -0.64446825
  H  3.60061268  0.38521002  1.02652460
