24
opt_min/./Reactant_1494_1_opt.xyz
  C  4.34127303  0.62008002 -0.97316690
  N  3.13186120 -0.10037113 -0.66433658
  C  3.10130483 -1.46120843 -0.60304280
  O  4.07939561 -2.15144970 -0.80399119
  C  1.78907601 -2.02987537 -0.24988782
  C  1.65838862 -3.40951339 -0.04759404
  N  1.51980879 -4.53821914  0.11288218
  N  0.72791105 -1.29415376 -0.10212304
  C -0.23723835 -0.63938301  0.04111427
  C -1.36874755  0.13845511  0.19669484
  C -1.42195695  1.43779921 -0.33525826
  C -2.55558489  2.20228986 -0.16191240
  C -3.64895124  1.69726367  0.52710059
  C -3.60294086  0.41227376  1.04864631
  C -2.47731735 -0.36839330  0.89527509
  H  4.62664996  1.27010897 -0.14315085
  H  5.12430932 -0.11767600 -1.13935310
  H  4.21439931  1.22332424 -1.87481974
  H  2.29908819  0.43974736 -0.49624280
  H -0.57263619  1.82797587 -0.87641992
  H -2.58963384  3.19983412 -0.57349733
  H -4.53266481  2.30223102  0.65592150
  H -4.45046193  0.01554670  1.58687774
  H -2.43766347 -1.36775878  1.30094480
