13
opt_min/./Reactant_546_0_opt.xyz
  C -2.68170993  0.01047986 -0.87745263
  N -1.40017564  0.44489455 -0.38013750
  C -0.38319630 -0.42014755 -0.17785607
  O -0.41621581 -1.61318587 -0.39074089
  C  0.81423016  0.19876587  0.33683438
  N  1.89339205  0.21413630  0.79990163
  N  2.91193649  0.62234129  1.32836063
  C  4.03620691  0.03086496  1.58154652
  N  5.07589449 -0.36301888  1.87660099
  H -3.47596926  0.28417407 -0.18159712
  H -2.89033376  0.45666924 -1.85191608
  H -2.64507759 -1.07330560 -0.98271238
  H -1.27675917  1.42273480 -0.16826024
