43
opt_min/./Reactant_2896_0_opt.xyz
  C -4.53591080 -0.48737171  1.25419683
  N -3.13516143 -0.55890840  0.91582517
  C -2.49251299 -1.72689426  0.76150742
  O -3.00842285 -2.81523943  0.87781754
  C -1.00699413 -1.56061795  0.35181126
  C -0.21058119 -2.53016383  1.21625141
  O  0.29944848 -2.22431738  2.26250549
  O -0.17003801 -3.74652709  0.68697368
  C  0.47706622 -4.74430744  1.46284947
  C -0.49604368 -0.22464778  0.50330200
  C  0.03010816  0.81466829  0.21510143
  C  0.81710557  1.72023579 -0.58820417
  C  1.97720261  2.32093237  0.20885319
  C  1.57957198  2.82517580  1.56634347
  O  3.09866255  2.38165816 -0.22374362
  C -0.09614421  2.80855213 -1.18121772
  C  0.58134373  4.06010926 -1.66459516
  O -1.28331825  2.63260875 -1.27112016
  C  1.32607564  0.84185461 -1.77660619
  C  1.56611162 -0.64644200 -1.44377527
  C  0.50306301 -1.70378512 -1.81771209
  C -0.90013876 -1.80614441 -1.17360683
  H -4.67190812 -0.27675111  2.31797012
  H -4.98769340 -1.45163808  1.02617464
  H -5.01690250  0.29543637  0.66994397
  H -2.62332717  0.30101202  0.77853724
  H  1.50171590 -4.44204578  1.69028819
  H -0.06117423 -4.90084398  2.39909856
  H  0.46890558 -5.65002189  0.86209998
  H  2.40961089  3.35484378  2.02727072
  H  1.30353784  1.97662569  2.19099160
  H  0.71251816  3.47821289  1.49065896
  H  0.33737106  4.21199934 -2.71530613
  H  0.17698138  4.91436405 -1.12358866
  H  1.65864451  4.02711011 -1.54238942
  H  2.28178315  1.27825989 -2.08182934
  H  0.64241558  0.92463725 -2.62450830
  H  1.84732036 -0.75109810 -0.39530871
  H  2.45457796 -0.93462738 -2.01406391
  H  0.32813652 -1.62573031 -2.89349379
  H  0.99831232 -2.66270526 -1.64258394
  H -1.27604096 -2.81300746 -1.36510063
  H -1.57413831 -1.10183828 -1.66774907
