16
opt_min/./Reactant_3537_0_opt.xyz
  C  2.62015900  0.55409900  0.77914400
  C  1.45164397 -0.16259471  0.18894215
  O  0.26460393  0.30157092  0.46628829
  C -0.89940442 -0.06429091  0.02190391
  C -2.08390956  0.65726782  0.58186112
  C -1.07029205 -1.13562934 -1.00810966
  H  2.37065332  0.90908517  1.77970906
  H  2.91481130  1.42702033  0.18895209
  H  3.46954535 -0.11755439  0.85326046
  H  1.58620407 -0.93263076 -0.55279656
  H -2.46744912  1.41494043 -0.10737263
  H -2.88617436 -0.04614827  0.79528206
  H -1.81354010  1.16261764  1.50695043
  H -0.28090280 -1.06534501 -1.75879836
  H -2.02686651 -1.02127988 -1.51173711
  H -1.03389267 -2.13852134 -0.57305614
