26
opt_min/./Reactant_2597_1_opt.xyz
  C  4.08744888 -1.87284210 -0.56976160
  O  2.97350186 -1.48693446  0.22776942
  C  1.80328669 -1.38175415 -0.38235826
  O  1.60309048 -1.54425173 -1.55356635
  C  0.71416089 -0.94520065  0.61534860
  F  0.98917658 -1.48438986  1.85335770
  C -0.62514096 -1.39149690  0.16794370
  C -1.78305377 -1.10850161 -0.06648230
  C -2.94046237 -0.22106187 -0.35432539
  F -4.12994110 -0.85661598 -0.16759265
  F -2.91090610  0.08988340 -1.68438102
  C -3.04417118  1.12646537  0.47331033
  C -1.81493647  2.09027677  0.58065945
  C -0.70939557  1.04492051  0.64849786
  C  0.76072092  0.66556642  0.77496030
  H  3.97449210 -1.48819825 -1.58486015
  H  4.15616057 -2.96139984 -0.60179049
  H  4.97067409 -1.45676185 -0.09100381
  H -3.32589045  0.80667250  1.47892026
  H -3.89898232  1.63907868  0.02661879
  H -1.73998319  2.73571699 -0.29234351
  H -1.93729282  2.70672933  1.47146912
  H -0.85668409  0.65891177 -0.35901758
  H -1.12574867  0.38535165  1.41356039
  H  1.38646414  1.09172181 -0.00818311
  H  1.20582295  0.86559646  1.74846691
