19
opt_min/./Reactant_1782_0_opt.xyz
  C  3.63345768  0.04164242 -0.48181789
  C  3.01493348 -1.23647079  0.06221201
  O  3.64165395 -2.22744371  0.38143079
  C  1.62818028 -1.09650467  0.11148004
  N  0.46471042 -0.89591492  0.13257054
  C -0.75482072 -0.49655816  0.03589191
  C -1.85403256 -1.44756390  0.39639809
  C -0.95153311  0.87626387 -0.40746926
  C -2.38631227  1.34146132 -0.47868363
  O -0.01372991  1.60218495 -0.69224894
  H  3.63925542 -0.00794032 -1.56959549
  H  4.65892299  0.11045375 -0.12880099
  H  3.06474703  0.91796446 -0.18255235
  H -2.35214834 -1.81526496 -0.50209787
  H -2.60030873 -0.96493965  1.02333225
  H -1.44444028 -2.30037526  0.93184177
  H -2.80483683  1.40013805  0.52435501
  H -2.98732821  0.65128634 -1.06513333
  H -2.41438425  2.32903748 -0.93049997
