35
opt_min/./Reactant_2996_0_opt.xyz
  C  4.43003917  0.45276273  0.59985697
  O  3.59726629 -0.57371470  0.09322588
  C  2.31388286 -0.58029627  0.53043147
  O  1.86520686  0.24342362  1.30150109
  C  1.60142239 -1.70546862 -0.02543233
  C  2.32111143 -2.72189789 -0.65560757
  N  2.87911854 -3.58420873 -1.17593673
  N  0.26757673 -1.94644877  0.15315665
  C -0.74618026 -1.19271029  0.54129557
  C -0.70095042  0.26285159  0.56174372
  C -1.31510911  0.97331106  1.59572693
  C -1.31277242  2.35359130  1.59377067
  C -0.71464791  3.04872147  0.55459103
  C -0.11363684  2.35331573 -0.48220503
  C -0.09920219  0.97303693 -0.47908562
  C -1.99211435 -1.87544931  0.86519867
  C -1.98546118 -3.17068552  1.39665545
  C -3.16995482 -3.81859033  1.68629018
  C -4.38472906 -3.19365355  1.45474726
  C -4.40600562 -1.90947285  0.93174908
  C -3.22585222 -1.25544703  0.63976372
  H  5.43515666  0.04197089  0.66343445
  H  4.07901245  0.77144514  1.58374249
  H  4.41724376  1.30818314 -0.07954208
  H  0.02667966 -2.91930973 -0.03216344
  H -1.76695184  0.43179294  2.41401372
  H -1.77651763  2.89046440  2.40804128
  H -0.71225053  4.12845770  0.55551494
  H  0.35528841  2.89027430 -1.29378324
  H  0.36562303  0.43972433 -1.29655961
  H -1.04876366 -3.66175940  1.62256176
  H -3.14440604 -4.81524442  2.10137070
  H -5.30839810 -3.70241243  1.68492101
  H -5.34916822 -1.41772416  0.74784858
  H -3.24825783 -0.26266028  0.21580019
