26
opt_min/./Reactant_5259_1_opt.xyz
  C  3.97464718  1.66738269 -1.00549978
  O  2.91574779  1.12685750 -0.23172337
  C  1.80256498  0.80010378 -0.91482293
  O  1.72476037  0.94951770 -2.11861131
  C  0.74479534  0.31728877 -0.02352576
  C  1.00387202  0.43283253  1.44329324
  N -0.40725071 -0.16922623 -0.48126151
  C -0.49551923 -0.72544996 -1.81554599
  C -1.54040261 -0.21024597  0.27750304
  C -1.68282902  0.67521025  1.35439811
  N -1.88960790  1.42304839  2.20504132
  C -2.67938106 -1.08146102  0.02451098
  C -3.84312182 -0.90855506  0.97570330
  O -2.73432887 -1.91006128 -0.87152388
  H  4.20792011  1.00996834 -1.84567780
  H  3.69620857  2.64910387 -1.39364599
  H  4.82463225  1.74943264 -0.33351989
  H  0.78055266  1.42669375  1.83289143
  H  0.39986856 -0.28671281  1.99496148
  H  2.05618393  0.23403802  1.63086549
  H -1.23746639 -0.17758233 -2.39737386
  H -0.83967814 -1.75781772 -1.74507343
  H  0.46037842 -0.67619570 -2.32041810
  H -4.51017804 -1.76009356  0.86675132
  H -3.52183899 -0.81460997  2.00871166
  H -4.38894610 -0.00540296  0.70527760
