20
opt_min/./Reactant_3771_1_opt.xyz
  C -2.01043200 -1.64774500  0.21737800
  C -1.66577998 -0.39193594 -0.49355524
  N -0.62023533  0.30854749 -0.14206122
  C -0.34197510  1.55694341 -0.85377601
  N  0.11461603 -0.03545673  0.86698825
  C  1.34372277  0.51855046  1.13839347
  O  1.59559587  1.15476109  2.13812002
  N  2.31438237  0.18026198  0.22059277
  C  3.70002383  0.52693983  0.42105514
  H -1.09558704 -2.12056023  0.56990478
  H -2.62365578 -1.44193226  1.09693739
  H -2.55909442 -2.32276328 -0.43457225
  H -2.30406884 -0.00344160 -1.26668903
  H -0.86987571  1.57964702 -1.80387975
  H -0.66339187  2.39717570 -0.23574429
  H  0.72950871  1.65277880 -1.02476340
  H  2.08442717 -0.46389294 -0.51854732
  H  3.97576427  1.41217588 -0.16167862
  H  3.83666345  0.75255789  1.47861567
  H  4.34485458 -0.30348240  0.13565511
