43
opt_min/./Reactant_2994_0_opt.xyz
  C  5.16928500 -0.51312100  1.37567800
  N  3.79847174 -0.59765908  0.94386467
  C  3.46357565 -0.76931287 -0.37757355
  O  4.33262283 -0.87313705 -1.23161345
  C  2.04397555 -0.77019980 -0.64137377
  C  1.44152868 -0.71809952 -1.91960750
  C  2.29445854 -0.69796178 -3.14928601
  O  0.19298817 -0.71118439 -1.99801922
  N  1.08749833 -1.18599364  0.30818364
  C  1.32202018 -2.38857815  1.08417723
  C -0.12279156 -0.65516199  0.11794736
  C -0.25946792  0.80667389 -0.00762430
  C  0.67042062  1.66660604  0.57260774
  C  0.50377141  3.03577918  0.49264661
  C -0.58761872  3.56792238 -0.17398109
  C -1.51225925  2.72086726 -0.76232929
  C -1.35266120  1.35107744 -0.67930810
  C -1.34860126 -1.42170674  0.38323920
  C -1.54459346 -2.66599867 -0.21754106
  C -2.71586926 -3.36749739 -0.00935920
  C -3.70798022 -2.84302872  0.80367352
  C -3.52526069 -1.60717109  1.40163818
  C -2.35841529 -0.89683425  1.18933676
  H  5.78545810 -0.89752314  0.56439456
  H  5.32263675 -1.11500236  2.27327486
  H  5.46488177  0.52032118  1.58173330
  H  3.08675671 -0.37836409  1.61927539
  H  2.92481093  0.18766389 -3.12925660
  H  1.65763658 -0.68699472 -4.03040122
  H  2.95659368 -1.55968220 -3.16620751
  H  1.81477163 -2.14304239  2.02744679
  H  1.96588947 -3.06987601  0.52805459
  H  0.37873568 -2.88012752  1.31418439
  H  1.52509952  1.26433208  1.09625471
  H  1.23052971  3.69025665  0.95097794
  H -0.71279533  4.63858929 -0.23838399
  H -2.36006209  3.13034470 -1.29111851
  H -2.05338245  0.68778975 -1.16104047
  H -0.78700352 -3.05541460 -0.88103066
  H -2.85958013 -4.32448364 -0.48858577
  H -4.62383692 -3.39236750  0.96315288
  H -4.29682465 -1.19116920  2.03223723
  H -2.21659919  0.06345963  1.66329179
