24
opt_min/./Reactant_4658_0_opt.xyz
  C  3.01111301  0.59727200  0.50124389
  O  1.65064867  0.28234255  0.26941789
  C  1.40723983 -0.78052065 -0.57789208
  O  2.30458166 -1.37831897 -1.13352003
  C  0.02402558 -1.13982792 -0.63002994
  C -0.30385386 -2.40877371 -1.11113147
  N -0.62313009 -3.43642554 -1.52204186
  N -1.01630899 -0.41025243 -0.05712649
  C -1.98674564 -1.19189015  0.69997503
  C -1.19132057  0.87571242 -0.23491340
  C -0.32780788  1.61864121 -1.17989182
  C -2.25574579  1.63367468  0.47928136
  H  3.21399387  0.49921823  1.56902042
  H  3.20133143  1.62461999  0.18273571
  H  3.64660360 -0.08954332 -0.06292260
  H -2.93490079 -1.25320111  0.16223938
  H -1.60254555 -2.20068766  0.83721589
  H -2.15099924 -0.75164900  1.68211254
  H  0.57512265  1.97301071 -0.68105716
  H -0.00846768  0.95222547 -1.98567104
  H -0.84877803  2.47909185 -1.59506134
  H -1.83745756  2.10129712  1.37390512
  H -3.09961360  1.01717269  0.77400313
  H -2.63056734  2.43214901 -0.15818603
