21
opt_min/./Reactant_4700_0_opt.xyz
  C  0.29377079  2.84150416 -1.61733405
  O  1.55708902  3.23489015 -24.34943248
  C  16.51491320 -5.75828986 -4.77079137
  O -0.87494804  4.44150337  7.11142477
  C  4.85487880 -12.45569309 -8.85103708
  N  5.24010786  2.27393259 -10.88793945
  N  2.83801613 -7.57871283 -11.05894915
  C  21.03480177 -12.95671700 -3.47825614
  C  17.88953688  7.16816024  6.21275294
  C -13.51388016  15.00299097  1.04115101
  C -17.21048681 -13.13849789  3.84142693
  C -23.58993340  29.81916135 -20.95606480
  C -5.49013079 -8.08097626 -19.76152070
  H -9.48997776 -10.11938984 -24.50093003
  H  9.15374881  0.14123600 -2.83933845
  H  9.18828458 -7.93873860 -23.13726453
  H -0.52609172  3.21419601  19.03609923
  H -50.39965501 -47.66228589 -30.76925265
  H -17.08493871 -15.38667134 -0.51498821
  H  31.64084161  49.06070574  59.78410086
  H  16.34872672 -25.61820563  16.54210936
