30
opt_min/./Reactant_2691_1_opt.xyz
  C  2.55433600 -2.70929800  0.83689200
  N  1.77339212 -1.50533823  0.71855524
  C  2.24738398 -0.39263258  0.10558170
  O  3.34668346 -0.33944678 -0.41346485
  C  1.32484194  0.75166714  0.10232741
  C -0.00408116  0.89383939  0.20494758
  C -1.09964422 -0.05697740  0.27239586
  C -1.09638787 -1.19439133 -0.53792366
  C -2.14850324 -2.08865364 -0.49042891
  C -3.21396284 -1.86762402  0.36799219
  C -3.22630289 -0.74183536  1.17450474
  C -2.18207036  0.16263646  1.12426313
  C -0.22153002  2.42126090  0.11109328
  C  0.08122163  2.75606682 -1.35000808
  C  1.39126933  2.61038191 -1.46248326
  C  1.85474934  2.18778197 -0.06862142
  O  0.94487099  2.90148027  0.75497078
  H  1.99371284 -3.56482426  0.45645476
  H  3.45851852 -2.57125133  0.24631881
  H  2.83174882 -2.89893948  1.87680325
  H  0.87174797 -1.47746309  1.16600150
  H -0.27128314 -1.35475772 -1.21625611
  H -2.14034229 -2.96103954 -1.12713349
  H -4.03454622 -2.56862400  0.40570997
  H -4.05477091 -0.56568429  1.84509278
  H -2.18756815  1.03373879  1.76236890
  H -1.13075403  2.82528823  0.54038867
  H -0.66533205  3.01162830 -2.07405198
  H  2.04472766  2.71610498 -2.30300986
  H  2.89180901  2.35163019  0.19529939
