30
opt_min/./Reactant_3887_1_opt.xyz
  C -1.74161800 -1.51296100 -1.35109100
  C -2.49134438 -0.52104298 -0.49822539
  O -3.70622182 -0.58160302 -0.44834386
  C -1.73646544  0.52519859  0.21202856
  C -2.45024408  1.75939692  0.61333800
  C -3.87200940  1.62623236  1.06685903
  O -1.90712714  2.85082580  0.57132039
  N -0.39715573  0.46448148  0.36545493
  C  0.28987506  1.53548132  1.08678805
  N  0.24762590 -0.58150800  0.02967912
  C  1.61195864 -0.70554170  0.01081962
  C  2.46738226  0.23257441 -0.58120311
  C  3.81792357 -0.03458682 -0.69233674
  C  4.34358861 -1.22065908 -0.20869749
  C  3.50184354 -2.16138588  0.36631958
  C  2.14893889 -1.91718703  0.46405331
  H -1.24277489 -2.24664286 -0.72399612
  H -2.46778205 -2.01830434 -1.98502260
  H -0.98649645 -1.02673669 -1.96240198
  H -4.50918448  1.42705045  0.20736292
  H -3.98991331  0.79357339  1.75407232
  H -4.17796416  2.55949114  1.53481935
  H  1.25745820  1.16417040  1.42345657
  H -0.29938075  1.85263553  1.94398751
  H  0.42776300  2.40172684  0.44212484
  H  2.06416566  1.14583236 -0.99407829
  H  4.46443985  0.69331753 -1.15987641
  H  5.40188156 -1.41670478 -0.28908751
  H  3.90413016 -3.09343885  0.73441651
  H  1.48002908 -2.63948225  0.90589709
