10
opt_min/./Reactant_3393_1_opt.xyz
  O  0.57070800 -1.07194100 -1.68502200
  C  1.45738461 -0.23841808 -1.08665417
  O  2.54641020 -0.16250768 -1.57180826
  C  0.99564985  0.49635031  0.10568096
  C -0.24536799  0.33774924  0.56591494
  C -1.18651172 -0.57725812 -0.10709289
  O -0.73540850 -1.23968644 -1.19962135
  O -2.31443203 -0.78498574  0.22937553
  H  1.72339236  1.15175554  0.55918925
  H -0.63137736  0.85129005  1.43299428
