31
opt_min/./Reactant_1535_1_opt.xyz
  C -3.01207669  1.77565131 -1.46936380
  C -3.03285629  0.34471517 -1.01543444
  O -3.83507408 -0.46917074 -1.38801172
  C -1.93353027 -0.01002422 -0.01281979
 Cl -2.66171621  0.48028813  1.57494444
  C -0.66916409  0.63580452 -0.21212126
  C  0.50082396  0.85008729 -0.38518778
  C  1.90390640  0.51005087 -0.22176630
  C  2.57881409  1.46063581  0.78678496
  C  2.62996278  0.54840195 -1.56859333
  C  1.83543923 -0.94814761  0.32384312
  C  0.74485525 -1.20585418  1.38663584
  C -0.51534187 -2.00057462  0.97825511
  C -1.58468089 -1.50214105 -0.02374627
  H -2.26772562  1.86560802 -2.26034411
  H -2.72400641  2.43786640 -0.65728147
  H -3.98335961  2.05655541 -1.86786984
  H  2.78767938  0.94594740  1.72065525
  H  3.51567323  1.84198029  0.38952905
  H  1.93580195  2.30836517  1.01091637
  H  2.52180842  1.53062709 -2.02350640
  H  2.21704262 -0.19297071 -2.24941174
  H  3.68950506  0.34115455 -1.43391734
  H  1.69615335 -1.63400899 -0.51256430
  H  2.80897730 -1.17405221  0.76529449
  H  1.20301262 -1.81944394  2.16820036
  H  0.45531748 -0.26899018  1.86164767
  H -1.03162831 -2.21202795  1.91906327
  H -0.17049613 -2.95831986  0.58072023
  H -2.49136016 -2.07738750  0.17459832
  H -1.26465938 -1.73228094 -1.04345623
