28
opt_min/./Reactant_2346_0_opt.xyz
  C -0.81758203  3.98555124  0.57609689
  N -0.95282771  2.55993359  0.38792933
  C  0.11488735  1.79395565  0.06843875
  O  1.24105737  2.24622643 -0.06625620
  C -0.15339285  0.33797930 -0.06355862
  N  0.91135896 -0.38504779 -0.02673794
  C  2.02051077 -0.79585382  0.00940315
  C  3.37213687 -1.11029758  0.01435165
  C  4.13843854  0.20391123  0.17903990
  O  3.89873691 -2.19980873 -0.08218705
  C -1.45991395 -0.29346329 -0.18621193
  C -2.49675201  0.31425461 -0.89904849
  C -3.72551567 -0.30872791 -1.01116794
  C -3.94177570 -1.54561248 -0.42668679
  C -2.91221523 -2.16705590  0.26221345
  C -1.68260489 -1.55093225  0.38138342
  H -1.65636238  4.35894291  1.15711306
  H -0.78643576  4.50024034 -0.38770271
  H  0.11705811  4.19268437  1.09978208
  H -1.83714700  2.12180272  0.58502150
  H  3.49302573  1.06935850  0.04574744
  H  4.94561262  0.22031705 -0.54936086
  H  4.57166347  0.22410499  1.17741605
  H -2.32543264  1.25746901 -1.39707542
  H -4.51753886  0.17038181 -1.56804226
  H -4.90324919 -2.02798484 -0.51592364
  H -3.06804017 -3.13680303  0.71086110
  H -0.88097519 -2.03374690  0.92198456
