26
opt_min/./Reactant_4046_1_opt.xyz
  C  4.41618600  0.14737700 -0.84355200
  N  3.14344081 -0.50816838 -0.68863254
  C  2.04731890  0.16493253 -0.25576775
  O  2.10007141  1.34686711  0.07065476
  C  0.79571875 -0.58423105 -0.14764739
  C  0.73885217 -2.07513035 -0.24511050
  N -0.22323550  0.19396482  0.16742755
  C -1.54032803  0.11986076  0.31315573
  C -2.39358999 -1.06095464 -0.01597559
  C -2.12027446  1.36856680  0.76449224
  C -3.61324111  1.42595399  0.96120937
  O -1.39947591  2.33733676  0.98677611
  H  5.21014918 -0.46144397 -0.40968343
  H  4.36039486  1.10311951 -0.32577733
  H  4.63803859  0.33106583 -1.89904715
  H  3.05925371 -1.45220949 -1.01851218
  H  1.67379605 -2.50247733  0.11772747
  H -0.05409871 -2.46822373  0.38590750
  H  0.58129738 -2.42382198 -1.26842252
  H  0.10878990  1.17816597  0.33952320
  H -3.18182232 -0.76305376 -0.71008284
  H -2.87649318 -1.45801288  0.87655843
  H -1.82237925 -1.85326042 -0.48647904
  H -3.88482479  2.40547071  1.34400201
  H -4.12185971  1.25905860  0.01375396
  H -3.93357873  0.66118912  1.66480431
