45
opt_min/./Reactant_2166_0_opt.xyz
  C  3.99166120  3.13362529 -0.54501631
  N  3.37199848  1.93594559 -0.03615220
  C  2.66880659  1.09416382 -0.81106187
  O  2.58566352  1.16958667 -2.01984684
  C  1.92633720 -0.00635581 -0.00212292
  O  2.40229320 -0.06529843  1.34698728
  C  3.51464822 -0.87988805  1.62391910
  C  0.51969306  0.44368427  0.12905217
  C -0.67744640  0.46725678  0.35804963
  C -1.89946002 -0.35858480  0.44580661
  C -2.84144270  0.26998680 -0.60813884
  O -3.59646660  1.17907298 -0.32560537
  N -2.70050568 -0.21017349 -1.85557676
  C -3.43159631  0.33325083 -2.97485405
  C -2.57517751 -0.20107510  1.82328434
  O -2.99879540 -1.14854327  2.44995605
  N -2.60795899  1.06873143  2.25822371
  C -3.32210294  1.44291036  3.45368606
  C -1.56277704 -1.91966279  0.20625447
  C -0.08887414 -1.90336452 -0.17225615
  C  1.20460337 -2.61601549 -0.54035542
  C  2.09413852 -1.35749612 -0.83474789
  H  4.16403468  2.99245687 -1.61109141
  H  3.34826474  4.00592429 -0.40444693
  H  4.94135831  3.30028633 -0.03793967
  H  3.26179560  1.83048211  0.96377849
  H  3.77198431 -0.66720692  2.66144551
  H  4.37411996 -0.63487126  0.98867039
  H  3.28000150 -1.94294362  1.52951542
  H -1.99365113 -0.89881527 -2.05517935
  H -3.91099193 -0.46844294 -3.53772201
  H -4.19152018  1.00481713 -2.57923390
  H -2.76791365  0.89230793 -3.63810838
  H -2.39773546  1.80181833  1.59698744
  H -4.32802526  1.80035063  3.22002023
  H -2.77480187  2.22609400  3.97786305
  H -3.39876195  0.56021532  4.08640195
  H -1.77328626 -2.43540721  1.14249610
  H -2.22919826 -2.31967105 -0.55830720
  H  0.28643966 -1.43347088  0.73560956
  H -0.12531636 -1.20301954 -1.01026936
  H  1.16318098 -3.22842010 -1.44257336
  H  1.61093591 -3.21998068  0.27089730
  H  3.15335811 -1.61271945 -0.77886489
  H  1.89906495 -1.04377731 -1.86341427
