30
opt_min/./Reactant_2097_1_opt.xyz
  F -0.73052800 -3.24151800  0.38704500
  C -0.62214706 -2.51207803 -0.75026345
  F  0.63596409 -2.69692583 -1.18497875
  F -1.42047989 -3.12044027 -1.64810841
  C -0.99645200 -1.08972487 -0.55853438
  C -0.22859943 -0.00709789 -0.36961052
  C  1.21137609  0.10414666 -0.18962295
  C  1.92258247  1.12474186 -0.81821258
  C  3.28728058  1.23417885 -0.63668721
  C  3.96066950  0.34217288  0.18125416
  C  3.25882933 -0.66803092  0.81817942
  C  1.89475895 -0.78888295  0.63408674
  C -1.18569197  1.15355355 -0.20489785
  C -1.82768993  0.93879478  1.18415888
  C -2.71056999 -0.30622033  0.97231176
  C -2.44414156 -0.65836467 -0.51175344
  C -2.33214110  0.73604788 -1.12865046
  H  1.40579882  1.81468222 -1.46799994
  H  3.83318246  2.02216664 -1.13491020
  H  5.02731781  0.43361039  0.32117315
  H  3.77543075 -1.36572232  1.45946624
  H  1.35008838 -1.57155008  1.14007625
  H -0.74976523  2.14026225 -0.34811703
  H -2.42604717  1.80734920  1.45503810
  H -1.07311041  0.79257418  1.95390615
  H -3.76422558 -0.08261047  1.12571072
  H -2.43755538 -1.12791040  1.63167968
  H -3.15586441 -1.35260679 -0.95285091
  H -2.04588725  0.71392079 -2.17812681
  H -3.22889572  1.33782407 -1.00253099
