23
opt_min/./Reactant_4898_0_opt.xyz
  C  3.39428599  2.02384905  0.69863289
  C  2.00040464  2.49926107  0.36883381
  O  1.73064346  3.67684218  0.19705803
  C  0.96263320  1.49930870  0.27507939
  O  1.24843036  0.23832096  0.41107626
  C  0.45120668 -0.79502417  0.34210244
  C  1.09858389 -2.04437146  0.36149313
  N  1.60235587 -3.07730366  0.32071759
  C -1.00531600 -0.78383352  0.23189860
  C -1.63615330 -1.75963101 -0.54460846
  C -3.01320785 -1.79007587 -0.64373396
  C -3.78354930 -0.85992157  0.03691334
  C -3.16731935  0.09412510  0.83064899
  C -1.79073256  0.13653313  0.93211644
  H  3.63939670  2.33846774  1.71218580
  H  3.48647708  0.94481880  0.62399268
  H  4.10239970  2.50566617  0.02772666
  H -0.04499529  1.82172961  0.04349902
  H -1.03674063 -2.48362736 -1.07659358
  H -3.48742428 -2.54404412 -1.25339687
  H -4.85931046 -0.88601034 -0.04557396
  H -3.76524614  0.80685018  1.37860631
  H -1.33121807  0.86180263  1.58827362
