24
opt_min/./Reactant_1903_1_opt.xyz
  C  3.60610100  0.71727300 -0.84855800
  N  2.36982329  0.08564012 -0.46243692
  C  1.21291722  0.78717701 -0.33139472
  O  1.17750068  1.98707546 -0.56165551
  C  0.05848372 -0.01530361  0.07501711
  C -1.27782241  0.19896850  0.07707234
  O -2.14135835  1.15937516 -0.19541368
  C -1.70326247  2.49025646 -0.44119744
  C -1.89973875 -1.14922468  0.51190190
  C -1.65720834 -2.09185963 -0.66442179
  C -0.35351499 -2.31892161 -0.64453356
  C  0.16184560 -1.49444689  0.53515739
  O -0.92825029 -1.58772567  1.43652615
  H  4.35436143  0.62409316 -0.05822419
  H  3.39202428  1.77080727 -1.01867996
  H  3.99694901  0.27161214 -1.76524330
  H  2.38372687 -0.90725146 -0.30891895
  H -2.52741541  2.98058412 -0.95535940
  H -0.79631169  2.51749386 -1.03991841
  H -1.50794206  2.99433013  0.50838430
  H -2.89842592 -1.09502619  0.93230004
  H -2.42087745 -2.42913426 -1.33394949
  H  0.26878652 -2.90162371 -1.29243198
  H  1.08176014 -1.80828348  1.01944092
