19
opt_min/./Reactant_553_0_opt.xyz
  C  2.98419082  0.16824385 -1.30879345
  N  1.64867292  0.56024306 -0.92309675
  C  0.83879518 -0.30723679 -0.26999677
  O  1.20636001 -1.44158067  0.03386417
  C -0.50694953  0.14158098  0.07827381
  C -1.05291999  1.50800441 -0.16418842
  N -1.21942592 -0.82158059  0.64641153
  C -2.47023903 -0.86869987  1.08488723
  C -2.97132459 -2.01173691  1.68538043
  N -3.39120031 -2.96310691  2.18360839
  H  3.49841954  1.01661282 -1.75121539
  H  2.94885536 -0.65454434 -2.02741075
  H  3.53294065 -0.17950500 -0.43177321
  H  1.30488016  1.45815096 -1.21254972
  H -1.86235872  1.72015700  0.53212721
  H -0.28312440  2.26329127 -0.01093864
  H -1.44316626  1.61508234 -1.17860756
  H -0.65736007 -1.68242971  0.74245426
  H -3.11572064 -0.01046150  0.98587962
