24
opt_min/./Reactant_5606_1_opt.xyz
  C  3.43555060  2.06130552 -0.43520652
  O  2.15173314  1.52129264 -0.68791276
  C  1.70582804  0.58661767  0.19300702
  O  2.38210323  0.23785004  1.14736405
  C  0.42092823  0.06692232 -0.21137227
  C -0.17936005  0.63444599 -1.46669562
  N -0.23844353 -0.86784917  0.50669517
  C -0.05950579 -0.92126198  1.95432136
  C -1.11869263 -1.74503948  0.00984218
  C -1.23219637 -2.13208035 -1.43261834
  C -1.97081759 -2.41403161  0.88500855
  N -2.70612889 -2.98321997  1.56794678
  H  3.34128345  2.98360188  0.14295763
  H  3.88724706  2.27378457 -1.40247511
  H  4.04106078  1.34670131  0.12583939
  H -1.23819144  0.40557269 -1.52826286
  H  0.32285498  0.29515641 -2.37222174
  H -0.06656531  1.71778221 -1.43539375
  H -0.89818701 -0.41719619  2.43788309
  H -0.03163424 -1.95559693  2.29368181
  H  0.86882586 -0.43024098  2.22868677
  H -1.39585479 -3.20996447 -1.48721406
  H -2.07328761 -1.65492322 -1.93739466
  H -0.31105582 -1.89584248 -1.95876652
