32
opt_min/./Reactant_2708_0_opt.xyz
  C -1.43421100  1.95579900  2.79652200
  N -1.49726213  1.50117607  1.43275061
  C -0.47376246  0.88216447  0.83550466
  O  0.61841660  0.67530083  1.36347220
  C -0.74720729  0.36373909 -0.52446087
  O  0.20526724 -0.16109694 -1.24593444
  C  1.50110878 -0.08622376 -1.13320157
  C  2.19863521 -0.93710641 -2.10791222
  C  3.69655303 -0.83025063 -2.14027135
  O  1.56169468 -1.67220709 -2.83951692
  C  2.16147156  0.97487163 -0.30199774
  O  1.88380212  2.13924609 -0.47247341
  O  3.17698945  0.52017650  0.42178504
  C  3.82920088  1.48966167  1.23244905
  C -2.11496363  0.14660329 -1.05021722
  O -3.11042375  0.61038144 -0.50113556
  N -2.17006036 -0.55894144 -2.19440589
  C -3.41177982 -0.85953974 -2.86010211
  H -0.40308762  1.87115032  3.13636833
  H -1.75527408  2.99630885  2.85389184
  H -2.07616361  1.34918017  3.43852711
  H -2.39231027  1.48257959  0.94458620
  H  4.08595703 -1.47340729 -2.92472278
  H  3.99251847  0.19975609 -2.32580581
  H  4.10446617 -1.13043385 -1.17840721
  H  4.21120006  2.30603338  0.61561500
  H  4.64166753  0.96976059  1.73289397
  H  3.12313388  1.89100417  1.96026906
  H -1.32145269 -0.94309090 -2.58371728
  H -3.57218643 -1.93802651 -2.90275660
  H -4.21598583 -0.39527642 -2.29183514
  H -3.40520962 -0.45983356 -3.87525549
