33
opt_min/./Reactant_5911_1_opt.xyz
  C  4.68052400 -0.10570400  0.00810200
  C  3.30321927 -0.72016374  0.09318691
  O  3.12834651 -1.92865785  0.28228195
  C  2.19271173  0.15079667 -0.07872766
  N  1.00058731 -0.45005897  0.01303673
  C -0.24396117 -0.01914115 -0.04864816
  C -1.33945301 -0.92885866  0.20907287
  C -2.62607421 -0.63961338 -0.26938461
  C -3.67817425 -1.50158020 -0.04239107
  C -3.48607674 -2.67965353  0.66121119
  C -2.21923940 -2.98448864  1.13430749
  C -1.16114538 -2.12734465  0.91552504
  C -0.50206141  1.38949518 -0.38516462
  C  0.06477932  1.96981949 -1.51962160
  C -0.18411132  3.29313966 -1.82980065
  C -0.99519508  4.06061674 -1.00944884
  C -1.56658166  3.49391120  0.11845874
  C -1.32632515  2.16870512  0.42672645
  H  4.67898545  0.91585847  0.37855247
  H  5.38371464 -0.71073729  0.57497104
  H  5.00005215 -0.09720712 -1.03374246
  H  2.26662284  1.21295370 -0.21749860
  H  1.15489393 -1.45504371  0.18541676
  H -2.78524939  0.26149198 -0.84149567
  H -4.66019540 -1.25664009 -0.42241317
  H -4.30990866 -3.35372406  0.83788867
  H -2.05634518 -3.89974933  1.68498731
  H -0.19395179 -2.38784102  1.32295422
  H  0.67608469  1.36643219 -2.17572600
  H  0.25284499  3.72830688 -2.71650150
  H -1.18489351  5.09596009 -1.25062739
  H -2.19963010  4.08851073  0.76046472
  H -1.76526635  1.72697937  1.31043040
