35
opt_min/./Reactant_2551_0_opt.xyz
  C  5.03191800 -0.37701200 -0.47662700
  O  3.81583986  0.11620867  0.05620591
  C  2.71725281 -0.11227384 -0.70287891
  O  2.79286416 -0.72646886 -1.75016428
  C  1.51757466  0.46788653 -0.11348913
  C  1.66860933  1.29326341  1.10762285
  N  0.31158587  0.27487733 -0.66411471
  C  0.13214108 -0.80784235 -1.61919572
  C -0.77447151  1.03915060 -0.37665369
  C -0.65202642  2.44503834 -0.09683840
  C -1.84203369  3.14102907  0.53693104
  O  0.36760278  3.08360012 -0.35694829
  C -2.10976269  0.41761830 -0.43587783
  C -2.39547801 -0.66850734  0.39247178
  C -3.64898408 -1.25133861  0.38164526
  C -4.63564523 -0.76365859 -0.45838224
  C -4.35892692  0.30479989 -1.29615678
  C -3.10690968  0.88960310 -1.28878886
  H  4.97749876 -1.45908087 -0.61736574
  H  5.80299111 -0.12265617  0.24589220
  H  5.24099028  0.08950639 -1.44181753
  H  2.54300143  0.97639559  1.66624091
  H  1.78029264  2.35373498  0.84310017
  H  0.76971930  1.22732152  1.72279611
  H -0.92684244 -0.97245670 -1.79506394
  H  0.59411721 -1.72310642 -1.25455182
  H  0.61577307 -0.54026036 -2.55906903
  H -2.04242112  2.69507507  1.51009762
  H -1.59466111  4.19105175  0.66859951
  H -2.74074018  3.05562343 -0.06376418
  H -1.62801049 -1.04894600  1.05197759
  H -3.85705469 -2.08691306  1.03368010
  H -5.61539290 -1.21713677 -0.46483506
  H -5.12143053  0.67895418 -1.96332284
  H -2.88459868  1.70616561 -1.96048278
