20
opt_min/./Reactant_4228_0_opt.xyz
  C  4.23224500 -0.01347800 -0.97369700
  C  2.81589955  0.45405900 -0.77314260
  O  2.42027911  1.57724032 -0.99070001
  N  2.03455655 -0.57630004 -0.28367056
  O  0.77576236 -0.19891575 -0.11622224
  N -0.03485315 -1.08703731  0.36383183
  C -1.31746098 -0.66303009  0.53417338
  C -2.20976960 -1.61797603  1.04565433
  C -3.52942758 -1.27977861  1.25266258
  C -3.97810364  0.00087573  0.95753909
  C -3.10047912  0.95199485  0.45027538
  C -1.77822856  0.63340512  0.23650832
  H  4.25154493 -1.07714058 -1.18369646
  H  4.69317285  0.55327381 -1.77726394
  H  4.78983499  0.17010021 -0.05759147
  H -1.83767435 -2.60502117  1.26632633
  H -4.21663944 -2.01349750  1.64583498
  H -5.01300141  0.26035743  1.12207482
  H -3.45611255  1.94556367  0.22250085
  H -1.08770053  1.36469509 -0.15648185
