24
opt_min/./Reactant_2674_0_opt.xyz
  C -4.90679700  0.12120900  0.19642900
  N -3.63402968 -0.53371140  0.37852101
  C -2.46290824  0.14619388  0.24158906
  O -2.41607061  1.32402093 -0.09198407
  C -1.25587670 -0.62288413  0.48353342
  N -0.11863250  0.02619714  0.32558800
  C  1.14840596 -0.34154242  0.43844193
  C  1.54597422 -1.73450223  0.79305127
  C  2.10547097  0.71928904  0.21041424
  O  1.78453660  1.86149893 -0.06353650
  O  3.39133650  0.31838108  0.33261694
  C  4.36881531  1.32363543  0.12408694
  H -5.65983205 -0.60990152 -0.08882616
  H -4.80031152  0.86952148 -0.58881018
  H -5.22412493  0.63144106  1.11076832
  H -3.62365992 -1.49373939  0.67703312
  H -1.26976160 -1.65630267  0.77999739
  H -0.25785857  1.01787309  0.06164233
  H  1.49234461 -1.89915879  1.87031565
  H  2.57036358 -1.90926376  0.47616547
  H  0.89230607 -2.45408334  0.30188696
  H  4.42749406  1.98089767  0.99490892
  H  4.11496938  1.92414702 -0.75190398
  H  5.31494206  0.80718659 -0.02223490
