19
opt_min/./Reactant_1895_0_opt.xyz
  C  3.15890542  1.70912669 -0.77032121
  N  1.90790850  1.02287935 -0.56481179
  C  1.21362208  0.47943540 -1.59558222
  O  1.59420250  0.49346589 -2.74754760
  C -0.07008241 -0.15397218 -1.19540042
  C -0.84173823 -0.77915428 -2.18319425
  N -1.44600344 -1.29413896 -3.01526139
  O -0.40853148 -0.09801690  0.07388056
  C -1.48024623 -0.53657301  0.66962912
  C -1.55601245 -0.30741081  2.15060545
  C -2.54438016 -1.20292602  0.05989651
  N -3.47541433 -1.74397040 -0.34807118
  H  3.05293859  2.78172258 -0.59433913
  H  3.45233413  1.54595669 -1.80533190
  H  3.92433018  1.30989564 -0.10525243
  H  1.53133629  1.00536955  0.36890969
  H -2.52692154 -0.62299562  2.52070337
  H -1.41736314  0.74958204  2.37934970
  H -0.78538237 -0.87554058  2.67202088
