14
opt_min/./Reactant_1073_0_opt.xyz
  C  2.73093021  0.03459090  0.68859426
  C  1.80948010 -1.02555501  0.14455077
  O  2.15559323 -2.12709630 -0.19997698
  C  0.44068110 -0.57770858  0.07128244
  C -0.71149123 -0.21777849  0.00447048
  C -2.08622608  0.20633370 -0.05798438
  C -2.53379637  0.55367611 -1.45738575
  O -2.79433137  0.26699774  0.91588567
  H  2.60969724  0.95801013  0.12404659
  H  2.46144082  0.23558953  1.72519453
  H  3.76124155 -0.30789090  0.63874576
  H -3.31001675 -0.14903526 -1.75866691
  H -2.97689437  1.54926511 -1.44959713
  H -1.71018904  0.51443994 -2.16349654
