21
opt_min/./Reactant_4513_0_opt.xyz
  C  3.85027700 -0.24217900  0.10017000
  N  2.43798421 -0.42343153  0.30640169
  C  1.50670185  0.13522584 -0.49296500
  O  1.75637567  0.79125504 -1.48634226
  N  0.24461161 -0.12037969  0.04645685
  N -0.85702729  0.02892507 -0.55734171
  C -0.97399837  0.20695966 -2.00424963
  N -1.91130790  0.02425806  0.15601872
  C -3.15903787 -0.32385904 -0.27168786
  C -4.23419709  0.22388130  0.62687218
  O -3.36730628 -1.07345950 -1.20509671
  H  4.28572867  0.37801147  0.88758221
  H  4.35812402 -1.20810415  0.08283482
  H  3.98060421  0.25596997 -0.86067571
  H  2.11153857 -0.87590018  1.14561784
  H -0.01413663  0.50455180 -2.42199235
  H -1.72758534  0.96644009 -2.21259420
  H -1.31629835 -0.73690474 -2.43367735
  H -4.92545317 -0.57260284  0.89295372
  H -3.79716851  0.66188345  1.51757981
  H -4.79199605  0.98356391  0.08011867
