34
opt_min/./Reactant_2969_1_opt.xyz
  C  0.71075266  3.20320064 -0.18153062
  O  0.52665006  2.18527440 -1.13460657
  C  0.35789309  0.86495747 -0.68992230
  C  1.62363883  0.04206157 -0.65440113
  C  1.63811944 -1.24500721 -1.18117417
  C  2.78199278 -2.01927036 -1.11988228
  C  3.93069550 -1.51934344 -0.53023598
  C  3.92323732 -0.24225126  0.00106986
  C  2.77751430  0.53219530 -0.05588644
  C -0.73387368  0.21565503 -1.51609891
  C -1.85366172 -0.24891497 -1.36878990
  C -2.92679205 -0.73161587 -0.51085247
 Cl -2.57867987 -2.46514668 -0.15704000
 Cl -4.52228576 -0.65387576 -1.34346786
  C -3.14570327  0.00520850  0.88162849
  C -2.16829556 -0.02620197  2.10756375
  C -0.84476111  0.81612561  2.08030609
  C -0.55459352  0.65597779  0.59554884
  H  0.30958101  4.11407401 -0.62891765
  H  0.17759159  2.99690191  0.74783407
  H  1.77054915  3.36615252  0.04275741
  H  0.74728034 -1.63611137 -1.65049642
  H  2.77654007 -3.01541506 -1.53669212
  H  4.82557983 -2.12199671 -0.48522627
  H  4.81250276  0.15709159  0.46677351
  H  2.79044799  1.51959495  0.37692796
  H -3.41660935  1.03675425  0.64436767
  H -4.04857564 -0.48949000  1.25048044
  H -2.77001143  0.30569511  2.95551229
  H -1.90139281 -1.07033939  2.27856526
  H -0.11475320  0.37367281  2.75738924
  H -1.03283950  1.84380652  2.39349182
  H -0.66279100 -0.42416583  0.52328634
  H -1.43042419  1.17974004  0.22466282
