21
opt_min/./Reactant_1663_0_opt.xyz
  C  3.18927418  0.72719187 -1.11698759
  N  2.02125821  0.22566316 -0.43819469
  C  0.84989649  0.88328644 -0.46068655
  O  0.72190564  1.99406638 -0.96696135
  C -0.29046529  0.18340398  0.19130452
  N -1.46843843  0.82852764  0.31628225
  C -1.82451209  2.05409262 -0.00815908
  C -3.11198963  2.50015962  0.26827915
  N -4.17908024  2.86750938  0.49841233
  C -0.23368760 -1.19005386  0.64264470
  C -1.50457292 -1.81001512  1.20340138
  O  0.78246899 -1.87561737  0.58825765
  H  3.46478526  0.07497812 -1.94811241
  H  4.02659635  0.78762566 -0.42020459
  H  2.96176951  1.72141710 -1.49904378
  H  2.02588032 -0.73345737 -0.10188435
  H -2.20411127  0.27126184  0.75250571
  H -1.11522395  2.70281647 -0.50269848
  H -1.85963214 -1.28429821  2.08884305
  H -1.26931784 -2.83223704  1.48959411
  H -2.29063591 -1.84079920  0.44943390
