34
opt_min/./Reactant_2903_0_opt.xyz
  C -0.96432900  3.57501100 -2.65663800
  N -0.43383180  2.52997475 -1.81249728
  C -1.23555354  1.55695716 -1.32951914
  O -2.42311572  1.48463727 -1.57966443
  C -0.52225001  0.55664559 -0.46637107
  O  0.75252675  0.48380940 -0.70029877
  C  1.66975615 -0.08637247  0.13261752
  C  1.44227638  0.07831399  1.55027523
  C  2.50310661 -0.41537923  2.48763238
  O  0.44741203  0.68678992  1.93645033
  C  2.90858168 -0.47988444 -0.49903924
  C  2.89245898 -0.44222860 -2.01601953
  O  3.89951774 -0.83899562  0.11474226
  C -1.31046104 -0.31662790  0.37489026
  C -2.51025170  0.13818701  0.93600604
  C -3.29813960 -0.71590774  1.67976848
  C -2.91727884 -2.03515960  1.86886995
  C -1.73407732 -2.49834590  1.31141695
  C -0.92937023 -1.64938080  0.58346578
  H -1.55463567  3.13107327 -3.45901240
  H -0.14663380  4.15332184 -3.07661223
  H -1.62059430  4.23322104 -2.08241411
  H  0.53445509  2.56466563 -1.54189852
  H  2.61074286 -1.49180304  2.38046903
  H  3.46406418  0.02729542  2.23761329
  H  2.22273033 -0.16412962  3.50669649
  H  2.95917239  0.59344161 -2.34613143
  H  1.98101282 -0.87498944 -2.41910065
  H  3.75746342 -0.98213644 -2.39076717
  H -2.80220326  1.16629169  0.80142041
  H -4.21510835 -0.35185579  2.11781344
  H -3.53392571 -2.70083696  2.45390268
  H -1.43472396 -3.52657020  1.45056549
  H -0.01303948 -2.02555595  0.15023357
