18
opt_min/./Reactant_2096_1_opt.xyz
  C -3.87942600  0.17026800 -0.59090400
  O -2.48588738  0.05215908 -0.31742304
  C -2.05747542 -1.09643575  0.19144517
  O -2.73483069 -2.05407367  0.44466925
  C -0.56818495 -1.07710350  0.41644713
  F -0.11294514 -2.21904871  0.91953561
  C  0.28769151 -0.07141312  0.17104714
  F -0.15556472  1.08096895 -0.33415587
  C  1.76549797 -0.12137370  0.42241698
  O  2.34878264 -1.06945036  0.87021052
  O  2.32807340  1.03143978  0.07227289
  C  3.73425688  1.11880422  0.25832778
  H -4.33403115  0.80774743  0.16830737
  H -3.97604083  0.63479345 -1.57104506
  H -4.35137719 -0.81334237 -0.58068515
  H  4.24374973  0.37198744 -0.35323656
  H  4.01461738  2.12354164 -0.04652689
  H  3.98896556  0.94635693  1.30599025
