23
opt_min/./Reactant_574_0_opt.xyz
  C -4.11207340  1.10686292 -1.20011065
  N -2.85028586  0.52017611 -0.81472546
  C -2.58662094 -0.78517507 -1.09631538
  O -3.37703895 -1.47518705 -1.72074118
  C -1.29954230 -1.33271484 -0.66661098
  N -0.39720220 -0.66778044 -0.00103287
  C  0.80257133 -1.02030568  0.49166509
  C  1.42192538 -2.24397997  0.28782789
  N  1.98167526 -3.24512040  0.17191947
  C  1.44649085  0.09002089  1.20328684
  O  0.85726777  1.17034894  1.26503132
  N  2.65572071 -0.13673719  1.74562736
  C  3.37830993  0.89673553  2.44867373
  H -4.87279104  0.93564879 -0.43393113
  H -3.99089886  2.17468768 -1.36406362
  H -4.44408428  0.62686871 -2.12140814
  H -2.21680665  1.09552584 -0.28542702
  H -1.10907429 -2.36345425 -0.92839790
  H -0.54892042  0.31932510  0.29019709
  H  3.07682690 -1.04643812  1.63747753
  H  2.65920457  1.55734918  2.93191090
  H  3.98209145  1.48858186  1.75559651
  H  4.02369185  0.44142277  3.19583532
