19
opt_min/./Reactant_432_0_opt.xyz
  C -1.38581165  0.14704992  1.23759384
  C -1.25776448 -0.57987535 -0.08686084
  O -2.05872542 -1.44541258 -0.40567232
  C -0.29917279 -0.06337409 -1.04776967
  C -0.64892437 -0.12783147 -2.50462226
  O  0.79505151  0.62184267 -0.80190324
  C  1.61790360  0.57745858  0.22207231
  C  1.57575543 -0.44242837  1.31073184
  C  2.67836924  1.48210950  0.18779273
  N  3.53735373  2.24907127  0.23092171
  H -2.44491795  0.34753877  1.38926141
  H -0.83854644  1.08584230  1.25702914
  H -1.06154807 -0.48682957  2.06121246
  H -0.42552275  0.82084006 -2.98957156
  H -1.70066071 -0.37063897 -2.61888239
  H -0.06071675 -0.90467272 -2.99600346
  H  2.59539494 -0.75218748  1.54110723
  H  0.99974475 -1.30555750  0.97481780
  H  1.13934130 -0.05963775  2.23375999
