43
opt_min/./Reactant_5923_0_opt.xyz
  C  4.03720200  0.40286800  1.86621400
  N  2.76311572  0.14408100  1.24642808
  C  2.65154573 -0.07452722 -0.11088645
  O  3.64469565 -0.05614473 -0.82235035
  C  1.29100854 -0.27508765 -0.56204431
  C  0.83449865 -0.18993105 -1.91218457
  C  1.86464554  0.03183841 -2.98641176
  O -0.36073850 -0.34429515 -2.18570820
  N  0.31492537 -0.76706140  0.30706288
  C  0.59271027 -2.01399361  1.00378292
  C -0.92648961 -0.33600612  0.16972401
  C -1.23421130  1.05615766 -0.15486057
  C -0.37296262  2.09912440  0.19329383
  C -0.71640197  3.40896626 -0.07398891
  C -1.91506392  3.70319143 -0.70497264
  C -2.77383014  2.67636457 -1.05829304
  C -2.44337065  1.36417475 -0.78131363
  C -2.06529647 -1.19435301  0.52784718
  C -2.28265020 -2.39482696 -0.14589772
  C -3.37430515 -3.18202248  0.16884279
  C -4.25507896 -2.78747394  1.16330911
  C -4.05161805 -1.59031301  1.82956519
  C -2.97003551 -0.79149194  1.50959339
  H  4.35424920 -0.44222437  2.48660948
  H  3.99239355  1.30169433  2.48273516
  H  4.76533025  0.54115482  1.06713502
  H  1.93942982  0.26053167  1.81229233
  H  2.61736192 -0.75184093 -2.95954638
  H  2.37651242  0.97411246 -2.80633499
  H  1.37049364  0.04980162 -3.95414310
  H -0.02974589 -2.09320901  1.89501011
  H  1.64470145 -2.03494379  1.27874035
  H  0.39357642 -2.87040170  0.35821952
  H  0.56612752  1.88680847  0.68208004
  H -0.04408401  4.20614523  0.20734650
  H -2.17369862  4.72899466 -0.92427644
  H -3.70603479  2.90028954 -1.55590767
  H -3.10404630  0.56367546 -1.07550802
  H -1.61781393 -2.67838339 -0.94776580
  H -3.54120689 -4.10385224 -0.36787956
  H -5.10354612 -3.40811814  1.40936697
  H -4.74266083 -1.27437979  2.59777426
  H -2.81163530  0.14612883  2.02262927
