36
opt_min/./Reactant_5733_0_opt.xyz
  C  3.28235000  2.47934400  2.66534000
  N  2.14299719  1.89526172  2.00376445
  C  2.13532685  1.64405918  0.66948577
  O  3.07564666  1.87214077 -0.06528785
  C  0.88913114  1.01414152  0.16807272
  O  0.16571071  0.36018313  1.03697531
  C -0.98728576 -0.25717721  0.89643870
  C -1.44019753 -1.04566547  2.03725269
  C -0.50749401 -1.14072954  3.22569376
  O -2.50378946 -1.63960326  2.01688059
  C -1.83263303 -0.15622561 -0.30092977
  C -2.36251204 -1.30041693 -0.89374154
  C -3.19684270 -1.19034478 -1.99018467
  C -3.51519063  0.05638045 -2.50253109
  C -3.00941888  1.19919912 -1.90408903
  C -2.17361343  1.09818115 -0.80927609
  C  0.61263934  1.12617927 -1.30429276
  O  0.44876114  2.18890360 -1.85865468
  N  0.57874177 -0.06918100 -1.93764817
  C  0.40451113 -0.13551953 -3.37174283
  H  3.74096323  1.76736927  3.35591877
  H  4.00450314  2.74252475  1.89394192
  H  2.98900442  3.37445375  3.21438456
  H  1.31269123  1.72800623  2.54837996
  H  0.26123222 -0.37562577  3.21931851
  H -1.09359838 -1.07901128  4.13917247
  H -0.03071072 -2.12003802  3.20727609
  H -2.12054904 -2.27089126 -0.48985989
  H -3.60021904 -2.08193727 -2.44671918
  H -4.16196454  0.13889867 -3.36330564
  H -3.26578320  2.17445997 -2.28860810
  H -1.80296149  1.99621154 -0.33656990
  H  0.82266428 -0.91225607 -1.44450878
  H  0.40698878 -1.17381745 -3.68860830
  H -0.54657968  0.32727945 -3.63977117
  H  1.20486857  0.40971794 -3.87550786
