24
opt_min/./Reactant_5077_0_opt.xyz
  C  1.07631013  1.54760847  4.31698482
  O  0.68299972  0.82064165  3.16440820
  C  1.04477154  1.32540910  1.96873838
  O  1.68274336  2.35130375  1.84414910
  C  0.53643703  0.46554411  0.91879088
  N  0.71181810  0.66147694 -0.37272738
  C  1.54273861  1.76983167 -0.80652408
  C  0.16749248 -0.11379126 -1.33517772
  C  0.44287700  0.12844944 -2.68765995
  N  0.69635778  0.28129812 -3.79936449
  C -0.73096510 -1.23987410 -1.07751785
  O -1.08532256 -1.65274755  0.00612866
  O -1.14062477 -1.78397147 -2.23603231
  C -2.01999412 -2.89116136 -2.12446504
  H  1.98527558  2.11696954  4.11362954
  H  0.27777625  2.23483773  4.60561510
  H  1.24489752  0.82111565  5.10852575
  H -0.06615584 -0.36980069  1.23971986
  H  1.68153126  1.74063943 -1.88434054
  H  1.07483301  2.71211906 -0.52030834
  H  2.50880700  1.72497617 -0.30628406
  H -1.51738147 -3.73039311 -1.63896341
  H -2.30026800 -3.15093110 -3.14145571
  H -2.90056957 -2.62110061 -1.53748055
