32
opt_min/./Reactant_5907_1_opt.xyz
  C -2.43204100 -2.42460500  1.56453000
  N -1.59571808 -1.27291414  1.78398050
  C -0.55829649 -0.99030086  0.96764308
  O -0.17359072 -1.75144714  0.07820115
  C  0.05852116  0.32765261  1.16906507
  O  1.23162820  0.65130881  0.57511778
  C  2.27208775 -0.09523614  0.38716834
  C  2.39127218 -1.45912733  0.94051715
  C  3.32077201  0.54176069 -0.39293048
  C  4.65513770  0.11831568 -0.36206528
  C  5.61154575  0.76106555 -1.12143397
  C  5.26694771  1.83572311 -1.92643389
  C  3.95169270  2.27068309 -1.96394998
  C  2.98864765  1.63283806 -1.21027800
  C -0.62712732  1.44155329  1.75937783
  C  0.06088301  2.78551840  1.63851732
  O -1.69038601  1.33157843  2.36923442
  H -3.40057608 -2.13812984  1.14560990
  H -1.92102761 -3.08021743  0.86077147
  H -2.59587164 -2.95202010  2.50527396
  H -1.95165650 -0.50317476  2.34431446
  H  2.00352028 -1.47183681  1.96183943
  H  3.41105021 -1.82210229  0.91313101
  H  1.74857522 -2.14111636  0.36934116
  H  4.95448705 -0.69779254  0.27586196
  H  6.63697461  0.42474937 -1.08426048
  H  6.01908349  2.33079185 -2.52186790
  H  3.67742020  3.10586131 -2.59094918
  H  1.96135734  1.95859466 -1.25548387
  H  0.19042963  3.04571667  0.59024179
  H  1.04371184  2.75551330  2.10496861
  H -0.55041504  3.53859048  2.12731629
