22
opt_min/./Reactant_4807_0_opt.xyz
  C  3.40904808  0.03012636  0.82273523
  C  2.33364199 -0.49381176 -0.10372835
  O  2.57481612 -1.29934693 -0.97547043
  C  0.99163750  0.06445366  0.10255789
  N  0.85250173  1.04156917  0.92106699
  C  0.71267272  1.96222584  1.65229502
  C  0.54905008  2.98491718  2.48858348
  N  0.40648600  3.88014720  3.21234858
  C -0.19270183 -0.41579181 -0.62031682
  C -0.24328096 -1.71405684 -1.13203836
  C -1.36794461 -2.14675071 -1.80784349
  C -2.45830210 -1.30916634 -1.97718623
  C -2.41883896 -0.02386412 -1.46408184
  C -1.29747591  0.42086385 -0.79085462
  H  3.76761963  0.98639265  0.44143498
  H  4.24548330 -0.66407770  0.82303442
  H  3.04513621  0.17192663  1.83684504
  H  0.59789323 -2.37444588 -1.00408057
  H -1.39477713 -3.15194210 -2.20247291
  H -3.33221775 -1.65447041 -2.50652219
  H -3.26416321  0.63639197 -1.59006192
  H -1.27244010  1.43108340 -0.40594530
