19
opt_min/./Reactant_2210_1_opt.xyz
  C -3.49533394  1.24260201 -1.86830111
  C -2.35675149  2.07593218 -1.32433090
  O -2.33598394  3.28358207 -1.35192139
  C -1.29211969  1.29219821 -0.76421309
  C -0.39368765  0.64494483 -0.27861169
  C  0.66260452 -0.09984042  0.29138813
  C  0.39275251 -1.10028941  1.22735511
  C  1.43567254 -1.81674105  1.78190807
  C  2.74435412 -1.55416553  1.40978254
  C  3.01470150 -0.56358135  0.47816724
  C  1.98241281  0.16520127 -0.07871779
  H -4.43142266  1.60031699 -1.44225813
  H -3.36397113  0.18696608 -1.65150669
  H -3.54730377  1.38922959 -2.94645539
  H -0.62855792 -1.30146402  1.51433016
  H  1.22479265 -2.58758113  2.50940550
  H  3.55405423 -2.12004413  1.84562932
  H  4.03431294 -0.35815728  0.18722684
  H  2.17944115  0.94181343 -0.80328732
