18
opt_min/./Reactant_2026_1_opt.xyz
  O  4.37248000 -1.43928800 -0.64431300
  C  3.53333897 -0.64841315 -0.35582858
  N  3.54688773  0.64777664 -0.06985175
  N  2.28336831  1.00836016  0.18088482
  C  1.43553965 -0.00550797  0.07067209
  C  0.00795609  0.00178969  0.26541145
  C -0.68006772  1.16684808  0.61686489
  C -2.04834817  1.12804807  0.79335027
  C -2.74633639 -0.05873114  0.62456984
  C -2.06765728 -1.21672653  0.27594596
  C -0.70009534 -1.19289576  0.09623904
  O  2.11342194 -1.07862319 -0.25895869
  H  2.08558577  1.96895289  0.42073708
  H -0.14715323  2.09644223  0.75093603
  H -2.58045638  2.02785228  1.06488510
  H -3.81582626 -0.07825146  0.76491463
  H -2.61114375 -2.14079701  0.14452700
  H -0.15228805 -2.08156177 -0.17495278
