16
opt_min/./Reactant_4184_1_opt.xyz
  N  3.80395263 -0.75509661  4.19731595
  C  3.12602729 -0.73397878  3.25995834
  C  2.33735255 -0.70339885  2.18292758
  N  1.64965717 -0.66284529  1.22550091
  N  1.18944880 -0.75340094  0.11295375
  C  0.09135564 -0.12530996 -0.41189319
  C -0.93347815  0.39883296  0.38338209
  C -2.02512106  0.99868919 -0.20984414
  C -2.11156132  1.08005016 -1.59106432
  C -1.10013062  0.56032882 -2.38288534
  C -0.00264952 -0.04303804 -1.80175699
  H -0.85741628  0.33103074  1.46065661
  H -2.81372464  1.40220178  0.40725430
  H -2.96929403  1.54871826 -2.05022765
  H -1.16660101  0.62618008 -3.45834727
  H  0.79269300 -0.45266815 -2.40531151
