30
opt_min/./Reactant_5296_0_opt.xyz
  C  4.99498800 -0.35144300 -0.32516700
  N  3.60107116  0.02244488 -0.39067594
  C  3.00291518  0.72823176  0.61502017
  O  3.54395431  1.00247742  1.65967115
  N  1.71645496  1.14935593  0.27914336
  N  0.73754260  0.32933279  0.32434098
  C -0.53607113  0.53891668  0.02736764
  C -1.02072252  1.83717910 -0.46373196
  O -2.16624892  2.06264205 -0.78559971
  O -0.04008527  2.74657872 -0.54095270
  C -0.42169083  4.03132023 -1.00510796
  C -1.45707607 -0.59019354  0.17129317
  C -1.03105117 -1.89598908 -0.10150721
  C -1.88986529 -2.96700098  0.05404283
  C -3.19183722 -2.75857259  0.47769471
  C -3.62850737 -1.47054452  0.73690789
  C -2.77446066 -0.39409833  0.58877226
  H  5.43737030  0.18610036  0.51324926
  H  5.50673376 -0.07966914 -1.24733874
  H  5.10855677 -1.42433613 -0.15393183
  H  3.13357184 -0.04671647 -1.28101349
  H  0.92028577 -0.63171373  0.66384930
  H -1.30355595  4.38577775 -0.46780171
  H  0.43040706  4.68029655 -0.82044652
  H -0.65362581  4.00060962 -2.07168265
  H -0.03325111 -2.07521307 -0.47946686
  H -1.54360513 -3.96636329 -0.16550447
  H -3.86083541 -3.59756273  0.59434796
  H -4.64406265 -1.30392546  1.06305687
  H -3.12386375  0.60284342  0.79641596
