9
opt_min/./Reactant_269_0_opt.xyz
  C -1.83412080  0.04577398  0.27237235
  N -0.63224995 -0.58352037  0.70501154
  O  0.40047227 -0.03413134  0.15565861
  N  1.58251295 -0.50151233  0.47297078
  C  2.64197692  0.03125438 -0.05006090
  N  3.66681021  0.40727394 -0.42220906
  H -1.65755243  0.84619995 -0.44924667
  H -2.47169406 -0.72705386 -0.16393163
  H -2.34818029  0.43349730  1.15472496
