27
opt_min/./Reactant_2058_1_opt.xyz
  C  4.13917020 -0.54836204 -1.28443855
  N  2.85757341 -0.62213455 -0.62637568
  C  2.24365006  0.45941888 -0.11955891
  O  2.65316587  1.59289981 -0.20444989
  C  0.93038219  0.11467870  0.60187558
 Cl  1.44537452 -0.56359044  2.21195086
  C  0.08671640 -0.84950031 -0.04386160
  C -0.89363648 -1.39140602 -0.47958650
  C -2.31316475 -1.58940303 -0.68755697
  F -2.68341006 -1.21750523 -1.94831080
  F -2.72228084 -2.88187512 -0.56782076
  C -3.01335130 -0.71137863  0.36456836
  C -2.51497418  0.74473144  0.43870615
  C -1.35169687  1.06492470  1.41454769
  C  0.03707103  1.34442551  0.81270088
  H  4.10748842 -1.09182288 -2.22834711
  H  4.92715544 -0.96610819 -0.65468187
  H  4.35310532  0.50207410 -1.47269345
  H  2.45567967 -1.53469813 -0.47527919
  H -2.88161978 -1.20307079  1.33036619
  H -4.07725520 -0.72655579  0.11993493
  H -3.37499887  1.31831008  0.78908339
  H -2.27767102  1.10756270 -0.56119561
  H -1.27781082  0.28674768  2.17392528
  H -1.62951419  1.98663033  1.92842996
  H -0.07456011  1.82931504 -0.15987561
  H  0.58857271  2.03514093  1.45092735
