34
opt_min/./Reactant_3168_1_opt.xyz
  C  2.69900000 -3.91765300 -1.41276300
  N  1.77470061 -2.94500781 -0.88853336
  C  1.87547407 -2.45574519  0.35715939
  O  2.75354180 -2.78668741  1.14775072
  C  0.83781254 -1.43422854  0.70739894
  O  0.10988270 -1.11177454 -0.30824238
  C -0.85576704 -0.29689800 -0.62337715
  C -1.34238867 -0.65238281 -1.99843593
  O -0.76347260 -1.53199573 -2.62236316
  N -2.41110091  0.02541799 -2.43541766
  C -3.02795245 -0.24314904 -3.70898532
  C -1.34002390  0.85860641  0.12826538
  O -2.39412346  1.42050625 -0.11382095
  O -0.45695447  1.31271767  1.01645884
  C -0.86284993  2.43122135  1.78944201
  C  0.52334028 -1.09195990  2.12259807
  O -0.61598862 -0.77794395  2.43708950
  N  1.54612650 -1.23302244  2.98227473
  C  1.35105035 -1.13238907  4.40704793
  H  3.46046108 -4.10229722 -0.65660090
  H  3.16909501 -3.54091475 -2.32209271
  H  2.18158596 -4.85085947 -1.64166931
  H  1.02797758 -2.63043644 -1.49867436
  H -2.81441781  0.72159023 -1.81588753
  H -4.04660625 -0.61070399 -3.57165078
  H -3.05615182  0.66306554 -4.31585950
  H -2.43489351 -1.00295911 -4.21584464
  H -1.86417069  2.26574948  2.18912224
  H -0.86717985  3.33297431  1.17255313
  H -0.13781512  2.51958513  2.59408726
  H  2.37383987 -1.71282406  2.63505849
  H  2.05594901 -0.41457624  4.82964622
  H  1.49908621 -2.10056632  4.88857815
  H  0.33218627 -0.79217403  4.58711022
