13
opt_min/./Reactant_1928_1_opt.xyz
  C -2.68170993  0.01047986 -0.87745263
  N -1.40017548  0.44489451 -0.38013787
  C -0.38319647 -0.42014780 -0.17785563
  O -0.41621645 -1.61318628 -0.39073945
  C  0.81423012  0.19876557  0.33683452
  N  1.89339207  0.21413611  0.79990162
  N  2.91193651  0.62234127  1.32836047
  C  4.03620696  0.03086512  1.58154655
  N  5.07589458 -0.36301845  1.87660130
  H -3.47596914  0.28417461 -0.18159718
  H -2.89033374  0.45666880 -1.85191628
  H -2.64507786 -1.07330566 -0.98271182
  H -1.27675868  1.42273488 -0.16826138
