28
opt_min/./Reactant_2355_1_opt.xyz
  C -2.85364800 -1.68838200  0.10890600
  N -1.58356774 -1.04724355  0.02042405
  N -1.47866247  0.22185391  0.12110682
  C -2.61573626  1.10407662  0.34286846
  C -0.25101140  0.75905430 -0.01003843
  C  0.01512299  2.16784942  0.05475607
  C  1.47290557  2.57794179 -0.01203404
  O -0.84966576  3.03867984  0.12814293
  C  0.83939766 -0.22125541 -0.23008735
  C  1.39470090 -0.38308909 -1.49362756
  C  2.41236373 -1.29720234 -1.69920541
  C  2.88376882 -2.06062783 -0.64555951
  C  2.33133900 -1.90898496  0.61503431
  C  1.31417756 -0.99607832  0.82193856
  H -2.65407797 -2.75482657  0.00957912
  H -3.53431699 -1.38564836 -0.69929263
  H -3.36204903 -1.52437756  1.06561176
  H -3.52509729  0.52477582  0.47726478
  H -2.72614052  1.77865300 -0.50545274
  H -2.43403136  1.72142156  1.22326068
  H  1.76435349  2.93472767  0.97632841
  H  2.13362903  1.77082749 -0.30537125
  H  1.57007887  3.41389608 -0.70322424
  H  1.02736557  0.21244141 -2.31676529
  H  2.83851341 -1.41454399 -2.68508463
  H  3.67956234 -2.77348260 -0.80553359
  H  2.69713951 -2.50454157  1.43893585
  H  0.88399983 -0.87716840  1.80532462
