22
opt_min/./Reactant_64_0_opt.xyz
  C -0.94892300 -2.59533100 -0.88949000
  N  0.39090690 -2.04688371 -0.94939300
  C  0.20584322 -0.70138562 -0.44974707
  C  1.23422449  0.21744833 -0.05034535
  O  0.96510881  1.35610073  0.34077900
  N  2.50724663 -0.25032575 -0.15205146
  C  3.64023126  0.50165306  0.31996390
  C -1.13096948 -0.44435794 -0.35562967
  O -1.88379456 -1.52499190 -0.71581325
  N -1.70741710  0.71810301 -0.02050689
  C -3.08136058  0.82070884  0.40155387
  H -1.02809983 -3.25081288 -0.00507224
  H -1.23171413 -3.16560057 -1.77859212
  H  0.74711207 -2.02429162 -1.90479698
  H  2.62339321 -1.23415679 -0.33513152
  H  3.28788460  1.51042728  0.53085434
  H  4.41786706  0.53985098 -0.44518551
  H  4.05885450  0.07017871  1.23331254
  H -1.02000549  1.38618867  0.32924655
  H -3.18450884  0.72243925  1.48741224
  H -3.65592825  0.03184566 -0.07944030
  H -3.47633160  1.78998543  0.09813435
