23
opt_min/./Reactant_3768_1_opt.xyz
  C -2.19552900  1.97838800  0.01236500
  C -0.87647548  1.29708687  0.12478011
  N -0.66983067  0.00773937 -0.00250594
  C -1.80738475 -0.87066538 -0.22901838
  C  0.55060277 -0.60333007  0.07510699
  C  0.62381963 -2.10362543  0.08044179
  C  1.75414549  0.14793074  0.04794202
  O  1.87529070  1.36864301  0.03410646
  O  2.87152075 -0.65321995  0.04112041
  C  4.09562397  0.04679746  0.01990943
  H -2.71155821  1.76805528 -0.92528504
  H -2.85809437  1.69464158  0.83448745
  H -2.03871579  3.04929676  0.06892489
  H -0.00977973  1.90022072  0.33632836
  H -2.03245384 -1.44554716  0.66957205
  H -1.57835932 -1.56064014 -1.03768039
  H -2.68722150 -0.29164261 -0.48825028
  H  0.49208383 -2.53387564 -0.91466435
  H -0.11361017 -2.55063977  0.74459325
  H  1.60699714 -2.39535954  0.43209534
  H  4.25676794  0.56852738  0.96741956
  H  4.86809887 -0.70238242 -0.13561937
  H  4.10372442  0.78194622 -0.78776934
