16
opt_min/./Reactant_985_0_opt.xyz
  C -2.45085793  0.55820466  2.05439345
  O -1.12346625  0.64626602  1.54351778
  C -0.85218839 -0.03725926  0.43494781
  O -1.61493515 -0.72654999 -0.18811701
  C  0.57178416  0.17143928  0.03742380
  C  1.37305050  1.05451296  0.77552833
  N  1.97879605  1.80243788  1.40285342
  O  0.94566919 -0.51200256 -1.00459721
  C  2.11041277 -0.54257911 -1.58887614
  C  2.25595536 -1.37091834 -2.72254453
  N  2.41095534 -2.03424547 -3.64478693
  C  3.25471497  0.17876128 -1.18987369
  N  4.22395459  0.72061908 -0.89614895
  H -2.47771554 -0.18455155  2.85315096
  H -3.14222591  0.27012445  1.26105339
  H -2.70173413  1.53976615  2.45063973
