18
opt_min/./Reactant_3434_0_opt.xyz
  C  2.84662500 -1.09014700 -0.39854300
  O  2.49250858  0.06291538  0.03537480
  C  1.35094769  0.69590829  0.17513804
  C  1.54524137  1.99671643  0.68763595
  N  1.70731431  3.04972978  1.11892703
  C -0.02012084  0.26277729 -0.05962104
  C -1.05187882  1.07406769  0.43895513
  C -2.37738739  0.73899427  0.26414044
  C -2.72462387 -0.41514265 -0.42083918
  C -1.72250865 -1.21948627 -0.93257421
  C -0.39074758 -0.89021011 -0.76337230
  H  2.17086865 -1.86506281 -0.71768561
  H  3.90411447 -1.28718054 -0.34790060
  H -0.80392826  1.97320938  0.98168041
  H -3.14719262  1.38145744  0.66366625
  H -3.75989444 -0.68442276 -0.56309123
  H -1.97248687 -2.11685148 -1.47983180
  H  0.34695283 -1.53326471 -1.21023002
