27
opt_min/./Reactant_5186_0_opt.xyz
  C  3.50896500 -1.48301700 -0.36994600
  C  3.83220632 -0.00700487 -0.33889595
  O  4.96958775  0.41997205 -0.45318922
  C  2.71691134  0.89852041 -0.17821106
  O  1.51512223  0.41277347 -0.07611068
  C  0.33598823  0.97284684  0.00756786
  C  0.06876856  2.40310797  0.23506211
  C  1.12152585  3.19181956  0.98681297
  O -0.97876288  2.92769702 -0.08583133
  C -0.76702619  0.00288075 -0.01680412
  C -2.03335923  0.31611943 -0.51383888
  C -3.03237606 -0.63931651 -0.51645405
  C -2.78887148 -1.91523355 -0.03438433
  C -1.53426460 -2.23747168  0.45673769
  C -0.53191934 -1.28842147  0.46732339
  H  2.79616630 -1.74616301  0.40632760
  H  3.06983940 -1.72739469 -1.33618463
  H  4.42288422 -2.05664986 -0.24818153
  H  2.91531213  1.95969170 -0.21081479
  H  1.80627417  3.66470660  0.28294341
  H  1.68460417  2.57333587  1.68191640
  H  0.61681355  3.98798956  1.53058689
  H -2.22974358  1.30346572 -0.89495427
  H -4.00795147 -0.38708013 -0.90349861
  H -3.57480368 -2.65601436 -0.03711909
  H -1.33800041 -3.22868244  0.83801014
  H  0.43871850 -1.53672857  0.87107187
