35
opt_min/./Reactant_2180_0_opt.xyz
  C -2.60446300  3.78096700 -0.54037000
  N -2.19475170  2.40938809 -0.69229878
  C -1.06600393  1.92487089 -0.09805914
  O -0.33450105  2.65629953  0.56250643
  C -0.79079427  0.51410418 -0.34501256
  N  0.43739635  0.00751821 -0.10008994
  C  1.53977518  0.55782060  0.36838524
  C  2.75038803 -0.16963411  0.57820658
  C  3.85020549  0.51362874  1.12213415
  C  5.04571133 -0.13115077  1.35543010
  C  5.18535576 -1.47732793  1.05288322
  C  4.11387005 -2.16905801  0.50920508
  C  2.91439207 -1.53142589  0.27282531
  C -1.77522521 -0.42040920 -0.87451539
  C -1.40136098 -1.40310924 -1.79964803
  C -2.32217332 -2.31419755 -2.27952023
  C -3.63870012 -2.27173928 -1.85165985
  C -4.02419609 -1.30935458 -0.93114298
  C -3.10820533 -0.39862735 -0.44537005
  H -3.50015859  3.85959569  0.08351042
  H -1.78956254  4.31361159 -0.05144610
  H -2.80684803  4.22991875 -1.51355384
  H -2.73472231  1.81581912 -1.29877894
  H  0.50028435 -0.99307283 -0.28645434
  H  1.50184836  1.60760451  0.60832799
  H  3.74343375  1.56147240  1.35960023
  H  5.87703650  0.41624666  1.77507325
  H  6.12103500 -1.98332220  1.23823420
  H  4.21733837 -3.21770606  0.26893683
  H  2.10299074 -2.10378678 -0.15846205
  H -0.38662852 -1.43126819 -2.17471946
  H -2.01125700 -3.05726180 -2.99988293
  H -4.35595119 -2.98369901 -2.23079740
  H -5.04612577 -1.27852260 -0.58169721
  H -3.41110209  0.32239716  0.29971986
