26
opt_min/./Reactant_2846_0_opt.xyz
  C  2.86196400  1.64226800 -0.55490400
  C  3.39321171  0.22212139 -0.43187783
  O  4.58735778  0.00818257 -0.63525030
  C  2.56482688 -0.85202324  0.00145211
  N  1.23603924 -0.94684959  0.21111386
  C  0.83715625 -2.08685637  1.02029074
  C  0.31959528 -0.11150349 -0.24707998
  C -1.10637982 -0.11453933 -0.02290739
  C -1.91448602 -1.25857891  0.05296112
  C -3.27894219 -1.15069310  0.24148615
  C -3.88022840  0.09198176  0.35106363
  C -3.10458763  1.23509337  0.23460674
  C -1.74341834  1.13538064  0.03984427
  H  2.14538949  1.87471048  0.22881147
  H  3.71483936  2.31286250 -0.47765671
  H  2.40655653  1.80229515 -1.53063012
  H  3.11858556 -1.73993738  0.26473627
  H  0.64125354 -2.95435006  0.39043810
  H  1.63500463 -2.33667113  1.71585002
  H -0.06016783 -1.84425840  1.58654208
  H  0.69517809  0.71915376 -0.81683968
  H -1.48762137 -2.23706403 -0.09435587
  H -3.88215528 -2.04505639  0.29491997
  H -4.94539333  0.16829353  0.50663935
  H -3.56494127  2.21060022  0.29430149
  H -1.14549118  2.03004336 -0.05027479
