24
opt_min/./Reactant_4847_1_opt.xyz
  C  3.01111301  0.59727200  0.50124389
  O  1.65064867  0.28234255  0.26941786
  C  1.40723986 -0.78052063 -0.57789213
  O  2.30458170 -1.37831895 -1.13352006
  C  0.02402560 -1.13982792 -0.63002999
  C -0.30385384 -2.40877371 -1.11113152
  N -0.62313006 -3.43642555 -1.52204190
  N -1.01630896 -0.41025243 -0.05712651
  C -1.98674556 -1.19189015  0.69997506
  C -1.19132053  0.87571242 -0.23491341
  C -0.32780788  1.61864122 -1.17989188
  C -2.25574572  1.63367472  0.47928138
  H  3.21399386  0.49921819  1.56902042
  H  3.20133144  1.62462001  0.18273574
  H  3.64660360 -0.08954331 -0.06292261
  H -2.93490070 -1.25320116  0.16223942
  H -1.60254542 -2.20068765  0.83721594
  H -2.15099915 -0.75164898  1.68211255
  H  0.57512262  1.97301077 -0.68105724
  H -0.00846764  0.95222548 -1.98567108
  H -0.84877808  2.47909183 -1.59506140
  H -1.83745743  2.10129719  1.37390509
  H -3.09961352  1.01717273  0.77400322
  H -2.63056729  2.43214903 -0.15818601
