20
opt_min/./Reactant_519_1_opt.xyz
  C -0.63517343  2.91617793 -0.91016997
  O -0.36466489  1.64672890 -0.32859040
  C  0.80694223  1.08284243 -0.65739639
  O  1.64195106  1.60984770 -1.34801792
  C  1.02541993 -0.21680909  0.00987660
  C  2.37670730 -0.60256209  0.04927506
  N  3.48281368 -0.90987695  0.08353015
  N  0.10090543 -0.96198684  0.62715916
  C  0.55098231 -1.95690059  1.58933777
  C -1.22597587 -0.87274319  0.45331820
  C -2.09699596 -1.52202716  1.34267977
  N -2.82610103 -1.98458590  2.10089197
  C -1.85463206 -0.27771573 -0.65247702
  N -2.43618626  0.05894832 -1.58405124
  H  0.23022630  3.57206610 -0.80006753
  H -1.49650784  3.31134424 -0.37851061
  H -0.86374265  2.79396460 -1.96998175
  H  0.47662679 -1.54905902  2.60019435
  H -0.06794934 -2.85207374  1.52930153
  H  1.58913341 -2.22045236  1.39639863
