17
opt_min/./Reactant_3545_1_opt.xyz
  O -2.36902000  0.89695700 -1.81209400
  C -2.46029579  0.38985092 -0.72916096
  O -3.66348554  0.11427328 -0.09353154
  N -3.46003842 -0.44996517  1.09894997
  O -2.16960038 -0.55414156  1.26793936
  C -1.48345510 -0.08618416  0.24401744
  C -0.05342530 -0.08345904  0.17979930
  C  0.59821568  0.43239539 -0.94464915
  C  1.97710089  0.43044164 -0.99681952
  C  2.72112805 -0.07936224  0.05773742
  C  2.07681294 -0.59318960  1.17757223
  C  0.70170270 -0.59864375  1.24535438
  H  0.01756705  0.82835838 -1.76360730
  H  2.48203121  0.82829253 -1.86414236
  H  3.79809863 -0.07772393  0.01025537
  H  2.66553726 -0.98731923  1.99229851
  H  0.19568985 -0.99615361  2.11199614
