24
opt_min/./Reactant_5715_1_opt.xyz
  C  4.69152400 -0.47702400  0.52610500
  N  3.32633970 -0.04994249  0.34097998
  C  3.01775712  1.25178586  0.17408027
  O  3.83299632  2.15396600  0.16003159
  C  1.55907025  1.51380338  0.01016195
  O  0.79325901  0.50364470  0.04527464
  C -0.52007316  0.29426721 -0.05329480
  C -1.40547122  1.41602021 -0.32407789
  C -2.86467927  1.16733971 -0.61457745
  O -0.95106272  2.54959126 -0.36130379
  C -0.75306942 -1.15099125  0.13103158
  C -2.14972423 -1.68637849  0.28421669
  O  0.21396526 -1.88855694  0.21176023
  H  5.17797861  0.16638221  1.26116135
  H  4.70517214 -1.50744943  0.86755954
  H  5.24937321 -0.39310550 -0.40975741
  H  2.59374004 -0.74502387  0.33961965
  H  1.22613869  2.53478718 -0.13370721
  H -2.99552921  0.37943520 -1.34841269
  H -3.38580363  0.89363842  0.29903042
  H -3.29057763  2.09423563 -0.99053824
  H -2.65694979 -1.69358116 -0.67709976
  H -2.08050929 -2.71038558  0.64334257
  H -2.72603536 -1.09183626  0.98535367
