31
opt_min/./Reactant_1887_0_opt.xyz
  C -2.75283295  1.11966017  0.18813330
  C -2.46062676  0.00823552 -0.78088510
  O -3.18906376 -0.29127121 -1.68407551
  C -1.15416167 -0.77438184 -0.53727209
  C -1.54110512 -2.24952697 -0.28312595
  C -0.78283752 -2.90640053  0.83548488
  O -2.36017686 -2.81049217 -0.95241497
  C -0.32343279 -0.18921949  0.46542010
  C  0.59210195  0.34431231  1.03025513
  C  1.63238166  1.34656415  1.11262234
  F  2.89752900  0.78309846  1.18796066
  C  1.41694679  2.22351178  2.25589172
  N  1.20128161  2.90812095  3.14422275
  C  1.50995518  2.15239377 -0.20658090
  C  1.51821906  1.37477083 -1.54245123
  C  0.30842960  0.66788172 -2.21554832
  C -0.26380657 -0.70499966 -1.80694642
  H -3.54396015  1.74917091 -0.21126893
  H -3.09338969  0.68635193  1.12825676
  H -1.86419561  1.70925489  0.39502213
  H -0.76771411 -2.27734427  1.72179086
  H -1.22858986 -3.87103107  1.06400347
  H  0.24766530 -3.05856870  0.51636687
  H  2.38651451  2.80747274 -0.23555222
  H  0.62550246  2.79104914 -0.14515323
  H  2.37451668  0.69663780 -1.55187275
  H  1.74336809  2.16926764 -2.26242735
  H -0.50540019  1.38383866 -2.34658365
  H  0.70444946  0.45868652 -3.21477175
  H  0.56464665 -1.41029834 -1.70200834
  H -0.88751147 -1.04997010 -2.63681994
