19
opt_min/./Reactant_174_1_opt.xyz
  C -3.49533394  1.24260201 -1.86830111
  C -2.35675150  2.07593218 -1.32433088
  O -2.33598396  3.28358207 -1.35192134
  C -1.29211970  1.29219821 -0.76421307
  C -0.39368765  0.64494483 -0.27861168
  C  0.66260452 -0.09984042  0.29138814
  C  0.39275251 -1.10028940  1.22735513
  C  1.43567254 -1.81674104  1.78190808
  C  2.74435412 -1.55416553  1.40978254
  C  3.01470150 -0.56358136  0.47816723
  C  1.98241280  0.16520126 -0.07871780
  H -4.43142266  1.60031697 -1.44225813
  H -3.36397113  0.18696608 -1.65150671
  H -3.54730376  1.38922961 -2.94645538
  H -0.62855791 -1.30146401  1.51433018
  H  1.22479266 -2.58758112  2.50940552
  H  3.55405423 -2.12004413  1.84562931
  H  4.03431294 -0.35815729  0.18722682
  H  2.17944114  0.94181342 -0.80328733
