12
opt_min/./Reactant_392_0_opt.xyz
  C -2.34307776  0.18129074 -0.04557247
  N -0.95166914  0.01770305 -0.38256061
  C  0.02881981  0.07254599  0.55340036
  O -0.16115928  0.22864292  1.74548246
  C  1.34472271 -0.09596717  0.02532880
  N  2.51963579 -0.11408321 -0.01070254
  N  3.66311251 -0.16703341 -0.41345090
  H -2.92522398 -0.68011126 -0.37879902
  H -2.74645610  1.08754834 -0.50362350
  H -2.40758854  0.26867240  1.03755938
  H -0.69952405 -0.09776840 -1.35157595
  H  4.37998218 -0.18188120  0.29906074
