10
opt_min/./Reactant_5393_1_opt.xyz
  O  2.88813887 -0.84774210  0.48997437
  C  2.68168365 -0.14623956 -0.38986125
  O  2.49208375  0.54765020 -1.27844316
  C -0.31413126 -0.29709847  0.46454284
  C -0.73309911  0.41968768 -0.39372651
  C -3.79771098  0.43157733  0.24994080
  O -3.66461984 -0.25930462  1.15125197
  O -3.94722982  1.13751263 -0.63824036
  H  0.04780641 -0.92552020  1.22419210
  H -1.09293680  1.05056460 -1.15241863
