32
opt_min/./Reactant_1630_1_opt.xyz
  C  0.70446400 -2.80577600  0.10041000
  C -0.37127247 -1.75921771  0.03642888
  C -1.76023163 -2.32142020  0.03708844
  C -0.11139967 -0.44408839 -0.01055220
  C  1.25162509  0.11737496 -0.08597151
  C  2.16362985 -0.29302200 -1.05435789
  C  3.41999531  0.27894549 -1.12358942
  C  3.78813466  1.26875008 -0.22660015
  C  2.88380599  1.69055289  0.73556496
  C  1.62427053  1.12703241  0.80148574
  C -1.16653241  0.59414515  0.00836290
  C -2.15958685  0.61513561  0.98170332
  C -3.11243625  1.61954471  0.99270750
  C -3.09111589  2.61557105  0.03235380
  C -2.10016206  2.60703824 -0.93802838
  C -1.14322841  1.61161354 -0.94748397
  H  0.41882683 -3.57813762  0.80883513
  H  1.65662471 -2.38286739  0.40153413
  H  0.82308234 -3.28777449 -0.87022350
  H -2.49210112 -1.59035090 -0.29422443
  H -1.80836160 -3.18522726 -0.62175933
  H -2.03588166 -2.66227119  1.03256322
  H  1.88003890 -1.04998765 -1.76979465
  H  4.11787383 -0.04488941 -1.88543101
  H  4.77023570  1.71220263 -0.28082470
  H  3.16194654  2.46474275  1.43416975
  H  0.91667665  1.45514157  1.54603138
  H -2.18641923 -0.14331404  1.75091632
  H -3.87482606  1.62834499  1.75672178
  H -3.83093276  3.40275286  0.02876098
  H -2.06712095  3.38067818 -1.69185479
  H -0.36561306  1.60008822 -1.69696876
