29
opt_min/./Reactant_1672_0_opt.xyz
  C  1.66237975  1.88194999 -1.99609058
  C  1.37020310  0.79768334 -0.99917246
  N  0.14102838  0.43019242 -0.85887277
  C -0.99237242  0.13790367 -0.69228691
  C -2.30801539 -0.17795260 -0.46849540
  C -2.65436163 -1.23256583  0.40244983
  C -3.97711910 -1.54354423  0.61765688
  C -4.98791977 -0.83230406 -0.01526828
  C -4.65456991  0.20602609 -0.87248016
  C -3.34110694  0.54092390 -1.10722755
  C  2.39159745  0.20014642 -0.17833588
  C  2.10349235 -0.92544860  0.61135929
  C  3.06804977 -1.49024025  1.41728405
  C  4.34707003 -0.95699483  1.46480657
  C  4.64582733  0.15219376  0.69119155
  C  3.68882972  0.72662287 -0.11970161
  H  1.76738787  2.85337576 -1.50598369
  H  2.59775812  1.66832933 -2.51137193
  H  0.86135297  1.95316720 -2.72745982
  H -1.86903377 -1.78452509  0.89668211
  H -4.22693605 -2.35518224  1.28574645
  H -6.02172067 -1.08583539  0.15941942
  H -5.43693340  0.76676555 -1.36448406
  H -3.08301946  1.34985684 -1.77324762
  H  1.11314398 -1.35657930  0.57951557
  H  2.82482747 -2.35769697  2.01462284
  H  5.10012742 -1.40081844  2.09814508
  H  5.63804914  0.57991567  0.72429087
  H  3.93883117  1.59893906 -0.70287434
