17
opt_min/./Reactant_4418_1_opt.xyz
  C -2.20040300  1.36236400  0.53271200
  O -1.27016134  0.35237478  0.16919086
  C -1.76920175 -0.78327733 -0.31125204
  O -2.94508949 -1.01776628 -0.46629411
  C -0.72563254 -1.76768430 -0.65448674
  O  0.53722609 -1.66531312 -0.53628400
  N  1.16470807 -0.58656039 -0.09349400
  C  2.54501739 -0.78386737 -0.03896358
  C  3.22851361  0.47675939  0.41944532
  O  3.10108307 -1.82460636 -0.29468020
  H -1.67698175  2.31071903  0.44447092
  H -3.06972961  1.33213132 -0.12685303
  H -2.52762903  1.20872756  1.56233659
  H -1.05556266 -2.71781630 -1.05380530
  H  2.64883863  1.34427891  0.12256969
  H  4.23492562  0.51810428  0.01422901
  H  3.29404291  0.45697581  1.50530565
