39
opt_min/./Reactant_2530_0_opt.xyz
  C -3.17461684 -2.87341872  1.81624944
  N -2.55661342 -1.67225317  1.30522862
  C -1.70805215 -1.70960479  0.26122486
  O -1.29730129 -2.73554710 -0.23735124
  C -1.15901301 -0.33359075 -0.17363000
  C -2.14649290  0.81571651  0.00946201
  O -3.35332337  0.67733789 -0.05932230
  N -1.55496497  2.00746900  0.21997344
  C -2.29534845  3.24114731  0.31500386
  C  0.08043353 -0.15171428  0.60800995
  C  1.29261368 -0.04814969  0.52909048
  C  2.68733456 -0.07769670  0.05258291
  C  3.64338984  0.67410637  0.97485330
  C  3.28275902  0.59771962  2.43619809
  O  4.60159881  1.27852297  0.56912798
  C  2.92055017  0.41740058 -1.43921625
  C  1.97727822 -0.06845060 -2.59600805
  C  0.66449868 -0.13915422 -1.82628114
  C -0.82887344 -0.39830022 -1.77438105
  H -2.61625450 -3.72498988  1.43125937
  H -4.21450513 -2.95157233  1.49204013
  H -3.13683121 -2.87117208  2.90607730
  H -3.01981054 -0.80289254  1.52164138
  H -0.54823654  2.04919004  0.26834606
  H -2.08070331  3.74480871  1.25871984
  H -3.35438013  2.99222351  0.26726724
  H -2.04584356  3.90819495 -0.51264149
  H  3.00767373 -1.13004226  0.10427415
  H  2.63940603  1.44531871  2.67242487
  H  4.18029267  0.67911492  3.04457565
  H  2.74281162 -0.31601256  2.66912570
  H  3.95520420  0.15652367 -1.66642106
  H  2.86779450  1.50791303 -1.41118990
  H  2.00620276  0.66483948 -3.40276200
  H  2.28724323 -1.03572313 -2.98882146
  H  0.96454784 -0.95244783 -1.17095678
  H  0.70209417  0.83707684 -1.33437656
  H -1.44104694  0.35388808 -2.27118462
  H -1.11122818 -1.39200032 -2.11600197
