10
opt_min/./Reactant_3468_1_opt.xyz
  O  0.57070800 -1.07194100 -1.68502200
  C  1.45738459 -0.23841805 -1.08665420
  O  2.54641020 -0.16250767 -1.57180827
  C  0.99564984  0.49635031  0.10568095
  C -0.24536799  0.33774924  0.56591494
  C -1.18651173 -0.57725810 -0.10709290
  O -0.73540852 -1.23968639 -1.19962138
  O -2.31443203 -0.78498574  0.22937553
  H  1.72339237  1.15175553  0.55918925
  H -0.63137735  0.85129003  1.43299429
