35
opt_min/./Reactant_1985_0_opt.xyz
  C  1.53212900  3.04439400 -2.20363800
  N  0.61896301  1.98628768 -1.84197363
  C  1.04410750  0.74531435 -1.54948285
  O  2.19861532  0.38253604 -1.74325307
  C -0.02425140 -0.19282762 -1.08616055
  C -0.08401382 -1.52601436 -1.77418552
  O -1.12927623 -2.09960534 -2.03978880
  N  1.12891535 -2.03990152 -2.03448028
  C  1.29248359 -3.27185795 -2.76396138
  N -0.88407625  0.18441138 -0.15060979
  C -2.11612777 -0.53352500  0.09960078
  C -0.58322987  1.24385592  0.66521404
  C  0.82132268  1.45510060  1.03146942
  C  1.62046816  0.19608040  1.32582979
  O  1.32018005  2.54894432  1.20453133
  C -1.62294246  2.18120440  1.06882841
  C -1.22207328  3.29535795  1.99604774
  O -2.77290505  2.10835478  0.65326498
  H  2.49551609  2.59224530 -2.42939238
  H  1.16003033  3.57572915 -3.07834058
  H  1.64977919  3.74042214 -1.37091683
  H -0.32736067  2.25871601 -1.62548235
  H  1.93483822 -1.42687888 -1.92526270
  H  1.69284674 -3.08278094 -3.76191465
  H  1.97468759 -3.93117278 -2.22691351
  H  0.31654297 -3.74650729 -2.85348380
  H -2.93093016  0.19156047  0.09234638
  H -2.07362405 -0.99211099  1.08767672
  H -2.28177313 -1.28439910 -0.66704639
  H  1.03591453 -0.71757798  1.27427988
  H  2.46804290  0.12724497  0.64710747
  H  2.02247757  0.31122695  2.33136537
  H -2.11751288  3.83490930  2.29298346
  H -0.53650002  3.97499631  1.49622223
  H -0.71146529  2.90518149  2.87243448
