24
opt_min/./Reactant_2811_1_opt.xyz
  N  3.05203833 -0.80539394  1.63778983
  C  2.32982562 -0.89859483  0.76002066
  C  1.36317695 -0.96880203 -0.32620283
  C  2.09954985 -1.31897158 -1.63261559
  F  3.05766661 -0.43632380 -1.92133827
  F  1.25492715 -1.33753216 -2.67182563
  F  2.67679661 -2.52615223 -1.58372531
  C  0.77918551  0.39107146 -0.43405085
  C  0.11464322  1.38983778 -0.22532456
  C -1.12643078  1.86363616  0.37568655
 Br -0.83550064  3.48273024  1.44628138
 Br -2.35126420  2.33687610 -1.12667144
  C -1.84266127  0.72635586  1.28000196
  C -1.04706910 -0.51509785  0.91299962
  C -0.75987616 -2.00319057  1.07256678
  C  0.34270561 -2.16909767 -0.02938881
  H -2.89481043  0.69164260  1.00557469
  H -1.74842016  1.00372417  2.32919960
  H -0.07430133 -0.17165327  1.26407939
  H -1.15543155 -0.47981510 -0.17545715
  H -0.37782653 -2.25707511  2.06001427
  H -1.59172287 -2.66444090  0.83216589
  H -0.15938885 -2.36707189 -0.97863479
  H  0.97181673 -3.02955842  0.20869532
