10
opt_min/./Reactant_7_0_opt.xyz
  C  1.51373500  0.07267500  0.64689200
  O  0.57388944 -0.81550315  0.66885460
  C -0.58629456 -0.77164947  0.10706580
  C -1.05201658  0.36656996 -0.73531785
  H  2.38187352 -0.14994397  1.23333649
  H  1.42142971  1.00573083  0.11981203
  H -1.17257225 -1.66416986  0.23306667
  H -2.10045581  0.24373576 -0.98419442
  H -0.48418544  0.44391549 -1.66860216
  H -0.91963779  1.30921730 -0.19787951
