17
opt_min/./Reactant_4211_1_opt.xyz
  C  1.97295591  2.35917148 -0.83483761
  N  1.75468217  1.42374080 -0.13425381
  C  1.47616267  0.24088435  0.30028386
  C  2.55165565 -0.59922390  0.62654869
  N  3.42826057 -1.29636228  0.88300314
  C  0.10351103 -0.20948421  0.49745734
  C -0.14605909 -1.49071825  0.99425405
  C -1.44120408 -1.93028225  1.17150035
  C -2.50921980 -1.10334516  0.85747707
  C -2.26821538  0.16893006  0.36310052
  C -0.97603151  0.61923111  0.18221953
  H  2.14631003  3.39067805 -0.64250566
  H  0.68541370 -2.13638776  1.23824979
  H -1.62275516 -2.92313651  1.55695886
  H -3.52129553 -1.45098761  0.99568111
  H -3.09859324  0.81523226  0.11587093
  H -0.79593445  1.61168079 -0.20702906
