25
opt_min/./Reactant_1892_0_opt.xyz
  C  2.83635600 -0.80721100  0.49453100
  C  2.01383915  0.43784802  0.27145662
  O  2.46863118  1.54041726  0.45440059
  C  0.61653077  0.22112518 -0.17982495
  C -0.37019998  1.12744752 -0.32041742
  C -0.42321778  2.62037178 -0.24766066
  F -1.21204049  3.09051032 -1.24596011
  F -1.00785362  3.04084546  0.89499995
  F  0.72708689  3.26852774 -0.35745861
  C -1.65700077  0.38293517 -0.57771736
  C -1.98648467 -0.25009697  0.80099715
  C -0.90600278 -1.33927898  0.92830479
  C -0.04875447 -1.13070158 -0.33654678
  C -1.13657670 -0.81490036 -1.36453109
  H  3.27224380 -1.09924206 -0.46006056
  H  3.64859718 -0.56863598  1.17528964
  H  2.26128350 -1.63732275  0.88576024
  H -2.46451710  0.96327196 -1.01913165
  H -2.99444480 -0.65334751  0.82605644
  H -1.90585841  0.49582094  1.58910747
  H -1.34636910 -2.33470392  0.88589434
  H -0.33318997 -1.26280928  1.84927749
  H  0.62402955 -1.95116448 -0.57679569
  H -1.86958486 -1.60856816 -1.48210106
  H -0.73968429 -0.53739177 -2.33813402
