24
opt_min/./Reactant_3040_1_opt.xyz
  C -2.42280600 -2.25284999  0.06352302
  N -1.10480969 -1.71790110 -0.18308962
  C -0.85403558 -1.02156449 -1.31914642
  O -1.61641477 -1.00130191 -2.26389821
  C  0.53744906 -0.50338235 -1.46707350
  C  1.08733199 -0.53870002 -2.84894832
  N  1.28382138  0.00092946 -0.51498286
  C  0.96857350  0.40944176  0.76326760
  C  2.05311243  0.59004934  1.62227012
  N  2.96300537  0.70885404  2.31972735
  C -0.34252473  0.92770722  1.06980143
  C -0.54198235  1.46417105  2.46630930
  O -1.24295805  0.92819077  0.23938469
  H -3.08994836 -1.47874608  0.45188784
  H -2.35289963 -3.07156682  0.77723158
  H -2.83088486 -2.61291661 -0.87992541
  H -0.47093082 -1.66665951  0.59846701
  H  2.17545435 -0.60251339 -2.84718613
  H  0.79235883  0.36892352 -3.38040814
  H  0.66236618 -1.37635756 -3.39632859
  H  2.24324723  0.22051258 -0.78990363
  H -0.99878261  0.68457685  3.07604103
  H  0.39757301  1.76296348  2.92385927
  H -1.22964937  2.30640520  2.43281632
