37
opt_min/./Reactant_2540_0_opt.xyz
  C  2.40772600 -0.11997600 -3.45322300
  C  2.71162697 -1.21206564 -2.44526522
  O  3.58043946 -2.03956524 -2.62865665
  C  1.85289152 -1.20550007 -1.26496692
  O  1.04257242 -0.14915208 -1.15769331
  C -0.05179455 -0.03322738 -0.46118087
  C -0.63692355  1.29062216 -0.44441946
  C -1.99400558  1.48301900 -0.15210025
  C -2.53802012  2.75105605 -0.15933191
  C -1.74998095  3.85135619 -0.46392839
  C -0.40904454  3.67392593 -0.76618275
  C  0.14497919  2.41100549 -0.75667172
  C -0.70453676 -1.15603331  0.21466207
  C -1.19357199 -1.01814259  1.51646274
  C -1.83781261 -2.07346540  2.13470225
  C -2.01165146 -3.27262882  1.46337915
  C -1.53823903 -3.41454057  0.16817942
  C -0.88475911 -2.36964399 -0.45371002
  C  2.06768244 -2.20521097 -0.21525251
  C  2.07704008 -1.67367288  1.20817490
  O  2.33218552 -3.36241365 -0.45627150
  H  1.38041262 -0.20026162 -3.80306249
  H  3.08611339 -0.22065976 -4.29562186
  H  2.53418361  0.85858669 -2.99523646
  H -2.62162723  0.62988354  0.05573364
  H -3.58547184  2.88313332  0.06621532
  H -2.18389990  4.83968373 -0.46686601
  H  0.20590538  4.52901067 -1.00458829
  H  1.19446804  2.28044896 -0.97318385
  H -1.03889801 -0.08861179  2.04449140
  H -2.20194266 -1.95859821  3.14495357
  H -2.51390007 -4.09538615  1.94915959
  H -1.67670243 -4.34497601 -0.36048847
  H -0.52848324 -2.49071717 -1.46545953
  H  1.14449108 -1.92016845  1.71496880
  H  2.22720241 -0.59675334  1.24611229
  H  2.88302712 -2.17010775  1.74376294
