56
opt_min/./Reactant_3133_0_opt.xyz
  C -4.13064548  1.77855276  2.87479253
  O -3.52501542  1.33248532  1.67101276
  C -2.46106583  0.53016739  1.80878978
  O -2.01923636  0.20340043  2.87769109
  C -1.89822499  0.07999778  0.46359688
  C -2.79325526 -1.03297608 -0.05789133
  C -2.30241355 -2.31985492 -0.23636982
  C -3.12326550 -3.32465869 -0.71640100
  C -4.44699491 -3.05824955 -1.02084523
  C -4.94519793 -1.78077708 -0.83752567
  C -4.12542495 -0.77493120 -0.35764772
  C -0.52806140 -0.34937587  0.62627369
  C  0.64561624 -0.39885301  0.39569575
  C  1.92987152 -0.22756321 -0.24851662
  C  2.83716026 -1.44010582 -0.13692353
  C  4.07571098 -1.45076334 -0.76731878
  C  4.91290864 -2.54510169 -0.65241850
  C  4.52817944 -3.64089955  0.10081150
  C  3.30234424 -3.63238681  0.74200209
  C  2.46307135 -2.53848052  0.62475550
  C  2.64941659  0.94262454  0.40602289
  C  2.55255936  1.09712562  1.78481853
  C  3.22532652  2.11612796  2.43123713
  C  4.00931704  2.99969729  1.70885190
  C  4.11536274  2.85220026  0.33832955
  C  3.44296611  1.82909670 -0.30946418
  C  1.50121674  0.00858787 -1.71622304
  C  0.50504269  1.15152944 -1.99500833
  C -1.02927100  1.00315296 -1.84458370
  C -1.78585433  1.26359243 -0.52654350
  H -4.40862325  0.92573566  3.49785673
  H -3.43723025  2.41133132  3.43346356
  H -5.01208238  2.34420848  2.58166713
  H -1.27039590 -2.53157984  0.00043559
  H -2.72583240 -4.32011061 -0.85123371
  H -5.08885222 -3.84257411 -1.39590595
  H -5.97935961 -1.56502194 -1.06701938
  H -4.52946958  0.21551878 -0.20705725
  H  4.39565744 -0.59644046 -1.34428007
  H  5.87230232 -2.54133217 -1.15054374
  H  5.18329395 -4.49482801  0.19099468
  H  2.99707069 -4.47945761  1.33890049
  H  1.50789785 -2.53269975  1.12972054
  H  1.93695957  0.41380285  2.35108618
  H  3.13663612  2.22100436  3.50269899
  H  4.53409267  3.79921968  2.21191701
  H  4.72467488  3.53714965 -0.23425509
  H  3.54163860  1.74090339 -1.38092326
  H  1.09014669 -0.92520158 -2.11024878
  H  2.39467665  0.23342503 -2.30348057
  H  0.62146029  1.31926041 -3.07303448
  H  0.83094128  2.06178097 -1.48619674
  H -1.35135350  0.05313642 -2.27757460
  H -1.40684477  1.80061019 -2.49687674
  H -2.80109599  1.55426429 -0.80734418
  H -1.33192532  2.11785881 -0.01892379
