27
opt_min/./Reactant_3055_1_opt.xyz
  C  1.84658367  3.02027311  1.98039236
  N  1.45070951  2.10919866  0.93375745
  C  1.55761292  0.77137980  1.05771917
  O  1.98263448  0.21450691  2.04385441
  C  1.09676808  0.00657368 -0.19178997
  C -0.11279974  0.53636955 -0.76917903
  C -1.24095176  0.45673602 -1.18185157
  C -2.51126067 -0.13736306 -1.41613883
 Br -4.02928671  1.10234256 -1.02431390
 Br -2.70430449 -0.70612601 -3.31207694
  C -2.57818555 -1.34267736 -0.47821380
  C -1.55460117 -2.46842091 -0.73843621
  C -0.05166653 -2.19090716 -0.94760615
  C  0.70610031 -1.45219426  0.17113156
  H  1.04868336  3.73476459  2.18156791
  H  2.04308107  2.43060996  2.87396180
  H  2.75394559  3.56268470  1.70480743
  H  1.06548285  2.50120488  0.08830264
  H  1.92101920  0.01432222 -0.91222588
  H -3.57413870 -1.78843673 -0.54413425
  H -2.44880414 -0.96009417  0.53834165
  H -1.64982195 -3.14730723  0.11262554
  H -1.88294065 -3.01918548 -1.62390622
  H  0.09186791 -1.66997447 -1.89498229
  H  0.39826826 -3.17915718 -1.06687304
  H  1.62404072 -1.98784683  0.41557152
  H  0.10424737 -1.41380268  1.08006614
