24
opt_min/./Reactant_5623_1_opt.xyz
  C -1.14036600  3.00767900 -0.74185400
  C  0.15905085  2.82168651 -0.07422828
  N  0.65313557  1.65056305  0.24250356
  C  0.08116855  0.41231549  0.18489746
  C  0.98595106 -0.73832987  0.18829212
  O  0.72645421 -1.83589598  0.63557446
  N  2.25315485 -0.42724826 -0.29601515
  C  3.25239487 -1.47038602 -0.38359982
  C -1.33538542  0.23699328  0.41531495
  O -2.06020350  1.06046910  0.94990272
  O -1.77842217 -0.96164062 -0.00834197
  C -3.11409763 -1.27820405  0.33606967
  H -1.96600832  2.86943180 -0.03429708
  H -1.26972354  2.24224326 -1.50906994
  H -1.20890786  3.99918389 -1.18035208
  H  0.75543208  3.68728576  0.16632143
  H  1.62107963  1.63325377  0.56281803
  H  2.30203412  0.26656868 -1.02780424
  H  3.28835095 -1.92670090 -1.37630753
  H  2.98630617 -2.23606279  0.34295643
  H  4.23345951 -1.05889328 -0.14243090
  H -3.31923282 -2.24919494 -0.10741215
  H -3.80102625 -0.52314849 -0.05570238
  H -3.22724655 -1.32601288  1.42137595
