21
opt_min/./Reactant_373_0_opt.xyz
  C  3.70642621 -0.25353834  0.94212807
  N  2.57788106  0.57288852  0.59213117
  C  1.35335426  0.04525072  0.36150370
  O  1.11253802 -1.14621043  0.46611328
  C  0.32715123  1.03875616 -0.02862667
  C  0.67113462  2.38608976 -0.15287225
  N  0.99561430  3.48294141 -0.28851588
  N -0.93856741  0.68165760 -0.26888779
  C -1.54093570 -0.48659255 -0.23775424
  C -2.94971931 -0.46595825 -0.57692851
  C -3.65746455 -1.79039855 -0.53458239
  O -3.49667797  0.59034263 -0.86461751
  H  3.32444803 -1.19991248  1.32332526
  H  4.33218173 -0.45559520  0.06842093
  H  4.30401551  0.24045402  1.70726533
  H  2.72962365  1.56179284  0.46623211
  H -1.59454488  1.43267274 -0.53952703
  H -0.99596085 -1.37741496  0.02044658
  H -3.11307253 -2.52535816 -1.12347381
  H -3.69478254 -2.14283576  0.49538346
  H -4.67105572 -1.68457204 -0.91295901
