33
opt_min/./Reactant_2228_0_opt.xyz
  C  5.79017552 -0.24123190 -0.35673814
  N  4.36226513 -0.44818728 -0.29628858
  C  3.53262219  0.57263729  0.06818926
  O  3.91787352  1.69778979  0.35879416
  C  2.16705220  0.25795894  0.11836110
  N  0.98447244  0.19358866  0.12485810
  C -0.29709576  0.09316720  0.16361314
  C -1.08496836  1.24009912  0.58166369
  C -2.44531471  1.32707256  0.27399074
  C -3.18267703  2.42587442  0.66741050
  C -2.58556043  3.46428867  1.36311520
  C -1.23116032  3.39913608  1.65421604
  C -0.48683654  2.30319393  1.26825928
  C -0.86640289 -1.20067258 -0.21699869
  C -1.96504612 -1.73325767  0.45976186
  C -2.48042566 -2.96289140  0.10085578
  C -1.90766385 -3.69100827 -0.92997802
  C -0.80583285 -3.18107698 -1.59754859
  C -0.28936643 -1.94998859 -1.24428912
  H  6.19162077 -0.04864250  0.64173906
  H  6.26721439 -1.12289867 -0.77350788
  H  6.01041182  0.62790467 -0.97880493
  H  3.98379937 -1.35332229 -0.51486920
  H -2.91797804  0.53971197 -0.29427271
  H -4.23404797  2.47682627  0.42270480
  H -3.16645429  4.32096124  1.66969813
  H -0.75280009  4.20772257  2.18600628
  H  0.56691985  2.26338177  1.50418645
  H -2.40064447 -1.18329287  1.28153786
  H -3.33087444 -3.36348496  0.63267918
  H -2.31325486 -4.65178805 -1.21028067
  H -0.35153917 -3.74363491 -2.39983646
  H  0.56303333 -1.54897472 -1.77631563
