33
opt_min/./Reactant_3081_1_opt.xyz
  C -1.03230500  1.92942500 -3.11790400
  N -0.84495860  1.22700478 -1.87163762
  C  0.12555161  0.29366406 -1.70193624
  O  0.88843908 -0.04488852 -2.58230536
  C  0.07683953 -0.32250758 -0.33045148
  O  0.22858521  0.35845682  0.76759603
  C  0.65606634  1.57910592  0.99781075
  C  1.17550672  2.51634758 -0.04254557
  C  0.59220588  1.94247438  2.39922832
  O  0.14944340  1.23460169  3.28064996
  O  1.08317420  3.18873884  2.62568117
  C  1.05695488  3.62107481  3.97576066
  C -0.25746533 -1.72233368 -0.18341989
  C -0.40551787 -2.55577111 -1.29830308
  C -0.72704246 -3.88797442 -1.13181696
  C -0.91196862 -4.41482882  0.13674707
  C -0.76797572 -3.59734500  1.24806303
  C -0.44192845 -2.26670689  1.09678992
  H -0.34964836  1.48898080 -3.84315534
  H -0.80295760  2.99184183 -3.00968943
  H -2.05875915  1.81740421 -3.46827877
  H -1.46342373  1.45137886 -1.10645237
  H  0.39329379  3.17079906 -0.43217286
  H  1.93730848  3.14886293  0.40720610
  H  1.61867492  1.96382783 -0.86773865
  H  1.32257600  2.79816089  4.64242478
  H  0.05823447  3.97905019  4.23816037
  H  1.77801770  4.43145354  4.05480533
  H -0.25113754 -2.15963346 -2.28863260
  H -0.83345350 -4.52298745 -1.99897689
  H -1.16441087 -5.45760077  0.25931726
  H -0.90910316 -4.00454864  2.23844137
  H -0.32954009 -1.63030543  1.96085970
