30
opt_min/./Reactant_1457_1_opt.xyz
  F -0.73052800 -3.24151800  0.38704500
  C -0.62214707 -2.51207803 -0.75026345
  F  0.63596409 -2.69692583 -1.18497874
  F -1.42047990 -3.12044027 -1.64810841
  C -0.99645200 -1.08972487 -0.55853438
  C -0.22859943 -0.00709789 -0.36961052
  C  1.21137609  0.10414666 -0.18962295
  C  1.92258247  1.12474186 -0.81821258
  C  3.28728058  1.23417884 -0.63668720
  C  3.96066950  0.34217287  0.18125416
  C  3.25882933 -0.66803093  0.81817941
  C  1.89475895 -0.78888296  0.63408674
  C -1.18569198  1.15355355 -0.20489785
  C -1.82768993  0.93879477  1.18415888
  C -2.71057000 -0.30622034  0.97231176
  C -2.44414156 -0.65836467 -0.51175344
  C -2.33214111  0.73604787 -1.12865046
  H  1.40579882  1.81468223 -1.46799993
  H  3.83318246  2.02216664 -1.13491019
  H  5.02731781  0.43361038  0.32117315
  H  3.77543075 -1.36572233  1.45946624
  H  1.35008838 -1.57155009  1.14007624
  H -0.74976523  2.14026225 -0.34811703
  H -2.42604718  1.80734920  1.45503810
  H -1.07311042  0.79257418  1.95390615
  H -3.76422559 -0.08261047  1.12571072
  H -2.43755538 -1.12791040  1.63167967
  H -3.15586441 -1.35260679 -0.95285091
  H -2.04588726  0.71392078 -2.17812681
  H -3.22889572  1.33782407 -1.00253099
