24
opt_min/./Reactant_875_1_opt.xyz
  C  3.01541300  1.78248700 -0.04150800
  O  1.71696948  1.21345944 -0.11622668
  C  1.48081813  0.12456452  0.63868679
  O  2.33468491 -0.40836376  1.31520219
  C  0.11012104 -0.37254072  0.51869758
  O -0.17050246 -1.62096030  1.06222316
  C  0.65087789 -2.69167095  0.62285458
  C -0.92213363  0.36470806  0.01065022
  O -0.71162262  1.64384889 -0.34158692
  C -1.83269023  2.41325008 -0.74003205
  O -2.20885293 -0.00708412 -0.12740705
  C -2.58610395 -1.37327608 -0.12859708
  H  2.91835318  2.81095187  0.30556049
  H  3.45533753  1.76901824 -1.03913522
  H  3.63424331  1.20726931  0.65025168
  H  0.23706553 -3.58341820  1.08824817
  H  0.61526577 -2.79507589 -0.46707346
  H  1.68389639 -2.55531235  0.94295255
  H -1.43351918  3.40097328 -0.95708730
  H -2.57599827  2.47497037  0.05740436
  H -2.30336561  1.99665598 -1.63390428
  H -3.62430648 -1.37410152 -0.45586100
  H -2.50213816 -1.80867849  0.86578041
  H -1.97633640 -1.94492339 -0.83084113
