31
opt_min/./Reactant_2596_0_opt.xyz
  C -0.87469200 -2.84570200 -1.96471400
  O -0.43808622 -1.72907621 -1.20864377
  C -1.42697652 -1.08856829 -0.50673827
  O -2.56476732 -1.48166997 -0.51232498
  C -0.92556526  0.10830122  0.15201612
  C -1.90861803  1.09838406  0.55820552
  O -3.03138176  1.19987356  0.13326573
  O -1.44055898  1.91951029  1.55074279
  C -2.38106013  2.86295635  2.03620612
  N  0.42522016  0.28500248  0.31703164
  C  0.97147507  1.60242829  0.04035604
  C  1.21831845 -0.68423041  0.73281966
  C  0.68362807 -1.88049504  1.43339439
  C  2.68175222 -0.70642176  0.49853610
  C  3.12626741 -0.36986129 -0.91069648
  O  3.46110073 -1.07645216  1.34780285
  H -0.03135273 -3.14296193 -2.58350541
  H -1.17046290 -3.66433907 -1.30451136
  H -1.73053848 -2.57320124 -2.58485662
  H -1.86037395  3.44844096  2.78994501
  H -2.73369195  3.50271599  1.22431820
  H -3.24020234  2.35148319  2.47397637
  H  0.85055875  1.84163613 -1.01657062
  H  2.02040419  1.64310468  0.31963137
  H  0.42678757  2.33809417  0.62786819
  H  0.60828483 -2.73736930  0.76337181
  H  1.38368865 -2.14696497  2.22657618
  H -0.30332332 -1.67367581  1.84528454
  H  3.80424214 -1.15516934 -1.23834514
  H  2.28478921 -0.30287200 -1.59247823
  H  3.69105003  0.56051281 -0.92556963
