10
opt_min/./Reactant_4241_1_opt.xyz
  O  2.88813892 -0.84774203  0.48997414
  C  2.68168149 -0.14622679 -0.38985077
  O  2.49209306  0.54765571 -1.27844088
  C -0.31411327 -0.29709481  0.46454002
  C -0.73308666  0.41968273 -0.39373421
  C -3.79767786  0.43155619  0.24993542
  O -3.66460027 -0.25929652  1.15127206
  O -3.94721338  1.13750980 -0.63822896
  H  0.04781532 -0.92552820  1.22418454
  H -1.09291839  1.05055761 -1.15243152
