21
opt_min/./Reactant_5033_1_opt.xyz
  C  3.37637398  2.01789402 -0.12778809
  N  2.37718664  0.98479798 -0.22079120
  C  2.63243757 -0.20320087 -0.81664573
  O  3.69300426 -0.49201974 -1.33568205
  C  1.49961029 -1.14692523 -0.81296088
  O  0.39092624 -0.81347645 -0.25683517
  C -0.71394575 -1.52752730 -0.16516069
  C -0.82387701 -2.82964088 -0.67802668
  N -0.87915783 -3.90752590 -1.07210572
  C -1.85661074 -0.90314268  0.51549842
  O -2.93685515 -1.41892413  0.65193872
  O -1.53013977  0.33213329  0.95031648
  C -2.54462351  1.06368955  1.62716433
  H  2.92426751  2.99372290 -0.29907141
  H  4.13320997  1.82400055 -0.88684136
  H  3.85843003  2.01370582  0.85343508
  H  1.47507779  1.14841354  0.19772871
  H  1.63133365 -2.11635109 -1.28131262
  H -2.32967242  1.06613119  2.69699878
  H -3.51723194  0.60278351  1.44863222
  H -2.52541776  2.08223661  1.24211638
