35
opt_min/./Reactant_5705_0_opt.xyz
  C  4.51027700 -0.83770000 -0.39628900
  C  3.54431608  0.30234994 -0.14066970
  O  3.88117131  1.34391710  0.40543183
  N  2.29480652 -0.03904729 -0.50982632
  N  1.30124201  0.82640053 -0.48040927
  C  1.57309910  2.21281954 -0.83893514
  C  0.07036697  0.42405065 -0.25445425
  C -0.24666145 -0.99278058 -0.02551927
  C -1.23772179 -1.31700246  0.90421629
  C -1.58024054 -2.63681327  1.12848505
  C -0.95559879 -3.64970279  0.42086303
  C  0.01675555 -3.33573877 -0.51532812
  C  0.37635622 -2.01980971 -0.73566740
  C -1.06901722  1.34700053 -0.19807754
  C -2.22145835  1.04374380 -0.92652312
  C -3.32857630  1.86855789 -0.86466253
  C -3.31204981  2.99874037 -0.06309434
  C -2.18273426  3.29809281  0.68169851
  C -1.06845575  2.48281859  0.61453768
  H  4.49966774 -1.50118832  0.46561272
  H  5.51485888 -0.44300560 -0.51689562
  H  4.20614937 -1.40109417 -1.27203283
  H  2.01632406  2.72760637  0.01347641
  H  2.31265422  2.21502858 -1.63898141
  H  0.66475276  2.70928613 -1.16827356
  H -1.72529412 -0.52945839  1.45980157
  H -2.33906431 -2.87440529  1.85977920
  H -1.22472594 -4.68034435  0.59886687
  H  0.49916212 -4.12296599 -1.07561433
  H  1.13404053 -1.77828024 -1.46175685
  H -2.23441420  0.16142646 -1.54917531
  H -4.20903587  1.62696369 -1.44138391
  H -4.17941715  3.63957421 -0.01417751
  H -2.17187749  4.16888367  1.32001243
  H -0.20301866  2.70573959  1.22006214
