22
opt_min/./Reactant_3701_0_opt.xyz
  C  3.10563357 -0.88962400  1.28088410
  N  1.75504176 -0.63004951  0.82547490
  C  1.13230061  0.54697583  1.24401993
  O  1.71694784  1.37665822  1.91175014
  C -0.22103769  0.71432996  0.72958647
  C -1.03554851  1.63311151  1.38102886
  N -1.69116322  2.39631387  1.94463038
  N -0.58409980  0.00215618 -0.37643820
  C -1.69115840 -0.12157609 -1.06611083
  C -1.67551657 -0.97390701 -2.29200325
  C -2.98244648  0.51389158 -0.68526679
  H  3.12230118 -1.44043626  2.22443155
  H  3.59309119  0.07049353  1.42941169
  H  3.64009128 -1.45680739  0.51943944
  H  1.18227345 -1.46062438  0.78638388
  H  0.21983286 -0.49478469 -0.75954042
  H -1.94872548 -0.37954105 -3.16338441
  H -0.69553712 -1.41292738 -2.46859122
  H -2.40456591 -1.77799906 -2.20750760
  H -3.46220451  0.93910986 -1.56440713
  H -2.83757075  1.29820145  0.04909487
  H -3.66130158 -0.23180142 -0.27042624
