30
opt_min/./Reactant_2056_1_opt.xyz
  C  3.45561486  0.64447814  2.51261027
  O  2.09320464  0.82566163  2.14017260
  C  1.65158331  0.15384050  1.08552486
  O  2.32452846 -0.56915903  0.39881991
  C  0.15104953  0.36459519  0.82180853
  O -0.51723604  1.16929325  1.76577861
  C -0.24678393  2.55323027  1.81999278
  C -0.49988124 -0.96541972  0.94695042
  C -1.21758757 -1.80063823  0.42934436
  C -2.00283111 -2.50088539 -0.57499908
 Br -0.77697078 -3.69822236 -1.56766330
 Br -3.37172530 -3.66215441  0.29653416
  C -2.77424546 -1.61984853 -1.62869542
  C -1.99697126 -0.49813514 -2.40338988
  C -1.11265428  0.00046833 -1.26318342
  C -0.01180804  0.89842521 -0.72025742
  H  4.03647689  1.50235362  2.17030847
  H  3.48459955  0.58199502  3.59846203
  H  3.84697611 -0.26805814  2.06034192
  H -0.70841307  2.88727930  2.74759798
  H -0.70592174  3.09627442  0.98713073
  H  0.82334642  2.76594546  1.85185468
  H -3.22901219 -2.31626830 -2.33687153
  H -3.58125803 -1.13171215 -1.07513835
  H -1.41923029 -0.91419010 -3.22818707
  H -2.72238625  0.21402773 -2.79798802
  H -1.86161543  0.11985371 -0.47189532
  H -0.54557476 -0.92361479 -1.17560689
  H  0.93628264  0.74827461 -1.23612742
  H -0.23779120  1.95973543 -0.67257371
