14
opt_min/./Reactant_1147_0_opt.xyz
  C -1.39962435 -1.08898525 -0.58171143
  C -0.26609931 -0.25727645 -0.08650529
  C -0.53018157  1.13102525  0.38053939
  N  0.91984801 -0.80413655 -0.01593067
  N  2.09292895 -0.38217540  0.38019171
  C  2.37614485  0.78073642  0.87194078
  N  2.79705079  1.74855627  1.34347957
  H -1.92581902 -0.57150719 -1.38478712
  H -1.05886528 -2.05563207 -0.95112794
  H -2.12256134 -1.26452214  0.21807060
  H  0.37565462  1.73387311  0.35096752
  H -1.29151768  1.60057979 -0.24148603
  H -0.89639299  1.12720608  1.41148297
  H  0.98492621 -1.77088032 -0.34782107
