31
opt_min/./Reactant_4981_0_opt.xyz
  C  1.56784000  2.51960600 -1.36660800
  C  1.25655919  1.18348215 -0.75885181
  N -0.03776693  0.89845863 -0.62097449
  C -0.68843251 -0.07081954  0.02720081
  C -2.10238868 -0.19238361  0.02764298
  C -2.69561200 -1.18467780  0.83088005
  C -4.06095649 -1.35367372  0.86857865
  C -4.89193984 -0.54474049  0.10655692
  C -4.32876387  0.43620305 -0.69563813
  C -2.96307352  0.61210907 -0.74129714
  C  2.32298160  0.29786204 -0.35398220
  C  3.53913070  0.82326517  0.10736503
  C  4.57797688 -0.00798823  0.47125994
  C  4.44343487 -1.38370858  0.37793637
  C  3.25741033 -1.91950748 -0.09896126
  C  2.21098526 -1.09656156 -0.45900814
  H  1.50425377  3.32677798 -0.63063185
  H  2.57102942  2.52109662 -1.78516753
  H  0.86529778  2.74808966 -2.17083894
  H -0.65600853  1.58646596 -1.04928638
  H -0.10285347 -0.75149610  0.62143041
  H -2.05615038 -1.81737380  1.42863451
  H -4.48831527 -2.12219281  1.49829679
  H -5.96236733 -0.67919108  0.13256109
  H -4.96766334  1.06739470 -1.29848477
  H -2.56361234  1.38186534 -1.39053057
  H  3.65352684  1.89216417  0.20266545
  H  5.50234797  0.41975475  0.83481521
  H  5.25685767 -2.03236471  0.66683864
  H  3.15208126 -2.99099079 -0.19633616
  H  1.31298069 -1.52926629 -0.87370872
