21
opt_min/./Reactant_4401_0_opt.xyz
  C -2.14140700  0.00293400  0.53843300
  N -0.94364651 -0.80296842  0.68331701
  C -1.03501278 -2.16253879  0.15700035
  C  0.04852699  0.01017206  0.03577749
  C  1.47879917 -0.19316342  0.14974622
  C  1.92735920 -1.23920565  1.14343901
  O  2.26996822  0.47107427 -0.49787306
  C -0.56067754  1.01284629 -0.64420440
  C  0.01302695  2.09006569 -1.47791164
  O -1.90798379  0.98734206 -0.46683312
  H -3.02463174 -0.58893509  0.28402750
  H -2.32947674  0.54062418  1.48312945
  H -1.87801534 -2.27644575 -0.53113464
  H -0.12570518 -2.42272014 -0.38069158
  H -1.16713703 -2.85746129  0.98803138
  H  2.09108941 -2.18283032  0.62515498
  H  1.17769023 -1.38448133  1.91448008
  H  2.87512385 -0.93162695  1.57810395
  H  0.69364458  2.69500980 -0.88070491
  H -0.78484064  2.70974685 -1.87674472
  H  0.60209811  1.66180886 -2.28693779
