22
opt_min/./Reactant_3475_1_opt.xyz
  C  4.57181894 -0.93379520  0.47653399
  C  3.24692450 -1.45415163 -0.04178685
  O  3.08938542 -2.53923249 -0.57804559
  C  2.19141349 -0.56305800  0.13836743
  N  1.26509355  0.16098230  0.25898179
  C  0.23686884  0.92663630  0.38189033
  C  0.41077174  2.17186124  1.00760025
  N  0.53489640  3.18634490  1.53246989
  C -1.08055206  0.51981434 -0.09937697
  C -1.35561863 -0.82072458 -0.37110334
  C -2.60675961 -1.18920080 -0.82599205
  C -3.59149943 -0.23244895 -1.01115833
  C -3.32373470  1.10049589 -0.74033453
  C -2.07566146  1.48093391 -0.28749884
  H  4.43764137 -0.19583394  1.26242172
  H  5.15590708 -1.77391750  0.84327974
  H  5.11429750 -0.47489928 -0.34850819
  H -0.59169382 -1.57149640 -0.22584004
  H -2.81635045 -2.22743525 -1.03433177
  H -4.56926247 -0.52184977 -1.36570329
  H -4.08926241  1.84687577 -0.88543468
  H -1.86117080  2.51773913 -0.07564495
