23
opt_min/./Reactant_1210_0_opt.xyz
  C -1.64111067  2.65336350 -1.32364373
  O -0.88089420  1.49505638 -1.01248237
  C -1.22382556  0.81882149  0.10940156
  O -2.14415044  1.12969083  0.81565578
  C -0.32705223 -0.32466166  0.30810572
  O  0.80787140 -0.53709689 -0.32584306
  C  1.55145944  0.10412213 -1.15301852
  C  2.80269644 -0.61847650 -1.57210303
  C  1.42818874  1.40164693 -1.67797631
  N  1.55695304  2.43450159 -2.17097620
  C -0.68958392 -1.38579619  1.26086789
  O -1.71650588 -1.45347807  1.87987897
  O  0.29622786 -2.30884146  1.33867829
  C  0.05500617 -3.39849210  2.21575569
  H -1.00587582  3.26271562 -1.96284687
  H -1.90361202  3.18477013 -0.40796904
  H -2.55449910  2.36840199 -1.84847967
  H  2.72707050 -1.66414529 -1.28528016
  H  3.67297949 -0.18004022 -1.08191234
  H  2.94920664 -0.53732915 -2.64663226
  H -0.54736532 -4.15823345  1.71362750
  H  1.02845366 -3.80430154  2.48074607
  H -0.47660504 -3.05632957  3.10553525
