28
opt_min/./Reactant_5321_0_opt.xyz
  C  3.99976300 -2.53196300 -0.15077800
  N  2.78482296 -1.76209376 -0.25768204
  C  2.81892852 -0.44866855 -0.56920743
  O  3.83733423  0.16978232 -0.79729185
  C  1.46115720  0.19076187 -0.60350519
  O  0.50563175 -0.58356777 -0.19734084
  C -0.78905247 -0.65516613 -0.12383635
  C -1.74455734  0.42163416 -0.52412437
  C -1.21052223 -1.97334525  0.34425541
  C -2.68766314 -2.21459539  0.49269943
  O -0.37773602 -2.83405793  0.59035845
  C  1.38297301  1.62250093 -0.96568497
  O  1.98768702  2.14175825 -1.86307906
  O  0.61372724  2.31420738 -0.08913050
  C  0.58279839  3.72530989 -0.24396266
  H  3.83144219 -3.53568300 -0.53595906
  H  4.77177938 -2.03205173 -0.73508368
  H  4.33760331 -2.59077094  0.88727617
  H  1.91616830 -2.21599250 -0.01204278
  H -1.20997703  1.34203692 -0.72816937
  H -2.46247049  0.60784802  0.27317300
  H -2.29683474  0.14145063 -1.42128445
  H -2.86291491 -3.27708001  0.63891329
  H -3.04249155 -1.68068974  1.37352884
  H -3.24320772 -1.86570189 -0.37229763
  H  0.53477794  4.15873569  0.75249582
  H  1.48047017  4.06250613 -0.76591453
  H -0.29752183  4.01627524 -0.82267167
