30
opt_min/./Reactant_5492_1_opt.xyz
  C  3.48318400 -1.50861900  0.50754600
  O  2.13160264 -1.65244041  0.11115654
  C  1.44409052 -0.51502996 -0.03575730
  O  1.90506346  0.58012894  0.23597526
  C  0.10850887 -0.71245086 -0.58443034
  C -0.26438103 -1.98625811 -1.18951655
  C -1.75480148 -2.30652559 -1.18088237
  O  0.53308003 -2.80027934 -1.60707811
  N -0.72978407  0.37023424 -0.62734283
  C -1.41024516  0.61784244 -1.88097094
  C -0.83000157  1.22062719  0.39086112
  C -0.37300027  0.79933610  1.74280262
  C -1.35485939  2.57982372  0.20605542
  C -1.06880401  3.54487099  1.32895210
  O -1.96038441  2.94359839 -0.78858341
  H  3.87212051 -2.51669221  0.62247997
  H  3.54929834 -0.95801306  1.44972792
  H  4.04945620 -0.96762023 -0.25402251
  H -1.86626761 -3.34395001 -0.87347691
  H -2.31397595 -1.66496673 -0.50619591
  H -2.16636675 -2.22482345 -2.18454321
  H -1.10859317  1.58990388 -2.27659420
  H -2.49051273  0.65686757 -1.74075437
  H -1.13764226 -0.15545403 -2.59361706
  H -0.36537347 -0.28970254  1.80349111
  H  0.64413513  1.14043465  1.94622244
  H -1.03515664  1.19911323  2.50715544
  H -1.35067076  4.54434905  1.00817961
  H -0.01203672  3.52379306  1.58227608
  H -1.64388134  3.28745932  2.21554422
