28
opt_min/./Reactant_5540_0_opt.xyz
  C  4.29584300  1.42449000  1.35159900
  O  2.89221118  1.22538121  1.32532504
  C  2.46378591  0.24972255  0.51226349
  O  3.20430792 -0.44347079 -0.15387158
  N  1.10002471  0.25456334  0.51997890
  N  0.35730812 -0.70158543  0.07419131
  C  0.85508970 -2.06678093 -0.04970907
  C -0.90093399 -0.42745847 -0.20889740
  C -1.99590040 -1.36412530 -0.49065957
  O -2.99884826 -1.02578801 -1.06880606
  O -1.80139220 -2.61324456 -0.02915379
  C -2.88850454 -3.50899538 -0.22747810
  C -1.34173828  1.01875832 -0.17355622
  O -2.18159965  1.44174789  0.56798191
  O -0.68935778  1.72920517 -1.08461152
  C -1.00516296  3.11620132 -1.13302244
  H  4.67564930  1.61100511  0.34464410
  H  4.46449424  2.28713141  1.99066187
  H  4.80088061  0.54446895  1.75765166
  H  1.93100347 -2.02774638 -0.21651968
  H  0.37271770 -2.56698442 -0.88409588
  H  0.63661122 -2.61358765  0.86696452
  H -3.12490967 -3.58884157 -1.29017231
  H -2.56478246 -4.46757992  0.16953358
  H -3.77312280 -3.15128277  0.30203093
  H -2.07197638  3.25154260 -1.32096560
  H -0.41523249  3.53294639 -1.94487751
  H -0.74578272  3.59058056 -0.18521131
