16
opt_min/./Reactant_3826_0_opt.xyz
  C  3.50670100  0.31464800 -0.41809100
  N  2.32184346 -0.05444643 -1.11678677
  N  1.25265173  0.08880185 -0.49176283
  N  0.08394402 -0.19058407 -0.92485574
  C -0.89237179  0.08991362  0.03478477
  O -0.63105722  0.54549197  1.13873334
  N -2.12558446 -0.18361633 -0.42375095
  C -3.30963801 -0.05354774  0.38309558
  H  3.30051290  0.72123832  0.58306364
  H  4.04384568  1.05360334 -1.01204675
  H  4.14752719 -0.56285061 -0.32645213
  H  1.26191032  0.47100145  0.50514246
  H -2.18921011 -0.59598141 -1.33970236
  H -4.03130856  0.60527907 -0.10216117
  H -3.01152705  0.37740098  1.33682534
  H -3.77608563 -1.02520491  0.55914823
