31
opt_min/./Reactant_4573_1_opt.xyz
  C -3.49439200 -2.64592500  0.06844400
  N -2.44510340 -1.65900798  0.01985826
  C -1.24623246 -1.83792179  0.63743693
  O -1.00252694 -2.82161492  1.31401195
  C -0.30350090 -0.70457536  0.46065485
  C -0.80123885  0.66865042  0.65320472
  O -0.29274261  1.65415070  0.14176781
  N -1.92533815  0.76300169  1.41897725
  C -2.52282326  2.03777782  1.72953571
  N  0.98408486 -0.95539183  0.19005733
  C  1.34638239 -2.31256812 -0.18081428
  C  1.95064963 -0.05225675  0.27766311
  C  3.30629943 -0.17957478 -0.19400205
  O  3.83518434 -1.11455317 -0.76883675
  O  3.98219776  0.95792672  0.09081839
  C  5.33335879  0.99355726 -0.33055855
  H -3.66598992 -3.08597683 -0.91604638
  H -4.42343320 -2.19799821  0.42547257
  H -3.17575674 -3.42501229  0.75941120
  H -2.56114296 -0.87568101 -0.60240309
  H -2.22051137 -0.03266465  1.96108515
  H -2.03198387  2.78680080  1.11005308
  H -2.38219712  2.29489339  2.78168689
  H -3.59088423  2.01921694  1.50563289
  H  1.57857166 -2.88106266  0.72000411
  H  0.52677016 -2.80650913 -0.69535016
  H  2.22836629 -2.28522407 -0.81784514
  H  1.69677391  0.93359185  0.62930119
  H  5.39247410  1.00618939 -1.42167334
  H  5.75692312  1.90586994  0.08153053
  H  5.87215764  0.11697792  0.03715230
