30
opt_min/./Reactant_2289_0_opt.xyz
  C -0.31607500  0.40953200  2.71436400
  C -1.07647138 -0.15037649  1.55355978
  O -0.50193023 -0.91312908  0.65492940
  C  0.76088599 -1.19690403  0.43654546
  C  1.94678444 -0.46664586  0.76593814
  C  1.97359977  0.93701313  0.85145906
  C  3.15687131  1.60426763  1.08555537
  C  4.34413382  0.90380140  1.23459852
  C  4.34228261 -0.47792007  1.11161770
  C  3.16691953 -1.15548756  0.87105236
  C -2.49533026  0.02734303  1.40828822
  C -3.23008522  0.85671696  2.27030912
  C -4.59021620  1.01862071  2.10689263
  C -5.26412514  0.36804569  1.08581025
  C -4.55330518 -0.44687994  0.21648881
  C -3.19469312 -0.61216094  0.36786117
  H -0.92557500  0.33013290  3.61322121
  H -0.03755013  1.45712115  2.58703874
  H  0.59390967 -0.16909599  2.86631391
  H  0.87326755 -2.09653833 -0.15553025
  H  1.06908596  1.49872435  0.67522679
  H  3.15681762  2.68337439  1.14218370
  H  5.26640101  1.43199173  1.42502771
  H  5.26803385 -1.02770590  1.20583334
  H  3.16878085 -2.23149548  0.77515912
  H -2.73370244  1.38835143  3.06669103
  H -5.13288254  1.66273903  2.78408073
  H -6.32896675  0.49854453  0.96452461
  H -5.06644972 -0.95400548 -0.58788489
  H -2.65295652 -1.24609051 -0.31735126
