29
opt_min/./Reactant_4996_0_opt.xyz
  C  1.70234600 -2.34166600 -1.18348200
  C  0.79826303 -1.31115349 -0.60820486
  N  1.12129007 -0.07363911 -0.31772843
  C  2.44463501  0.40898667 -0.65041368
  C  0.25780445  0.79734058  0.28725929
  C  0.56037404  2.15780162  0.56186729
  C -0.53084565  2.93511407  1.28543000
  O  1.62230909  2.72943429  0.29399508
  C -1.06246114  0.25254890  0.69977154
  C -1.20743410 -0.37119672  1.93495960
  C -2.43621357 -0.86600454  2.33307392
  C -3.53628728 -0.74655259  1.50039726
  C -3.40202405 -0.13165160  0.26687869
  C -2.17348666  0.36279946 -0.13188755
  H  1.81270882 -2.22117547 -2.26524570
  H  1.26823657 -3.32374404 -1.00844063
  H  2.69657216 -2.32964337 -0.73683881
  H -0.21898551 -1.60877735 -0.41034291
  H  2.36041953  1.32879865 -1.22885232
  H  2.98556882  0.66152191  0.26163455
  H  2.99502306 -0.33281442 -1.22167916
  H -0.28537890  3.99342371  1.24327902
  H -1.51332981  2.76586395  0.85606532
  H -0.55444169  2.62686580  2.33043739
  H -0.34834127 -0.46207614  2.58535100
  H -2.53682882 -1.34424459  3.29648110
  H -4.49632265 -1.13124041  1.81169652
  H -4.25756190 -0.03708072 -0.38642333
  H -2.06761843  0.84220231 -1.09553816
