20
opt_min/./Reactant_331_0_opt.xyz
  C  2.70632400 -0.21510500 -0.14606600
  C  1.29629792 -0.52297523 -0.61518796
  O  1.14065550 -1.27043352 -1.56312124
  C  0.17627573  0.06471535  0.14733001
  C  0.51895769  0.88098657  1.36497918
  C -1.10598494 -0.13372747 -0.23409764
  C -2.24892497  0.46832005  0.53115196
  C -1.48229544 -0.94078129 -1.43175475
  H  3.04625454 -1.05106830  0.46347539
  H  2.80905107  0.69754704  0.42397098
  H  3.34875578 -0.16646439 -1.02257586
  H  1.03423671  1.79513711  1.07929735
  H -0.37347934  1.16412357  1.91297158
  H  1.15549137  0.31010851  2.03659958
  H -2.25036621  0.13173210  1.56638915
  H -3.19933042  0.19368887  0.08361588
  H -2.17809894  1.55561603  0.53687573
  H -1.11159829 -1.95936174 -1.32579152
  H -0.99633609 -0.55059517 -2.32469544
  H -2.55639213 -0.95502939 -1.58063723
