28
opt_min/./Reactant_3199_1_opt.xyz
  C  0.92893200  4.21215900 -0.05902600
  O  0.91021660  2.80947214 -0.27499027
  C -0.24304672  2.17411450  0.01085150
  O -1.23989123  2.73194701  0.40494003
  C -0.12428078  0.72864413 -0.23190810
  O  1.06517915  0.34864782 -0.60713372
  C  1.47869920 -0.81534742 -1.00588670
  C  2.85934026 -0.98401015 -1.40241405
  C  3.75874892  0.21401918 -1.21192586
  O  3.25576957 -2.04951014 -1.84210663
  C -1.27134849 -0.15155839 -0.02710767
  C -2.54616472  0.24939487 -0.43611505
  C -3.63712263 -0.56922597 -0.22070862
  C -3.48203538 -1.79444805  0.40825908
  C -2.22542423 -2.19237806  0.83471543
  C -1.12717566 -1.38243609  0.62051600
  H  1.19767466  4.42462784  0.97775938
  H -0.05381113  4.63905640 -0.26766877
  H  1.67847519  4.62166163 -0.73239129
  H  0.80195513 -1.65700034 -1.09474257
  H  4.62002319  0.12850671 -1.86806650
  H  4.11233938  0.22136566 -0.18154232
  H  3.22493837  1.14149600 -1.39601568
  H -2.66804190  1.20283513 -0.92336315
  H -4.61575772 -0.25007943 -0.54620511
  H -4.33701764 -2.43246340  0.57246789
  H -2.09941616 -3.13719927  1.34217680
  H -0.16183048 -1.68913489  0.99651374
