16
opt_min/./Reactant_283_0_opt.xyz
  C  3.81553000  1.25249200  0.23230400
  N  2.61463374  0.85161777  0.10125360
  C  1.49995064  0.48185835 -0.01910992
  C  0.19781950  0.05742251 -0.16099861
  C -0.48004303 -0.54316782  0.91736190
  C -1.78125734 -0.96583542  0.76394084
  C -2.44198368 -0.80627145 -0.44651896
  C -1.78182862 -0.21490470 -1.51316392
  C -0.47932734  0.21415017 -1.38492523
  H  4.31713449  1.71452949 -0.59559838
  H  4.31800559  1.11794477  1.17096427
  H  0.03318807 -0.66687699  1.85967435
  H -2.29276653 -1.42623072  1.59676386
  H -3.46235152 -1.14185649 -0.55190072
  H -2.28933403 -0.08737583 -2.45844481
  H  0.03531839  0.67398134 -2.21577688
