31
opt_min/./Reactant_3203_1_opt.xyz
  C  2.40488411  2.93446771 -0.50593866
  O  1.67323532  1.71899922 -0.60172541
  C  2.07190406  0.72371822  0.19847028
  O  2.95969148  0.80765921  0.99374651
  C  1.23886307 -0.53337452 -0.04218607
  C  2.17597326 -1.71126383 -0.41405527
  C  1.47009364 -2.90962033 -0.98355077
  O  3.35582764 -1.67329174 -0.21757624
  C  0.15936465 -0.32599920 -0.98359999
  C -1.01690907 -0.27153440 -1.24946682
  C -2.39046230 -0.16231114 -0.90484461
 Br -3.63352805  0.27702113 -2.40131783
 Br -2.95511156 -1.96250545 -0.24039010
  C -2.51016579  0.86933201  0.22816230
  C -1.23446941  1.20724774  1.03187919
  C -0.42084937  0.19949977  1.87088539
  C  0.43504423 -0.91947662  1.24132221
  H  2.08816964  3.49413940  0.37652446
  H  2.18493843  3.49703637 -1.40973895
  H  3.47311105  2.72589259 -0.43036768
  H  0.59017110 -2.63400208 -1.55606168
  H  2.16179637 -3.47913787 -1.59910584
  H  1.15894013 -3.54640314 -0.15575447
  H -2.80035269  1.81360022 -0.24349939
  H -3.32540962  0.57241473  0.88966292
  H -1.58041674  1.94930866  1.75774176
  H -0.55304263  1.74553817  0.36823482
  H -1.08351716 -0.28887251  2.58831468
  H  0.26834476  0.82528852  2.44492468
  H -0.19785653 -1.76796992  0.97729206
  H  1.14549837 -1.25494352  2.00121924
