26
opt_min/./Reactant_5129_0_opt.xyz
  C  2.45382795 -0.27273218  2.57558800
  C  3.38303155 -0.26419500  1.37873307
  O  4.58479930 -0.40374207  1.49006395
  C  2.74367178 -0.03552759  0.08628667
  C  3.56339731 -0.08227697 -1.04728799
  N  4.30738416 -0.16344386 -1.92243926
  O  1.42295073  0.15226541  0.09720886
  C  0.60149255  0.41322124 -0.86851374
  C  1.05872767  0.58035392 -2.27666451
  C -0.78720639  0.54016434 -0.48461855
  C -1.13506118  0.75148979  0.85910247
  C -2.45651410  0.86118841  1.23657662
  C -3.46623169  0.75990631  0.29086913
  C -3.13803297  0.54369072 -1.03864007
  C -1.81840056  0.43468534 -1.42818340
  H  1.51670455 -0.77677839  2.35711404
  H  2.24784236  0.75628109  2.86909599
  H  2.95689255 -0.76634221  3.40303509
  H  1.27021832 -0.38613157 -2.73854810
  H  0.31447067  1.10143549 -2.87127765
  H  1.98437323  1.15632333 -2.29654855
  H -0.35710169  0.84408757  1.60138576
  H -2.70275804  1.02956627  2.27428897
  H -4.49941492  0.84560132  0.58911584
  H -3.91871827  0.45579283 -1.77929556
  H -1.59026322  0.23946237 -2.46401101
