30
opt_min/./Reactant_5247_0_opt.xyz
  C  4.65221200  2.07209400 -0.20974900
  O  3.33899295  1.65068690 -0.51770674
  C  3.01460551  0.38995320 -0.08506867
  O  3.81311885 -0.29522069  0.53690854
  C  1.68370546  0.08661761 -0.47404606
  N  1.03680113 -1.07858438 -0.25525961
  C  1.84710196 -2.20123493  0.18136429
  C -0.28119637 -1.22200063 -0.42522325
  C -0.79701275 -2.57736045 -0.82397342
  C -1.22068411 -0.14065854 -0.21617764
  C -0.89524683  0.98497788  0.56152716
  C -1.82861019  1.95296570  0.85990736
  C -3.12507992  1.86110399  0.37686878
  C -3.47618403  0.75515135 -0.37792892
  C -2.55068108 -0.22878042 -0.66040905
  H  4.77698506  3.04405701 -0.68097587
  H  4.78651773  2.15273587  0.87205139
  H  5.38486275  1.36008891 -0.59774653
  H  1.14294216  0.86349884 -0.98627770
  H  1.23285867 -3.06290438  0.41884249
  H  2.39649495 -1.89422445  1.07169059
  H  2.58858405 -2.45862395 -0.57494132
  H -1.25479054 -3.11351904  0.00929613
  H -0.00382498 -3.18832556 -1.24590440
  H -1.55537558 -2.46842858 -1.59556114
  H  0.09493983  1.08043397  0.98122889
  H -1.53929190  2.79536824  1.47121940
  H -3.84796255  2.63332285  0.59056233
  H -4.48501481  0.65414588 -0.75194429
  H -2.87628083 -1.07245353 -1.24735818
