33
opt_min/./Reactant_2075_0_opt.xyz
  C  5.79017552 -0.24123190 -0.35673814
  N  4.36226513 -0.44818728 -0.29628858
  C  3.53262219  0.57263730  0.06818924
  O  3.91787353  1.69778983  0.35879414
  C  2.16705220  0.25795895  0.11836108
  N  0.98447243  0.19358866  0.12485808
  C -0.29709577  0.09316720  0.16361312
  C -1.08496837  1.24009912  0.58166368
  C -2.44531471  1.32707257  0.27399073
  C -3.18267702  2.42587442  0.66741050
  C -2.58556043  3.46428866  1.36311523
  C -1.23116031  3.39913608  1.65421604
  C -0.48683654  2.30319393  1.26825926
  C -0.86640289 -1.20067258 -0.21699869
  C -1.96504611 -1.73325767  0.45976187
  C -2.48042567 -2.96289140  0.10085578
  C -1.90766385 -3.69100828 -0.92997801
  C -0.80583284 -3.18107700 -1.59754858
  C -0.28936643 -1.94998861 -1.24428911
  H  6.19162075 -0.04864250  0.64173906
  H  6.26721440 -1.12289868 -0.77350787
  H  6.01041183  0.62790467 -0.97880493
  H  3.98379937 -1.35332228 -0.51486920
  H -2.91797805  0.53971197 -0.29427273
  H -4.23404796  2.47682628  0.42270481
  H -3.16645427  4.32096123  1.66969816
  H -0.75280009  4.20772256  2.18600630
  H  0.56691984  2.26338175  1.50418645
  H -2.40064447 -1.18329286  1.28153785
  H -3.33087445 -3.36348495  0.63267917
  H -2.31325486 -4.65178805 -1.21028066
  H -0.35153917 -3.74363493 -2.39983644
  H  0.56303335 -1.54897475 -1.77631562
