28
opt_min/./Reactant_2185_1_opt.xyz
  N  3.30045293 -2.65829211 -0.79541991
  C  2.25042030 -2.21694531 -0.93443308
  C  0.96302154 -1.69198914 -1.17635735
  C  0.30957874 -2.31254506 -2.26969577
  N -0.20332362 -2.85155433 -3.14206431
  C  0.39501082 -0.69572188 -0.44009316
  C -0.90199908 -0.13151951 -0.83254469
  C -1.86818148  0.09518264  0.14809757
  C -3.10279127  0.60493139 -0.20106177
  C -3.38212077  0.91282609 -1.52342751
  C -2.41872720  0.71080693 -2.49899951
  C -1.18477965  0.18817135 -2.15852979
  C  1.02916607 -0.16061758  0.76349580
  C  1.70642531 -0.98123085  1.66476151
  C  2.29557300 -0.44478934  2.79527230
  C  2.22172523  0.91761997  3.03636248
  C  1.54701673  1.73960523  2.14726114
  C  0.94822196  1.20948408  1.02320833
  H -1.64836593 -0.15256575  1.17700981
  H -3.84841515  0.76360729  0.56396406
  H -4.34734167  1.31474732 -1.79037305
  H -2.62680268  0.96029136 -3.52772297
  H -0.43024735  0.05457754 -2.91943671
  H  1.74841935 -2.04472058  1.49549314
  H  2.81265276 -1.09365535  3.48638519
  H  2.68495483  1.33675265  3.91565175
  H  1.48648999  2.80288570  2.33328316
  H  0.43125615  1.85621873  0.32614722
