31
opt_min/./Reactant_5668_1_opt.xyz
  C -3.96184400  2.01432300 -1.06752900
  O -2.76400395  1.39139089 -0.63517891
  C -2.67451419  0.05842886 -0.90234733
  O -3.56597175 -0.52670780 -1.47509263
  C -1.46314418 -0.53586809 -0.36323490
  C -1.36700497 -1.97727001 -0.08297966
  C -2.60504659 -2.80361603 -0.28917087
  O -0.31064386 -2.48431543  0.24155913
  N -0.30757602  0.16681502 -0.23662191
  C -0.04688331  1.30372635 -1.12048870
  N  0.53528202 -0.21208540  0.62637030
  C  1.87269879  0.06610552  0.61449120
  C  2.48073877  0.41880446  1.82421721
  C  3.84510654  0.60358430  1.88962672
  C  4.63478997  0.41185788  0.76498382
  C  4.04599122  0.02689525 -0.42774543
  C  2.67761445 -0.13645390 -0.51480545
  H -4.82104034  1.59522746 -0.54011659
  H -3.85375848  3.07129466 -0.83691477
  H -4.10379611  1.86381853 -2.13947925
  H -3.44608483 -2.37242606  0.24626926
  H -2.41153358 -3.81402303  0.06208823
  H -2.86759336 -2.82822975 -1.34403542
  H  0.99816588  1.59433270 -1.03374304
  H -0.67650235  2.13937701 -0.82048439
  H -0.27696159  1.03921183 -2.15097548
  H  1.85570295  0.55777942  2.69223326
  H  4.30127498  0.89045518  2.82545718
  H  5.70395930  0.54766305  0.82264426
  H  4.65739757 -0.14986985 -1.30066484
  H  2.23018317 -0.48011386 -1.43677354
