33
opt_min/./Reactant_4991_1_opt.xyz
  C  3.65312495  1.38033493  1.71947517
  C  3.63383681 -0.12724328  1.58267740
  O  4.59641638 -0.81241931  1.87091719
  C  2.39516779 -0.70460827  1.07526787
  C  2.29511938 -2.08940099  0.90859249
  N  2.24577800 -3.22871913  0.74813964
  O  1.43201737  0.15301447  0.72603538
  C  0.22854844 -0.07620721  0.30114218
  C -0.42371125 -1.38325227  0.31208492
  C -0.42912927 -2.16496591  1.46814249
  C -1.07479031 -3.38572034  1.47771639
  C -1.71075728 -3.84909870  0.33866170
  C -1.71270480 -3.07619665 -0.81230214
  C -1.08315494 -1.84838693 -0.82807443
  C -0.47914284  1.09910223 -0.18473696
  C  0.23455111  2.25027050 -0.54255868
  C -0.42969191  3.37084164 -0.99556735
  C -1.81171243  3.36925625 -1.10342787
  C -2.52789092  2.23727588 -0.74525220
  C -1.87446762  1.11196469 -0.28757930
  H  4.08848943  1.80292526  0.81262969
  H  4.30011106  1.64759608  2.55250738
  H  2.66065167  1.79712645  1.86684458
  H  0.04790307 -1.80448402  2.36816469
  H -1.07278131 -3.98074178  2.37825360
  H -2.20188685 -4.80943658  0.34643501
  H -2.20717473 -3.43411361 -1.70358875
  H -1.06911745 -1.25178723 -1.72803866
  H  1.31159525  2.24793043 -0.47568133
  H  0.13277053  4.25039912 -1.27397379
  H -2.32801791  4.24539068 -1.46378610
  H -3.60584073  2.23627245 -0.81879009
  H -2.43706071  0.24003699  0.01141125
