14
opt_min/./Reactant_3319_1_opt.xyz
  C -1.62479772  2.13718101  0.82289444
  N -11.90672058 -5.64435297 -24.81323483
  C -11.15873084 -14.13533523 -24.12779519
  O -12.57660672  5.70600066  29.37701492
  C  3.03815814 -6.53441338  5.10841681
  N  8.60185595 -6.96996912  25.91190460
  C -2.71014457 -4.15862181 -46.98276437
  C  14.45794962 -1.94376410  28.96867877
  N -6.63493416  1.79159647 -1.22098613
  H -4.42941965 -7.78541695 -4.59596523
  H  6.16854423 -15.84330717  26.64207314
  H -25.06244851 -0.74290672 -4.33398514
  H -26.11438540  0.99673443 -40.13169149
  H -21.67748837  1.05715088  7.16799203
