29
opt_min/./Reactant_3156_1_opt.xyz
  C  1.00969522  4.40726834  0.14694410
  C  0.76863274  3.14849010 -0.55621208
  N  0.49309658  2.03063234 -0.21758655
  C  0.19026971  0.77840428 -0.22729406
  C -1.22808379  0.42130092 -0.24448616
  C -1.70233975 -0.68224770  0.46838973
  C -3.04705920 -0.99570548  0.46024447
  C -3.94635536 -0.21367303 -0.24724108
  C -3.48966133  0.89396283 -0.94259937
  C -2.14555563  1.21166115 -0.94039861
  C  1.26040982 -0.20720577 -0.15608635
  C  2.52224137  0.14451876  0.33404951
  C  3.54585970 -0.78049701  0.38108998
  C  3.33839612 -2.07681729 -0.06100781
  C  2.09769698 -2.43345460 -0.56537782
  C  1.07080493 -1.51248191 -0.61867769
  H  1.32511156  4.26648796  1.18256476
  H  1.75110131  4.99632768 -0.39009105
  H  0.07376961  4.96709269  0.13930695
  H -1.00907874 -1.27917636  1.04260882
  H -3.39788906 -1.85201395  1.01794022
  H -4.99707668 -0.46268439 -0.25181537
  H -4.18446089  1.51178980 -1.49277122
  H -1.79163882  2.07156022 -1.49105917
  H  2.69215813  1.15228966  0.68689023
  H  4.51134756 -0.48790705  0.76903490
  H  4.13888010 -2.80010105 -0.01882356
  H  1.93122052 -3.43740697 -0.92847665
  H  0.11837318 -1.79559955 -1.04223591
