25
opt_min/./Reactant_5598_1_opt.xyz
  C -2.65188095 -2.67117004 -0.31762704
  N -2.09143953 -1.36144641 -0.52107856
  C -1.01096734 -0.92154921  0.19851072
  O -0.46245104 -1.66684588  1.01424305
  C -0.60723186  0.45132057 -0.00372697
  C -1.50111034  1.44594522 -0.69429159
  N  0.52058718  0.90175102  0.60200622
  C  0.52300804  2.20328007  1.25764170
  C  1.65382960  0.19405594  0.69538030
  C  1.91881467 -1.03191561 -0.09834728
  C  2.69495328  0.67802196  1.48322710
  N  3.59221705  1.09376743  2.07804185
  H -2.54021747 -3.29084594 -1.21187166
  H -2.10661826 -3.13277657  0.50473668
  H -3.71095051 -2.60717696 -0.05790092
  H -2.55007001 -0.75860920 -1.17846483
  H -1.86572385  1.02941847 -1.63315447
  H -0.94261998  2.34294163 -0.94997843
  H -2.37248578  1.72940304 -0.10023258
  H  1.41291349  2.77052590  0.98677849
  H -0.36493444  2.77014464  0.99995478
  H  0.52860225  2.04974694  2.33829270
  H  1.44199570 -1.90059850  0.37074952
  H  2.98911398 -1.20601778 -0.17265950
  H  1.47462125 -0.92652203 -1.09091498
