24
opt_min/./Reactant_4351_0_opt.xyz
  C -1.88713900 -1.54221500  0.76300200
  N -1.91061118 -0.27846531  0.35793033
  C -3.21896133  0.22452431 -0.04204999
  C -0.84603560  0.54292434  0.33423497
  C -1.05178693  2.03162642  0.43455854
  C  0.50910406  0.05421684  0.24788383
  C  1.59270292  0.83712597  0.67853960
  C  2.89707607  0.41670454  0.51869628
  C  3.18353569 -0.78900857 -0.09828640
  C  2.13120911 -1.56275253 -0.56560160
  C  0.82724107 -1.15815168 -0.39017272
  H -1.00219110 -1.94465796  1.21064638
  H -2.72988872 -2.17617430  0.57751181
  H -3.81998621 -0.60849277 -0.40322377
  H -3.12299323  0.95568207 -0.84222272
  H -3.73920932  0.67435252  0.80560673
  H -0.59319361  2.41595345  1.34775435
  H -0.58966962  2.54931654 -0.40754547
  H -2.10022056  2.30636144  0.47698493
  H  1.41714211  1.78433056  1.16380207
  H  3.70333725  1.04040308  0.88028340
  H  4.20429109 -1.11886303 -0.21992752
  H  2.33139236 -2.49575636 -1.07456277
  H  0.03413813 -1.77276289 -0.79162197
