29
opt_min/./Reactant_840_0_opt.xyz
  C  4.23532700  0.29956900 -0.82238000
  C  2.72912890  0.22809422 -0.80321230
  O  2.04188924  0.71734272 -1.71482969
  C  2.08583709 -0.40961046  0.30454761
  C  2.83434040 -0.95082546  1.48077258
  N  0.74446968 -0.38180267  0.15790953
  C -0.32866012 -0.87260274  0.74922569
  C -0.21019559 -1.84771099  1.87939741
  C -1.62294783 -0.42982825  0.26457790
  C -2.79442964 -1.17139618  0.47015647
  C -4.01374912 -0.73307095 -0.00331672
  C -4.11369855  0.46210538 -0.69568332
  C -2.97061055  1.21765053 -0.90364143
  C -1.74930447  0.78647452 -0.43063396
  H  4.58480524  0.96796964 -0.03748278
  H  4.56168482  0.68694938 -1.78309103
  H  4.66678156 -0.68405462 -0.65759844
  H  2.20663186 -0.98951062  2.36364917
  H  3.22922847 -1.95042480  1.28581765
  H  3.68115876 -0.30584947  1.70528699
  H  0.57578397  0.14914285 -0.72003462
  H -1.08235329 -2.49130898  1.92071846
  H  0.66489020 -2.47748739  1.74790089
  H -0.14034596 -1.33769842  2.84135878
  H -2.75649688 -2.11927412  0.98412871
  H -4.89648520 -1.33259625  0.16614633
  H -5.06978244  0.80190399 -1.06379518
  H -3.03414529  2.15763157 -1.43192436
  H -0.88785214  1.42182342 -0.57865836
