21
opt_min/./Reactant_4887_0_opt.xyz
  C  2.65636154  0.20370729 -1.98649684
  N  1.86928379  0.39118421 -0.78701679
  C  1.20150322 -0.63790829 -0.23975873
  O  1.31390201 -1.79802915 -0.55674942
  C  0.30347023 -0.25520424  0.92602816
  C  0.82889007 -0.50093697  2.19117482
  N  1.30668990 -0.70016324  3.21970788
  N -0.95993307  0.10742425  0.75575308
  C -1.79628257  0.25632045  1.93633271
  C -1.55165729  0.30919124 -0.44053644
  C -0.89953254  0.18641553 -1.67344107
  N -0.46342861  0.17053659 -2.73772192
  C -2.89986606  0.67885383 -0.52266709
  N -4.00483921  0.98114591 -0.62251360
  H  3.37171943  1.01572967 -2.07881014
  H  2.00735708  0.17583541 -2.86536809
  H  3.17584496 -0.74967801 -1.90463536
  H  1.67751797  1.33793452 -0.49974926
  H -2.27809907 -0.69541545  2.16791512
  H -1.18990967  0.55394035  2.78985643
  H -2.56780397  1.00341273  1.75338649
