35
opt_min/./Reactant_5206_1_opt.xyz
  C  4.91778700 -1.54020000  1.60967800
  N  3.73848875 -0.91417364  1.05982862
  C  3.76671333 -0.35906631 -0.19927053
  O  4.74548077 -0.44537083 -0.92046379
  C  2.51878894  0.28712570 -0.61344599
  C  2.56022579  1.27194150 -1.71351054
  N  1.38156230 -0.13249109 -0.06341853
  C  0.11581717  0.31738525 -0.21766144
  C -0.14322438  1.73652884 -0.37745049
  O  0.72475137  2.58593922 -0.18944298
  N -1.42288940  2.09484624 -0.70407270
  C -1.83337667  3.47518431 -0.64751399
  C -0.94280662 -0.64514250  0.11782409
  C -1.98684399 -0.91285282 -0.77050868
  C -2.97981670 -1.81776270 -0.44342024
  C -2.94798776 -2.48515609  0.76983701
  C -1.90550507 -2.24678952  1.65104795
  C -0.91367944 -1.34107732  1.32944426
  H  4.62951904 -2.41462385  2.19399190
  H  5.54618823 -1.84707804  0.77637223
  H  5.48621845 -0.85302452  2.24184276
  H  3.09172311 -0.53785270  1.73451690
  H  3.53689646  1.22036631 -2.18648353
  H  1.77093877  1.05314909 -2.43539275
  H  2.37906459  2.28553396 -1.34501110
  H  1.44822676 -1.00857586  0.45338324
  H -2.14916986  1.40159402 -0.64984271
  H -0.94660246  4.09148289 -0.77823432
  H -2.29278212  3.72450859  0.31549351
  H -2.54692753  3.68132748 -1.44459418
  H -1.99707667 -0.43753684 -1.74115450
  H -3.77821225 -2.01195500 -1.14469906
  H -3.72493724 -3.18960182  1.02334825
  H -1.87068432 -2.76551424  2.59815016
  H -0.12173773 -1.14668014  2.04023309
