27
opt_min/./Reactant_1589_0_opt.xyz
  C  3.14577679 -0.52277131  3.10197453
  N  2.01188845 -0.86669534  2.27091560
  C  1.36588233  0.08101131  1.55552419
  O  1.69952573  1.24320735  1.56417876
  C  0.20437158 -0.45384509  0.70898017
  C -0.94416158  0.40457742  0.72400738
  C -1.81789119  1.11430858  0.31026853
  C -2.75471721  1.62076243 -0.63511692
 Cl -2.17189388  3.19328501 -1.27413381
 Cl -4.39833581  1.87908212  0.05086097
  C -2.81181569  0.57721440 -1.75204017
  C -1.48099279  0.18430600 -2.42813141
  C -0.44646832 -0.80704857 -1.83537284
  C  0.61881366 -0.43942887 -0.78024690
  H  3.51922298 -1.41491284  3.59595141
  H  2.85086125  0.21631784  3.84982357
  H  3.93696112 -0.08477115  2.49004495
  H  1.70105697 -1.82367700  2.26067156
  H -0.08031860 -1.45861814  1.03816511
  H -3.30109698 -0.31773428 -1.36126539
  H -3.44879111  0.98183473 -2.54496553
  H -0.96088389  1.08845717 -2.74982724
  H -1.81794969 -0.33725458 -3.33042298
  H  0.16516545 -1.04362990 -2.71411144
  H -0.95527569 -1.72871338 -1.54231661
  H  1.42021871 -1.17775409 -0.89520809
  H  1.03816307  0.53958790 -1.01689975
