23
opt_min/./Reactant_573_0_opt.xyz
  C -4.11207340  1.10686292 -1.20011065
  N -2.85028585  0.52017614 -0.81472548
  C -2.58662092 -0.78517502 -1.09631542
  O -3.37703895 -1.47518701 -1.72074116
  C -1.29954228 -1.33271478 -0.66661099
  N -0.39720217 -0.66778038 -0.00103288
  C  0.80257136 -1.02030563  0.49166509
  C  1.42192535 -2.24397995  0.28782795
  N  1.98167516 -3.24512041  0.17191961
  C  1.44649093  0.09002093  1.20328678
  O  0.85726786  1.17034899  1.26503134
  N  2.65572076 -0.13673720  1.74562734
  C  3.37830999  0.89673548  2.44867375
  H -4.87279104  0.93564871 -0.43393115
  H -3.99089889  2.17468770 -1.36406355
  H -4.44408425  0.62686875 -2.12140818
  H -2.21680662  1.09552588 -0.28542706
  H -1.10907426 -2.36345421 -0.92839790
  H -0.54892039  0.31932517  0.29019706
  H  3.07682692 -1.04643815  1.63747754
  H  2.65920465  1.55734912  2.93191098
  H  3.98209151  1.48858185  1.75559655
  H  4.02369192  0.44142269  3.19583531
