16
opt_min/./Reactant_3663_0_opt.xyz
  C  2.28344200 -0.93581800  0.38552900
  N  0.98935936 -0.89226945  0.50423397
  C  0.04090948 -0.12973520 -0.05599042
  C  0.39709252  0.96609260 -1.00166331
  C -1.27190144 -0.50407656  0.36901866
  C -2.46242553  0.22933179 -0.19672168
  O -1.41048226 -1.41378124  1.19726135
  H  2.80198615 -0.27149586 -0.27994654
  H  2.83895271 -1.64847118  0.96122396
  H  0.52247000 -1.56226428  1.14331290
  H  1.30182900  1.47247955 -0.66026965
  H -0.40017924  1.70411021 -1.05519647
  H  0.57986697  0.57904780 -2.00684109
  H -3.36097500 -0.35158445 -0.00070172
  H -2.56319831  1.19057086  0.30940091
  H -2.35583759  0.39976528 -1.26462465
