22
opt_min/./Reactant_2498_0_opt.xyz
  C  4.83210705  0.24582228 -0.65385028
  O  3.46018367 -0.12173197 -0.72588053
  C  2.58242182  0.73532567 -0.21288124
  O  2.82560967  1.80374224  0.30413373
  C  1.23486004  0.30145366 -0.32896796
  N  0.06805055  0.26674328 -0.17874613
  C -1.18280850 -0.04891613 -0.20007062
  C -2.15479690  0.86759540  0.40202275
  C -1.57037806  2.13328590  0.98495239
  O -3.34229475  0.63069418  0.45762888
  C -1.48731876 -1.35781222 -0.83832428
  C -2.92672831 -1.76583042 -0.87017894
  O -0.59150677 -2.03205554 -1.29920437
  H  5.29748620 -0.07741600 -1.58295434
  H  4.92879524  1.32602731 -0.52829918
  H  5.29665043 -0.26369982  0.19242897
  H -2.33366955  2.90811598  0.97910145
  H -1.30033140  1.93972582  2.02301038
  H -0.68634392  2.47344528  0.45420427
  H -3.00954307 -2.73046054 -1.36479571
  H -3.32154201 -1.82627318  0.14155357
  H -3.51762876 -1.01990028 -1.39696999
