35
opt_min/./Reactant_5098_0_opt.xyz
  C  1.69425604 -0.61478873 -2.81381304
  C  1.10627043 -0.26588717 -1.48237799
  C  1.89005557  0.56258277 -0.57075759
  C  3.25128266  0.31724165 -0.37862204
  C  4.00402298  1.13709662  0.43847560
  C  3.41922635  2.22533070  1.06206848
  C  2.07004999  2.48496188  0.87135064
  C  1.30917809  1.66175340  0.07000166
  N -0.11012962 -0.68487978 -1.15602995
  C -0.92579612 -1.32210268 -2.17717297
  C -0.56854766 -0.72615575  0.13820657
  C  0.33926570 -0.87105221  1.17720201
  N  1.07050743 -1.03203357  2.05704966
  C -1.96787963 -0.54933233  0.47920710
  C -2.81243309  0.26691428 -0.29086506
  C -4.12933119  0.45406677  0.07351817
  C -4.63379725 -0.14544063  1.21607628
  C -3.80231758 -0.92504059  2.00478461
  C -2.48485311 -1.12503889  1.64529952
  H  1.67510055 -1.68788455 -3.00288439
  H  1.14400229 -0.12803393 -3.62084287
  H  2.72093818 -0.27128810 -2.86159617
  H  3.70395444 -0.54487882 -0.84488697
  H  5.05170129  0.92359762  0.59336101
  H  4.00467572  2.86744577  1.70134900
  H  1.61283560  3.33443105  1.35399214
  H  0.25756368  1.87046454 -0.07029747
  H -1.03507605 -0.68244082 -3.05123903
  H -0.45680192 -2.25822651 -2.48899561
  H -1.90546681 -1.55131843 -1.77196671
  H -2.41631077  0.77711224 -1.15864701
  H -4.77079165  1.08439022 -0.52746026
  H -5.66620774  0.00944536  1.49308715
  H -4.18431282 -1.38297162  2.90349682
  H -1.83880773 -1.73337392  2.25920811
