20
opt_min/./Reactant_2441_1_opt.xyz
  F -2.56781682  0.94491640 -0.83419861
  C -1.43010268  1.34586116 -0.16149559
  C -0.22475173  1.20500668 -0.95431165
  C  0.87990245  0.76767805 -1.13092321
  C  2.06590959 -0.03244314 -0.97208862
  C  1.87835503 -0.68263067  0.41825682
  C  0.64220175 -1.57949917  0.61686462
  C -0.79116731 -1.03961152  0.45163361
  C -1.13953723  0.37217189  1.00089325
  H -1.61678370  2.37248109  0.17570183
  H  2.15649108 -0.78436833 -1.75790548
  H  2.97339001  0.57489405 -0.96838631
  H  1.88410663  0.11473441  1.16199804
  H  2.74977663 -1.31635155  0.60811703
  H  0.73626020 -2.41822251 -0.07821931
  H  0.73607772 -1.99128260  1.62539958
  H -1.47791565 -1.71749435  0.96221504
  H -1.06047420 -1.05875643 -0.60333925
  H -2.00621428  0.30313273  1.65914004
  H -0.30295357  0.78281392  1.56414563
