26
opt_min/./Reactant_5285_1_opt.xyz
  C -4.15618850  0.61864292 -1.63485800
  C  7.30599575  7.26740315 -4.23613900
  O -0.26107162  8.90064898 -3.84355626
  C  12.83405174 -10.29166215  4.62019994
  N  7.49065032 -12.79666959 -15.11539188
  C -5.16175910 -19.74790254 -22.12500770
  C  0.17967048 -11.90533267 -1.38701518
  C -1.05545677 -2.53939842  30.84813724
  C  1.50071057  6.67359784  9.40120381
  C -11.87269720  3.95228364  1.19835128
  C -17.27258079  2.92557025  24.02041115
  C  8.22692208 -10.83438954  22.66429519
  C  9.27206973  8.15425231  32.04113759
  C  9.63703452 -9.25228483  15.81872007
  O -1.34817051  22.34396033 -9.51993102
  H -6.17007362  2.86313569  0.83152320
  H -7.07095331 -1.81830418 -0.35908411
  H -4.67052852 -14.25156955 -0.76676389
  H -24.30391443  3.76312049 -11.70614475
  H  7.14256224  2.02375702  4.13994442
  H  18.94644990  4.98351908 -4.43391883
  H  10.32697546  3.90851305 -7.41562934
  H  3.50768963 -10.82186142 -16.16589639
  H  20.96587627 -13.06526794 -9.41213064
  H  12.22178617 -19.31290031 -24.86088744
  H  4.13502485  0.89463390 -11.54742702
