33
opt_min/./Reactant_5095_0_opt.xyz
  C -1.03230500  1.92942500 -3.11790400
  N -0.84495861  1.22700478 -1.87163762
  C  0.12555159  0.29366405 -1.70193624
  O  0.88843907 -0.04488854 -2.58230536
  C  0.07683952 -0.32250759 -0.33045147
  O  0.22858520  0.35845682  0.76759602
  C  0.65606634  1.57910592  0.99781075
  C  1.17550670  2.51634758 -0.04254555
  C  0.59220588  1.94247437  2.39922833
  O  0.14944341  1.23460170  3.28064996
  O  1.08317420  3.18873883  2.62568117
  C  1.05695490  3.62107478  3.97576068
  C -0.25746533 -1.72233369 -0.18341988
  C -0.40551786 -2.55577113 -1.29830306
  C -0.72704245 -3.88797444 -1.13181694
  C -0.91196860 -4.41482884  0.13674710
  C -0.76797571 -3.59734500  1.24806305
  C -0.44192845 -2.26670690  1.09678995
  H -0.34964837  1.48898080 -3.84315533
  H -0.80295758  2.99184183 -3.00968943
  H -2.05875916  1.81740422 -3.46827878
  H -1.46342375  1.45137886 -1.10645237
  H  0.39329378  3.17079909 -0.43217281
  H  1.93730850  3.14886291  0.40720613
  H  1.61867487  1.96382784 -0.86773865
  H  1.32257601  2.79816085  4.64242479
  H  0.05823448  3.97905018  4.23816040
  H  1.77801773  4.43145350  4.05480536
  H -0.25113752 -2.15963347 -2.28863258
  H -0.83345346 -4.52298747 -1.99897687
  H -1.16441084 -5.45760079  0.25931730
  H -0.90910315 -4.00454864  2.23844140
  H -0.32954011 -1.63030543  1.96085972
