22
opt_min/./Reactant_4734_0_opt.xyz
  C -3.83856100 -0.76192800 -0.49822500
  C -2.60385870 -0.06228043 -0.07232267
  N -1.34637301 -0.54073748 -0.25467325
  C -0.43583709  0.31650477  0.21888307
  C  0.98783905  0.18601309  0.22668998
  C  1.63415378 -0.93933357 -0.30303840
  C  3.01082557 -1.02409866 -0.27526650
  C  3.77068405 -0.00293230  0.27381691
  C  3.13998897  1.11497855  0.80045305
  C  1.76558759  1.21422316  0.78023420
  O -1.07342213  1.37791039  0.71937787
  C -2.46917169  1.19945347  0.56160547
  O -3.26149034  2.02794415  0.94633434
  H -4.08497307 -0.53352954 -1.53837728
  H -3.73249503 -1.84071150 -0.39602031
  H -4.66833413 -0.41826061  0.11536432
  H -1.12321535 -1.42544303 -0.68720031
  H  1.06248870 -1.74732087 -0.73608842
  H  3.49941765 -1.89560857 -0.68600340
  H  4.84729480 -0.07798331  0.29112962
  H  3.72619767  1.91372136  1.22952407
  H  1.26380113  2.07780225  1.18640672
