25
opt_min/./Reactant_1112_1_opt.xyz
  C  3.36233850  0.31386971  0.88386948
  C  2.53911231  0.32703594 -0.38016258
  O  2.89137663  0.88892737 -1.38491546
  C  1.24572851 -0.47064752 -0.29923729
  C  0.45871662 -0.21682203  0.88713216
  C -0.50384131  0.02756918  1.56118130
  C -1.88943822  0.16607563  1.93952481
  C -2.66258443 -0.46707902  0.76326993
  C -2.20741902  0.01870587 -0.62872466
  C -1.10620677 -0.81211999 -1.33399918
  C  0.28480952 -0.16149137 -1.46606932
  H  3.98343316  1.20474696  0.93244133
  H  4.02045663 -0.55465490  0.85457764
  H  2.72952846  0.24245981  1.76445290
  H  1.53201268 -1.53133154 -0.32906922
  H -2.12686002 -0.33813973  2.87810702
  H -2.14689459  1.22457585  2.03482352
  H -2.55013156 -1.55195048  0.80870008
  H -3.72305778 -0.23832270  0.89170525
  H -1.89993706  1.06343921 -0.57252822
  H -3.09382566 -0.01671205 -1.26768886
  H -1.44871721 -1.00030105 -2.35464879
  H -1.01559807 -1.78434257 -0.84700317
  H  0.17097710  0.92161292 -1.53581907
  H  0.75722750 -0.49962580 -2.39015982
