20
opt_min/./Reactant_4205_0_opt.xyz
  C  3.58151131  2.65302264  0.65658645
  C  3.35961525  1.20485479  0.26750181
  O  4.25576199  0.41215603  0.06306333
  C  1.99406915  0.87798507  0.15756077
  N  0.83583809  0.67733735  0.12100307
  N -0.37276769  0.64192986  0.15180044
  C -1.17038489 -0.45880479 -0.15060239
  C -1.99329273 -0.99196868  0.83510070
  C -2.85226088 -2.02865690  0.52152129
  C -2.90205009 -2.52913428 -0.76922244
  C -2.08720012 -1.99051682 -1.75169990
  C -1.22087760 -0.95666713 -1.45170562
  H  4.58181185  2.75900003  1.06893999
  H  2.83805084  2.98912858  1.37430132
  H  3.50420820  3.27125733 -0.23697249
  H -1.94869268 -0.59346940  1.83769455
  H -3.48500193 -2.44847806  1.28917662
  H -3.57543878 -3.33749413 -1.01064096
  H -2.12953763 -2.38129866 -2.75768354
  H -0.58306102 -0.53080477 -2.21207555
