19
opt_min/./Reactant_335_1_opt.xyz
  C -2.27043500  1.28890400 -0.39304500
  O -1.25768388  0.32453850 -0.13900508
  C -1.65912462 -0.96185993 -0.01037030
  O -2.81455460 -1.31233030 -0.10093737
  C -0.57375863 -1.89960695  0.21500764
  O  0.69606306 -1.68494085  0.31082782
  C  1.38234654 -0.59639612  0.24401945
  C  2.83111655 -0.69658705  0.40427600
  O  3.45336803 -1.71071941  0.61126941
  O  3.38087217  0.53277657  0.32549119
  C  4.79124411  0.61538309  0.48505894
  H -1.98271680  2.19967278  0.12897266
  H -3.23238834  0.92231694 -0.03062982
  H -2.33444658  1.47619417 -1.46647168
  H -0.85705952 -2.93744500  0.31341339
  H  0.93816333  0.37682892  0.07371507
  H  5.02535867  0.92631128  1.50628564
  H  5.24742563 -0.35643588  0.28607653
  H  5.15240716  1.36502421 -0.21726045
