30
opt_min/./Reactant_1760_0_opt.xyz
  C  2.92159342  0.58731775 -2.77410091
  N  2.12542717  0.03805623 -1.70447225
  C  2.44925738 -1.14396759 -1.15827415
  O  3.33732608 -1.86090933 -1.59241752
  C  1.61649034 -1.67694081 -0.04507672
  C  2.10042047 -2.91003968  0.44773695
  N  2.45659367 -3.90398833  0.90093361
  N  0.43124118 -1.33197559  0.46499996
  C -0.34119704 -0.22055989  0.45789515
  C  0.28691149  1.10944366  0.63499290
  O  1.50746613  1.24631749  0.57447477
  N -0.55014985  2.11868597  0.91401475
  C -0.06936594  3.44981402  1.18029637
  C -1.78792576 -0.41536408  0.57413323
  O -2.59012887  0.47449255  0.84918200
  N -2.24805760 -1.66341226  0.27553991
  C -3.66925078 -1.93428989  0.33356178
  H  3.16455815 -0.20472536 -3.48271892
  H  3.85840314  0.99532047 -2.38579270
  H  2.36144893  1.37508824 -3.27057859
  H  1.42842650  0.62182978 -1.26996423
  H -0.02022067 -2.09817923  0.97900748
  H -1.53297898  1.90097930  1.07443524
  H  0.94870646  3.53152355  0.80124733
  H -0.06094652  3.65813502  2.25354428
  H -0.71272256  4.17514039  0.68389403
  H -1.66405057 -2.36883100 -0.13967468
  H -4.01855376 -1.85113429  1.36435011
  H -4.21774798 -1.20403061 -0.26449934
  H -3.86098577 -2.93502116 -0.04050415
