34
opt_min/./Reactant_3211_1_opt.xyz
  C  4.81487200 -1.28581300  0.05588100
  N  3.50790919 -0.67758870  0.00133491
  C  2.40592661 -1.34776687  0.44778847
  O  2.51899371 -2.47022815  0.92537403
  C  1.07642877 -0.76278712  0.41508250
  N  0.54984167  0.33960062 -0.10551875
  C  1.39668544  1.27024168 -0.83045998
  C -0.77837443  0.56458368 -0.06231232
  C -1.43938038  1.84283700 -0.18526356
  O -2.64217790  1.96162311 -0.29660693
  O -0.61991843  2.93676109 -0.07955592
  C -1.24816297  4.20772305 -0.10128760
  C -1.70384618 -0.55781678  0.21177120
  C -1.70216508 -1.67235669 -0.62692291
  C -2.59727346 -2.70326458 -0.42114880
  C -3.50493261 -2.63623687  0.62419008
  C -3.51628269 -1.53117892  1.45665231
  C -2.62263886 -0.49599701  1.25268614
  H  5.51012338 -0.65054261  0.60831332
  H  5.20712637 -1.45845933 -0.95013299
  H  4.70923620 -2.24335520  0.56485546
  H  3.46911263  0.26291071 -0.34425908
  H  0.37294881 -1.40544075  0.93012192
  H  1.93771290  0.72745220 -1.60794192
  H  2.09124058  1.76564351 -0.15146775
  H  0.78759369  2.03477827 -1.30587082
  H -0.77522971  4.81777190  0.66823685
  H -1.10825636  4.66613132 -1.08348251
  H -2.31605963  4.09514574  0.09772030
  H -0.99879480 -1.72322123 -1.44630098
  H -2.59102470 -3.55905999 -1.07986635
  H -4.20309574 -3.44408449  0.78659982
  H -4.22484441 -1.47447760  2.27094243
  H -2.63406943  0.36879622  1.89929190
