40
opt_min/./Reactant_5912_0_opt.xyz
  C -2.09892500  3.14312600  2.25770000
  N -1.86822216  1.78293039  1.84009592
  C -2.66830384  1.17282218  0.92554084
  O -3.69771791  1.65898048  0.52515147
  C -2.23200645 -0.21343140  0.56295089
  C -3.35537359 -1.12976393  0.29724130
  O -4.38138648 -1.15932469  0.92468808
  O -3.09601799 -1.93696077 -0.75909284
  C -4.14123252 -2.79551309 -1.19025665
  N -0.95888190 -0.59128709  0.45548890
  C -0.61345239 -1.99959660  0.60876087
  C  0.06037336  0.26186816  0.22570856
  C -0.17287937  1.47823437 -0.53315032
  O -1.18937673  1.75503584 -1.13032806
  O  0.92357824  2.27352143 -0.55278553
  C  0.80314067  3.44027154 -1.34836624
  C  1.43739574 -0.08718784  0.60641613
  C  1.75197636 -0.32339499  1.94603505
  C  3.04870155 -0.61790821  2.32190426
  C  4.05267917 -0.67808380  1.37000227
  C  3.75283770 -0.43837182  0.03942346
  C  2.45663594 -0.14515225 -0.34064047
  H -2.20066178  3.19716977  3.34274151
  H -3.02502717  3.47064713  1.78915555
  H -1.28029203  3.79283826  1.93870170
  H -0.99972729  1.35826492  2.12225218
  H -4.99393531 -2.71024078 -0.51440438
  H -4.43551784 -2.50338668 -2.19818134
  H -3.76351524 -3.81885479 -1.19672270
  H -0.18462758 -2.37403793 -0.32028342
  H  0.12536880 -2.11199179  1.40039740
  H -1.49322642 -2.58013174  0.86427759
  H  1.68962553  4.03593531 -1.14554322
  H  0.75274761  3.17811642 -2.40702650
  H -0.10321989  3.98950002 -1.08397153
  H  0.97947681 -0.25598058  2.70144334
  H  3.27786631 -0.79187052  3.36301956
  H  5.06525104 -0.90569598  1.66674603
  H  4.53214269 -0.48282572 -0.70615624
  H  2.22373279  0.03546820 -1.37870266
