17
opt_min/./Reactant_3440_1_opt.xyz
  C -1.03346323 -0.23977770  1.13517431
  C -0.84262678  0.57726874 -0.10455446
  C -2.05908659  0.99112505 -0.88228219
  O  0.26911190  0.93679984 -0.63699470
  C  1.55035673  0.76735506 -0.37420379
  C  2.14607481 -0.01738662  0.76212536
  C  2.42134603  1.40909307 -1.24787565
  N  3.17627950  1.93679057 -1.94369065
  H -1.25114660 -1.28022411  0.87883070
  H -1.88481211  0.14103999  1.69636906
  H -0.16263428 -0.22326715  1.78087175
  H -2.91156308  1.11569398 -0.22135537
  H -1.86909145  1.92559696 -1.40524300
  H -2.31642355  0.23802484 -1.63009287
  H  3.21594944 -0.11070923  0.59335409
  H  1.72100776 -1.02015351  0.82552856
  H  2.00303050  0.49581649  1.71687046
