15
opt_min/./Reactant_3958_0_opt.xyz
  C  2.29749900 -0.38458597  0.18917505
  O  1.91661081  0.74486610 -0.27250355
  C  0.71886943  1.16701650 -0.60669914
  C  0.65843823  2.45119676 -1.17381320
  N  0.60813513  3.50111587 -1.63794479
  C -0.55590925  0.41199874 -0.48334546
  O -1.43932411  0.49345751 -1.31049228
  N -0.63937605 -0.39649661  0.62007922
  C -1.88104082 -1.07808824  0.91767565
  H  1.63608882 -1.22363128  0.33704079
  H  3.35866220 -0.49055735  0.32806138
  H -0.06083656 -0.18423950  1.42114305
  H -2.37992302 -1.28908225 -0.02654267
  H -1.66583802 -2.00948025  1.43959001
  H -2.54524145 -0.46177601  1.53005823
