13
opt_min/./Reactant_3365_1_opt.xyz
  C -2.23335700  0.48983700 -0.20177200
  N -0.81489463  0.22081261 -0.32578315
  C -0.29328682 -0.92780269  0.21770211
  O -0.92566901 -1.68124558  0.91226990
  N  1.03873061 -1.13973426 -0.12863293
  N  1.88941798 -0.23057682  0.07185144
  N  3.08971857 -0.30345402 -0.29312985
  H -2.61831125  0.92897188 -1.11884453
  H -2.41470388  1.17514535  0.63025438
  H -2.75234412 -0.44610842  0.00976167
  H -0.34256212  0.63783580 -1.11293973
  H  1.54449106  0.61983568  0.60265420
  H  3.64852147  0.49031855  0.01073245
