40
opt_min/./Reactant_5915_0_opt.xyz
  C -2.09892500  3.14312600  2.25770000
  N -1.86822216  1.78293038  1.84009594
  C -2.66830383  1.17282219  0.92554083
  O -3.69771787  1.65898050  0.52515143
  C -2.23200644 -0.21343140  0.56295090
  C -3.35537358 -1.12976392  0.29724134
  O -4.38138647 -1.15932468  0.92468813
  O -3.09601803 -1.93696076 -0.75909281
  C -4.14123257 -2.79551307 -1.19025661
  N -0.95888190 -0.59128710  0.45548889
  C -0.61345239 -1.99959661  0.60876082
  C  0.06037337  0.26186816  0.22570856
  C -0.17287937  1.47823438 -0.53315030
  O -1.18937673  1.75503585 -1.13032803
  O  0.92357823  2.27352145 -0.55278551
  C  0.80314067  3.44027157 -1.34836620
  C  1.43739574 -0.08718784  0.60641613
  C  1.75197636 -0.32339498  1.94603505
  C  3.04870155 -0.61790819  2.32190428
  C  4.05267917 -0.67808377  1.37000229
  C  3.75283771 -0.43837180  0.03942348
  C  2.45663595 -0.14515224 -0.34064046
  H -2.20066180  3.19716979  3.34274150
  H -3.02502716  3.47064714  1.78915553
  H -1.28029202  3.79283825  1.93870171
  H -0.99972731  1.35826491  2.12225222
  H -4.99393534 -2.71024076 -0.51440432
  H -4.43551791 -2.50338664 -2.19818129
  H -3.76351530 -3.81885477 -1.19672268
  H -0.18462760 -2.37403792 -0.32028349
  H  0.12536882 -2.11199183  1.40039734
  H -1.49322641 -2.58013176  0.86427753
  H  1.68962553  4.03593534 -1.14554317
  H  0.75274761  3.17811646 -2.40702647
  H -0.10321989  3.98950004 -1.08397149
  H  0.97947681 -0.25598056  2.70144334
  H  3.27786631 -0.79187049  3.36301958
  H  5.06525104 -0.90569594  1.66674605
  H  4.53214270 -0.48282570 -0.70615621
  H  2.22373280  0.03546821 -1.37870264
