26
opt_min/./Reactant_5185_1_opt.xyz
  C -4.00090900 -1.08343200 -0.33228900
  O -2.94694530 -0.15480755 -0.12446700
  C -1.67416645 -0.64387648 -0.13444481
  O -1.43752355 -1.82307394 -0.29558443
  C -0.63166039  0.35036337  0.06082330
  C  0.73800420 -0.21122129  0.03004510
  C  1.54222260 -0.19353799  1.16670085
  C  2.80181702 -0.76234547  1.14151537
  C  3.27026144 -1.36153843 -0.01477175
  C  2.47155629 -1.39348205 -1.14553588
  C  1.21203164 -0.82367456 -1.12501185
  N -0.83166180  1.65262730  0.26934407
  C  0.32737285  2.53531625  0.34160302
  N -1.91414101  2.30600438  0.39492586
  H -4.49906322 -0.84346222 -1.27334516
  H -4.70463803 -0.99089437  0.49615573
  H -3.59518140 -2.09613075 -0.37282624
  H  1.16949902  0.25936174  2.07432013
  H  3.41315291 -0.74377780  2.03212648
  H  4.25224846 -1.81005992 -0.03490571
  H  2.83195845 -1.86745152 -2.04644325
  H  0.58806646 -0.85626503 -2.00530441
  H  0.09741697  3.43288440 -0.23107486
  H  1.21880757  2.05415339 -0.05021935
  H  0.48955293  2.83083552  1.37744808
  H -2.74040151  1.71579858  0.34514135
