31
opt_min/./Reactant_2297_1_opt.xyz
  C  0.45787700 -2.34435700 -2.31806800
  C -0.21515826 -1.02897207 -2.04638553
  O -0.20227716 -0.10679594 -2.82164752
  C -0.94933135 -0.94549242 -0.72965641
  C -1.89655824 -2.06351278 -0.46700525
  C -2.36396125 -2.29167196  0.94528635
  O -2.27051361 -2.77900791 -1.37028955
  C -0.77098530  0.14190430  0.04301605
  C -1.51346936  0.48415678  1.30035727
  C -0.62535107  0.50677550  2.52054521
  O -2.67504306  0.79595399  1.32037413
  C  0.21926548  1.18351445 -0.28877688
  C  1.54635836  0.84837417 -0.54308905
  C  2.46989982  1.83587135 -0.82860949
  C  2.08030022  3.16425078 -0.86839768
  C  0.76233650  3.50451585 -0.61138724
  C -0.16309820  2.52277785 -0.31194082
  H  0.92344679 -2.74550223 -1.42046160
  H  1.18764044 -2.22847562 -3.11403408
  H -0.30994589 -3.04767790 -2.64042303
  H -2.73440278 -3.31098228  1.02611644
  H -3.18870740 -1.61343361  1.15679434
  H -1.57539148 -2.12159355  1.67249651
  H  0.04737326 -0.34749638  2.53548823
  H -0.01610743  1.40912251  2.48125341
  H -1.23148677  0.52952021  3.42252617
  H  1.85255145 -0.18706168 -0.50475819
  H  3.49676447  1.56645200 -1.02609827
  H  2.80290953  3.93221332 -1.09966843
  H  0.45326324  4.53838658 -0.64520565
  H -1.19366477  2.78484763 -0.12310939
