18
opt_min/./Reactant_2365_1_opt.xyz
  C -2.63227400  0.89291700 -0.19838800
  C -1.74500488 -0.18894535 -0.75965359
  O -2.11151960 -0.96020132 -1.61825563
  C -0.39368127 -0.26545902 -0.20421207
  C  0.29878275  0.43020832  0.71359099
 Cl -0.09747342  1.75581852  1.66576409
  C  1.70178416 -0.20819595  0.73999543
  C  2.32300440  0.20033918 -0.60412119
  C  1.65098609 -0.49810221 -1.50491657
  C  0.63523397 -1.30742506 -0.69499248
  O  1.36788504 -1.55610234  0.49354170
  H -2.91102929  0.62595238  0.81947600
  H -2.12086333  1.84911541 -0.17087365
  H -3.53357282  0.96012598 -0.80170404
  H  2.29335842 -0.07895498  1.64038494
  H  3.10902970  0.91610286 -0.72128732
  H  1.73450190 -0.51401861 -2.57099883
  H  0.22692841 -2.21047895 -1.13547911
