32
opt_min/./Reactant_1428_1_opt.xyz
  C  3.66296648 -0.93682200 -0.58139835
  C  2.82914109  0.29418954 -0.35651721
  O  3.04207236  1.34416024 -0.89735898
  C  1.65824245  0.13717771  0.63781622
  C  2.18208444  0.36407397  1.96282331
  N  2.56042992  0.48151462  3.03545109
  C  0.54243147  1.00850332  0.28991034
  C -0.59130232  1.22690675 -0.03619384
  C -2.00269473  0.98076800 -0.28490236
  C -2.87155678  1.58368873  0.83466502
  C -2.39959569  1.54866215 -1.65535568
  C -2.08973788 -0.56620762 -0.32521763
  C -1.70262438 -1.36090676  0.93721694
  C -0.30194705 -1.20585913  1.55979727
  C  0.92007355 -1.24440434  0.60826688
  H  3.63987571 -1.61321530  0.26664940
  H  3.27982321 -1.45257803 -1.46198788
  H  4.68782839 -0.63898960 -0.79463779
  H -3.61969201  0.86526022  1.16139879
  H -2.25987413  1.85079352  1.69309526
  H -3.38466712  2.47592623  0.48785660
  H -2.50155574  2.62963338 -1.60102996
  H -3.34828744  1.12541302 -1.97989506
  H -1.63749150  1.31591854 -2.39619445
  H -3.12188409 -0.84650008 -0.55545336
  H -1.48823408 -0.91702080 -1.16820155
  H -1.85582881 -2.41607342  0.69602531
  H -2.41012821 -1.11479361  1.73218250
  H -0.28187457 -0.28785511  2.14590270
  H -0.14385076 -2.02322519  2.26878053
  H  1.57346284 -2.06148107  0.90993629
  H  0.61033320 -1.37043951 -0.42789571
