33
opt_min/./Reactant_1355_1_opt.xyz
  C  3.53167610 -0.96660541 -1.03306777
  O  2.47920555 -0.26237488 -0.41815602
  C  1.27468334 -0.16979147 -1.16195639
  C  1.48096006  0.44100318 -2.46878662
  N  1.64776534  0.94210450 -3.48263719
  C  0.31875215  0.61475260 -0.38908219
  C -0.63335134  0.88828368  0.28860774
  C -1.81125199  0.63764571  1.12432872
  O -1.94442027  1.48188511  2.24922016
  C -0.74541043  1.95320413  2.81486384
  O -2.99551416  0.71155201  0.38799797
  C -3.27557742  1.98677457 -0.15651763
  C -1.63976506 -0.84833794  1.54830689
  C -1.40737960 -1.84538772  0.40176055
  C  0.05735370 -2.13516583 -0.00704319
  C  0.53376741 -1.52946086 -1.34010449
  H  3.71287575 -0.62001957 -2.05593466
  H  3.34948937 -2.04724485 -1.04365655
  H  4.41017316 -0.76185832 -0.42456748
  H -1.04025700  2.58913005  3.64668546
  H -0.12172188  1.13353846  3.18749888
  H -0.16284145  2.53626339  2.09357760
  H -4.20533829  1.87621331 -0.70907507
  H -3.40115976  2.73052522  0.63407381
  H -2.47594724  2.30570121 -0.83448260
  H -0.81738069 -0.90367888  2.26315844
  H -2.56652156 -1.10062534  2.06491967
  H -1.99275753 -1.53992450 -0.46426094
  H -1.82722530 -2.79061728  0.75097576
  H  0.14722570 -3.21779023 -0.11720549
  H  0.73728856 -1.83736807  0.79167462
  H  1.21620880 -2.21801458 -1.84326963
  H -0.31966290 -1.36497497 -2.00021742
