27
opt_min/./Reactant_1521_0_opt.xyz
  C -1.65711000  1.73971000  0.14243000
  C -2.12793787  0.42863908  0.63368877
  N -1.58865447 -0.73264868  0.25940866
  C -2.36721509 -1.92927091  0.54273647
  C -0.43993292 -0.86162762 -0.44400219
  C -0.30199306 -2.06487724 -1.33709585
  C  0.68168183  0.00962959 -0.22815979
  C  0.89323986  0.62105448  1.02323512
  C  2.00834993  1.39494470  1.26904977
  C  2.94909912  1.61311246  0.27716417
  C  2.76399777  1.02035371 -0.96377203
  C  1.66263773  0.23287235 -1.21226937
  H -1.30789107  1.64085870 -0.88634963
  H -0.81197364  2.13652910  0.72022341
  H -2.46803841  2.46355724  0.18796233
  H -2.93890205  0.39098666  1.34038631
  H -2.96307318 -1.76731762  1.43961966
  H -1.70844270 -2.77726598  0.70870534
  H -3.04742566 -2.15728349 -0.28053357
  H -1.25605268 -2.34588844 -1.77959886
  H  0.38876491 -1.86008784 -2.14735906
  H  0.09135127 -2.93116638 -0.79465863
  H  0.20186768  0.42219708  1.83064413
  H  2.14541467  1.83228004  2.24867239
  H  3.81548883  2.22863242  0.46727242
  H  3.48961847  1.18186900 -1.74909441
  H  1.54756068 -0.19591769 -2.19654854
