23
opt_min/./Reactant_307_1_opt.xyz
  C -1.93787303 -3.32958482 -0.72550778
  N -1.44264006 -2.08190769 -0.18901486
  C -0.26777449 -1.56231828 -0.61925377
  O  0.43665639 -2.12696895 -1.43395322
  C  0.15441295 -0.27337336 -0.01210627
  N  1.41490330 -0.00047063 -0.15415954
  C  2.50973073  0.41610749 -0.19757919
  C  3.72802795  1.12181048 -0.22391277
  C  3.54453219  2.41700388  0.54778267
  O  4.76106949  0.76333417 -0.73737504
  C -0.58253739  0.77357090  0.69758203
  C -2.09198926  0.73782227  0.71439449
  O  0.02025751  1.69091783  1.22960001
  H -2.57559144 -3.15331713 -1.59552570
  H -1.08740224 -3.93316921 -1.04281716
  H -2.50214360 -3.86171045  0.03685570
  H -1.94661064 -1.66688183  0.57354315
  H  3.85040291  2.24257772  1.57900043
  H  4.19551931  3.17634422  0.12192279
  H  2.51037604  2.74959810  0.54839668
  H -2.44358948  1.76770719  0.66890114
  H -2.42868416  0.32865184  1.66777231
  H -2.52530429  0.17952265 -0.10866294
