27
opt_min/./Reactant_5570_1_opt.xyz
  C -1.33532030  3.86270308 -0.41227716
  N -0.65819780  2.63123720 -0.09164549
  C -1.27247697  1.43145844 -0.14722229
  O -2.44084298  1.29607132 -0.48777933
  C -0.42259879  0.26631293  0.18704422
  O  0.85636334  0.50768649  0.31689904
  C  1.85780838 -0.33651169  0.43477238
  C  1.77807281 -1.73261525  0.28113455
  N  1.83548290 -2.85959860  0.06278898
  C  3.18854003  0.26930764  0.63377715
  C  3.18159658  1.77451714  0.78843005
  O  4.19918574 -0.39286633  0.67543319
  C -1.00951784 -1.02864503  0.62813297
  O -0.39018338 -1.70004233  1.44173832
  N -2.21755941 -1.32399546  0.13119062
  C -2.94909752 -2.48799404  0.56446371
  H -1.35002509  4.52993208  0.45086394
  H -0.84176822  4.36521493 -1.24566937
  H -2.35659032  3.61287899 -0.69408002
  H  0.29576813  2.68650086  0.22763078
  H  4.20158400  2.11582311  0.93922555
  H  2.77602823  2.24119420 -0.10749851
  H  2.57608710  2.06108303  1.64615561
  H -2.70323054 -0.59394485 -0.38193984
  H -2.32000590 -3.04295016  1.25878960
  H -3.18536117 -3.11930670 -0.29314268
  H -3.87638558 -2.19877123  1.06080728
