50
opt_min/./Reactant_3040_0_opt.xyz
  C -4.06684130 -1.90649433  1.33854181
  C -4.05111661 -1.70293085 -0.15426907
  O -4.47187474 -2.52426845 -0.92891079
  C -3.48399222 -0.36447072 -0.61747647
  C -4.53095441  0.75442950 -0.47829866
  C -5.95552003  0.35616336 -0.74794644
  O -4.20857202  1.87619331 -0.19264264
  C -2.24795622 -0.05894206  0.06774536
  C -1.07429465  0.08390828  0.27499535
  C  0.33867581 -0.09483237 -0.03510280
  C  0.96287303 -1.19233409  0.80091680
  C  0.28866979 -1.74690474  1.88002886
  C  0.85688342 -2.76811596  2.62204554
  C  2.11175401 -3.24963533  2.29536330
  C  2.79603566 -2.69979215  1.22445360
  C  2.22651026 -1.68113018  0.48327372
  C  1.06821433  1.23396406  0.07139682
  C  2.19724635  1.41162317  0.85879681
  C  2.81848958  2.64741875  0.93208638
  C  2.31505994  3.72752739  0.23112358
  C  1.16982377  3.56891845 -0.53106922
  C  0.55092357  2.33563842 -0.60469968
  C  0.23445824 -0.57065763 -1.52542570
  C -0.76739961 -1.72907585 -1.72188421
  C -2.01836079 -1.42099637 -2.56599022
  C -3.08085174 -0.39558230 -2.12161385
  H -5.10243191 -1.96204918  1.67343343
  H -3.55670946 -1.10385938  1.86298318
  H -3.60225248 -2.86156861  1.57571243
  H -6.02808622 -0.49605877 -1.41616643
  H -6.41235512  0.08936127  0.20588263
  H -6.50504394  1.20375670 -1.15120343
  H -0.68844515 -1.36958413  2.14589672
  H  0.31591501 -3.18765759  3.45775620
  H  2.55649142 -4.04677991  2.87266451
  H  3.77908220 -3.06543634  0.96518478
  H  2.77542843 -1.25753668 -0.34557666
  H  2.59999162  0.58834505  1.42964118
  H  3.69938885  2.76364223  1.54683576
  H  2.80254860  4.68953712  0.28842178
  H  0.75263558  4.41008929 -1.06485544
  H -0.36027849  2.23540235 -1.17640682
  H  1.22289478 -0.87096880 -1.87172833
  H -0.07821256  0.28037386 -2.12853743
  H -1.06886746 -2.13420249 -0.75723821
  H -0.25227917 -2.53903750 -2.24689207
  H -2.52432150 -2.37547413 -2.73091607
  H -1.66930172 -1.07078964 -3.53998481
  H -3.98100023 -0.61475083 -2.70103779
  H -2.75134183  0.61336781 -2.38083844
