34
opt_min/./Reactant_914_0_opt.xyz
  C  0.25355300  3.98061700 -0.00872200
  N -0.13611028  2.59195447 -0.02597700
  C  0.79689018  1.61908220  0.32360356
  O  1.85487440  1.94904189  0.84220369
  C  0.43102500  0.25370401  0.02039709
  C  1.43887972 -0.79153949  0.03342082
  C  1.09410233 -2.09843058  0.40732956
  C  2.03760225 -3.10475897  0.43710853
  C  3.35590236 -2.83777801  0.10777031
  C  3.71744994 -1.54693561 -0.24517251
  C  2.77680160 -0.53878638 -0.28931729
  N -0.86721980 -0.10389585 -0.27845225
  C -1.07210696 -0.97005321 -1.43171584
  C -1.91757846  0.33347148  0.39677530
  C -1.74371507  0.98325857  1.71817721
  C -3.30296068  0.18077883 -0.14143334
  H -0.60533806  4.60039244  0.25381141
  H  0.65646604  4.31554391 -0.97033016
  H  1.02936990  4.08750889  0.74819809
  H -0.82662742  2.34234831 -0.71855583
  H  0.07689429 -2.31568129  0.70559100
  H  1.74478452 -4.10355097  0.73099981
  H  4.09481347 -3.62516643  0.13710704
  H  4.74539187 -1.32830898 -0.49676508
  H  3.07317832  0.45943879 -0.56499281
  H -0.12121696 -1.41590608 -1.71145748
  H -1.43566526 -0.37927453 -2.27625366
  H -1.79262010 -1.75754195 -1.21480007
  H -0.80719316  0.65526960  2.17048351
  H -1.69034376  2.07196244  1.63877127
  H -2.58159560  0.72965646  2.36649995
  H -3.71094467 -0.80779826  0.08337673
  H -3.95738546  0.91660127  0.32101231
  H -3.34066677  0.31660251 -1.22097866
