26
opt_min/./Reactant_3870_1_opt.xyz
  C  3.64864800  0.44833500 -1.32885700
  O  2.74112664 -0.11779282 -0.40960371
  C  1.41144290  0.13329537 -0.68369256
  O  1.09325780  0.80585875 -1.65922567
  C  0.52765214 -0.53309525  0.20104586
  C  1.04135821 -1.50676620  1.21988504
  N -0.81967420 -0.41255037 -0.03733531
  C -1.65896566 -1.57059394  0.24574828
  C -1.35374954  0.67858349 -0.54903985
  C -0.84734419  2.05123123 -0.25308358
  C -2.63487340  0.63964936 -1.32269398
  H  3.43856726  0.10120817 -2.34417871
  H  4.64006345  0.12597995 -1.01611217
  H  3.58041774  1.54019905 -1.31797679
  H  2.12456577 -1.51744498  1.15718746
  H  0.69144517 -2.52631921  1.05062281
  H  0.76505216 -1.20537710  2.23323233
  H -2.70992360 -1.29541649  0.21420680
  H -1.43373647 -1.92451587  1.24976225
  H -1.46713648 -2.37461361 -0.46565583
  H -1.55957162  2.52721078  0.42906166
  H -0.79382270  2.65109598 -1.15826826
  H  0.13171955  2.05287482  0.20845033
  H -2.55462171  1.34078580 -2.15292162
  H -3.48921013  0.95397192 -0.71823755
  H -2.83773266 -0.34319489 -1.74068003
