25
opt_min/./Reactant_4508_0_opt.xyz
  C  2.81587400  1.37013800 -1.68245500
  C  1.36419060  1.60900604 -1.45931375
  O  0.75971455  0.82003020 -0.65239679
  C -0.47103150  0.68255777 -0.18895082
  C -1.55929376  1.62308723 -0.35599801
  C -1.24150486  3.02820920 -0.84292969
  O -2.71565851  1.33617151 -0.08067268
  C -0.64141402 -0.56899564  0.55938847
  C -1.61165420 -0.71478706  1.55321178
  C -1.73167704 -1.90132280  2.24990936
  C -0.88557089 -2.96529173  1.98385161
  C  0.08433621 -2.83156903  1.00407035
  C  0.20359836 -1.65087065  0.29859363
  H  3.42300538  2.13909757 -1.19957082
  H  3.04358948  1.39553890 -2.74704548
  H  3.10243953  0.40449817 -1.27251779
  H  0.88463308  2.41871308 -1.98675438
  H -1.14978509  3.04008096 -1.92845815
  H -0.33220249  3.41556484 -0.38858523
  H -2.08171462  3.66512532 -0.57463711
  H -2.27562171  0.10473523  1.77102637
  H -2.49027479 -1.99267137  3.01354968
  H -0.98129786 -3.89177198  2.53076176
  H  0.74801186 -3.65462700  0.78079006
  H  0.95618046 -1.57246152 -0.47393354
