26
opt_min/./Reactant_3995_1_opt.xyz
  C -2.46020494  0.68246664 -0.64920561
  C -1.03560809  0.24827787 -0.46011955
  C -0.25728645  0.27295294 -1.61004223
  N  0.26435586  0.28721903 -2.63951097
  N -0.57766074 -0.19767079  0.71599799
  C -1.55863519 -0.45613375  1.75525158
  C  0.71299090 -0.45126732  0.99214486
  C  1.06477973 -1.17961629  2.12445776
  N  1.40948298 -1.77412395  3.05096180
  C  1.83878966  0.01119918  0.17055823
  C  1.92378954  1.33987878 -0.25092621
  C  3.01937983  1.77681038 -0.96637739
  C  4.04836891  0.89890812 -1.26960573
  C  3.98235615 -0.41531558 -0.83913015
  C  2.88992540 -0.85760273 -0.11887044
  H -2.81719028  1.31225974  0.16414514
  H -3.12462692 -0.18231068 -0.72858545
  H -2.54366766  1.24499407 -1.57418398
  H -2.40547176 -1.00768717  1.35278741
  H -1.10192870 -1.03388819  2.55575692
  H -1.91285662  0.48903129  2.17084085
  H  1.13417946  2.03717873 -0.00567384
  H  3.07135605  2.80532216 -1.28858847
  H  4.90023415  1.24211168 -1.83601546
  H  4.78426041 -1.10113050 -1.06768060
  H  2.83752302 -1.88229018  0.21892981
