24
opt_min/./Reactant_1727_0_opt.xyz
  C  3.54160802 -0.78707800 -1.12925294
  N  2.43543668 -0.21604983 -0.39441953
  C  2.06721599 -0.74893657  0.80021741
  O  2.64361921 -1.66273901  1.33266251
  N  1.05949095 -0.04050210  1.45715303
  N -0.08593249  0.26554235  1.00276949
  C -0.75596020  1.25237825  1.83132081
  C -0.71170269 -0.28548562 -0.04684674
  C -0.10204557 -1.34490751 -0.75584297
  N  0.34045902 -2.21852526 -1.35330000
  C -2.03190094  0.05517006 -0.58902802
  O -2.50873790 -0.51960514 -1.53724895
  O -2.66907012  1.06842168  0.03746604
  C -3.94725775  1.39570251 -0.49125639
  H  4.48454049 -0.60980123 -0.60667023
  H  3.58038257 -0.34453584 -2.11982279
  H  3.39266267 -1.86404782 -1.21279612
  H  1.98463534  0.59868473 -0.77363044
  H -0.97285941  2.14874534  1.25292052
  H -1.69410259  0.85852321  2.21802255
  H -0.08031845  1.48616575  2.65159367
  H -4.56870345  0.50089643 -0.55619611
  H -3.84373532  1.82368052 -1.48994466
  H -4.37819990  2.11835228  0.19627607
