39
opt_min/./Reactant_2564_0_opt.xyz
  C -3.12993197  0.85114075  0.15651193
  C -2.28591797  0.46416612 -1.06022721
  C -2.73505222  1.26658787 -2.28163909
  C -0.87519412  0.63821488 -0.77362796
  C  0.25903383  0.34511905 -0.52640825
  C  1.44888058 -0.40875964 -0.17058128
  C  2.16374133  0.18439567  1.03264068
  C  1.36627506  0.61982081  2.08792150
  C  1.93458442  1.15049303  3.22940177
  C  3.31171803  1.25545212  3.33246254
  C  4.10872474  0.82717399  2.28724554
  C  3.54203413  0.29245372  1.14104766
  C  2.33863955 -0.46614509 -1.41961130
  F  1.65539693 -0.81883921 -2.52030352
  F  3.34486058 -1.35349262 -1.32701439
  F  2.90199595  0.71852127 -1.70431317
  C  0.92192625 -1.83326431  0.17625170
  C -0.21409830 -2.42245543 -0.68465339
  C -1.67197537 -2.00379303 -0.36318395
  C -2.37515105 -1.05372171 -1.35634892
  H -4.16532842  0.55886138 -0.00089005
  H -3.09204481  1.92706741  0.31268068
  H -2.76392605  0.36303010  1.05635903
  H -2.13706781  1.00114835 -3.15038030
  H -3.78016830  1.06153677 -2.50107479
  H -2.62057167  2.33245906 -2.09676696
  H  0.29183884  0.55060433  1.99754532
  H  1.30226613  1.48483799  4.03844177
  H  3.75938267  1.67139696  4.22249592
  H  5.18312497  0.90719364  2.35776702
  H  4.19587665 -0.03462230  0.34950245
  H  0.58548160 -1.81647136  1.21523002
  H  1.77882414 -2.51101901  0.12329388
  H -0.15555402 -3.49586425 -0.47987582
  H -0.01704710 -2.29847360 -1.74710430
  H -2.25993520 -2.92482787 -0.38961774
  H -1.73315376 -1.62487368  0.65593160
  H -3.43559856 -1.31465247 -1.39277017
  H -1.95585433 -1.23574415 -2.34713612
