10
opt_min/./Reactant_368_0_opt.xyz
  C  2.65564568 -0.61339273  1.51392962
  N -60.10161128  39.07528957  63.99331404
  N  100.25158574  13.64463037  34.25269622
  C -38.43596657 -7.89515214 -14.22304238
  C  88.21794219  25.34066896 -64.23499827
  O  138.00552767 -26.54593261  15.98363976
  H  26.76112117 -52.23355326  82.39966741
  H -52.07073232 -34.39897513  29.86879739
  H -106.83970483  0.03954204 -56.19240563
  H -80.37075109 -19.72524924  1.33021078
