31
opt_min/./Reactant_2671_0_opt.xyz
  C  4.29171200 -0.80249200  0.58494300
  O  3.02122149 -0.50281842  0.03910048
  C  3.03638914  0.29848393 -1.09822979
  O  4.04305351  0.62204314 -1.66355149
  N  1.79375427  0.64739631 -1.42175000
  N  0.69949170  0.15510628 -0.94477266
  C  0.40290332 -1.22378812 -1.33948151
  C -0.18250359  0.84853137 -0.25602655
  C  0.11942109  2.23297560  0.16700006
  C -0.86647028  2.82679419  1.14843420
  O  1.07980078  2.84866666 -0.23038662
  C -1.46547476  0.23486968  0.14204702
  C -2.65932811  0.64879814 -0.44174950
  C -3.86055079  0.09258234 -0.04046576
  C -3.88403999 -0.87148407  0.95333825
  C -2.70036919 -1.28406570  1.54358735
  C -1.49587764 -0.73823741  1.13953142
  H  5.03771622 -0.85038777 -0.21068917
  H  4.58349186 -0.03115300  1.30163371
  H  4.20299584 -1.76547683  1.08576296
  H  0.81946725 -1.38427606 -2.33289391
  H -0.66689033 -1.41660018 -1.34335475
  H  0.89742243 -1.90405188 -0.64540859
  H -0.39512050  3.67131809  1.64528037
  H -1.19909432  2.09800116  1.88134532
  H -1.73622370  3.19181620  0.60529516
  H -2.64088101  1.39653162 -1.22086780
  H -4.78236352  0.41315436 -0.50185679
  H -4.82094440 -1.30237680  1.27158958
  H -2.71388433 -2.03318412  2.32067167
  H -0.57113353 -1.04971053  1.60254118
