26
opt_min/./Reactant_2537_0_opt.xyz
  C  1.25223748  3.76835435 -2.21315345
  N  1.10460936  2.39517597 -1.79799163
  C  1.83129446  1.40399364 -2.37031061
  O  2.69175251  1.59597142 -3.20401145
  C  1.51688815  0.04669932 -1.85568283
  C  2.18147852 -1.04718261 -2.42171372
  N  2.75211592 -1.92156670 -2.90334967
  O  0.64394749 -0.04134701 -0.86888039
  C  0.17456603 -1.10966482 -0.27418226
  C  0.49635254 -2.42553267 -0.64792250
  N  0.70196358 -3.53644147 -0.86251974
  C -0.75377421 -0.90957823  0.82470575
  C -1.02395430  0.37791936  1.30417937
  C -1.91443681  0.56434073  2.34108522
  C -2.54798891 -0.52377690  2.92101784
  C -2.28090018 -1.80442053  2.46026180
  C -1.39435617 -2.00459532  1.42175022
  H  0.47122437  4.05363513 -2.92337408
  H  2.21959597  3.86462478 -2.70173319
  H  1.20662075  4.42435438 -1.34530720
  H  0.34805247  2.17715801 -1.17231158
  H -0.52065827  1.23009120  0.87146614
  H -2.11318853  1.56315623  2.69802764
  H -3.24514327 -0.37694430  3.73181164
  H -2.76824041 -2.65328511  2.91437536
  H -1.19124539 -3.00088336  1.06163119
