33
opt_min/./Reactant_2570_1_opt.xyz
  C  4.78139459 -0.36378102  0.30844175
  N  3.49288123 -1.00782401  0.24297606
  C  2.33982668 -0.36288354  0.54414185
  O  2.31006277  0.79539715  0.89796010
  C  1.09533000 -1.22788814  0.34941521
  C -0.03465052 -0.72054727  1.09474504
  C -1.08620134 -0.15793566  1.22708876
  C -2.36621762  0.43987073  0.89366144
  C -2.26436605  1.97154037  0.94491935
  C -3.48714262 -0.04284577  1.81902567
  C -2.58559846 -0.08341864 -0.54368242
  C -1.56444111  0.33860103 -1.62319761
  C -0.03506420  0.24636128 -1.43611562
  C  0.61765424 -1.11915037 -1.12803154
  H  5.46201166 -0.92660657  0.95028399
  H  4.62626459  0.63046020  0.72555560
  H  5.22107046 -0.26851011 -0.68815139
  H  3.46831576 -1.97100167 -0.05267077
  H  1.31921184 -2.26622940  0.61945999
  H -2.89636426  2.41989490  0.17934172
  H -1.23860347  2.29419935  0.77863903
  H -2.58499995  2.34163164  1.91606948
  H -3.69425790 -1.10014393  1.65722614
  H -4.40078127  0.52103045  1.63296423
  H -3.19801702  0.09489168  2.85923153
  H -2.63638456 -1.17402558 -0.50790281
  H -3.55906522  0.27583482 -0.89935160
  H -1.74982740  1.39279187 -1.85063350
  H -1.82701999 -0.23863991 -2.51609337
  H  0.29029289  0.96551593 -0.68604855
  H  0.37405723  0.59243911 -2.39128429
  H -0.07747274 -1.93129038 -1.34374283
  H  1.48291026 -1.24481961 -1.78349821
