14
opt_min/./Reactant_1954_0_opt.xyz
  C  2.19399000 -0.40168000 -0.53395700
  O  1.39509402  0.71116069 -0.15754661
  C  0.39822084  0.47508661  0.72955649
  O -0.26829617 -0.70728522  0.69355079
  C -1.21887349 -0.82245143 -0.36405023
  C  0.08595742  1.41249803  1.62784815
 Br -1.39168932  1.22827709  2.77170812
 Br  1.08557946  3.00133940  1.76226138
  H  2.89097360 -0.01796343 -1.27714764
  H  2.74355901 -0.78573550  0.32942338
  H  1.59311952 -1.20561533 -0.96332489
  H -1.61081249 -1.83630495 -0.29564336
  H -0.75380406 -0.66426439 -1.34119298
  H -2.03184299 -0.10360207 -0.23056408
