46
opt_min/./Reactant_3208_0_opt.xyz
  C  5.35695960  2.15320099  1.77669023
  O  4.56302168  1.05732075  1.33830634
  C  3.27082896  1.28570367  1.12918549
  O  2.72950789  2.35146135  1.25325523
  C  2.55243569  0.02967975  0.63017893
 Cl  3.17941847 -1.38783698  1.55413979
  C  1.12106510  0.13159087  0.77189883
  C -0.02237550  0.01655721  0.42034530
  C -1.12236921 -0.09410905 -0.52605747
  C -2.07510507 -1.22745440 -0.21072063
  C -2.02472857 -1.88239659  1.01193078
  C -2.91003679 -2.90761171  1.29471962
  C -3.85709697 -3.28512964  0.35922286
  C -3.91980477 -2.62795402 -0.85800416
  C -3.03641961 -1.60260124 -1.14055054
  C -1.92054522  1.19434944 -0.57534012
  C -2.30245528  1.78098124  0.62537946
  C -3.05842162  2.93799185  0.63540255
  C -3.44698635  3.52250497 -0.55802001
  C -3.07409296  2.94189835 -1.75666810
  C -2.31609882  1.78338085 -1.76788260
  C -0.25707080 -0.36665823 -1.79377922
  C  0.67221446 -1.58386422 -1.55361233
  C  2.19746639 -1.36205313 -1.57636122
  C  2.82736824 -0.14409521 -0.87812161
  H  5.42113971  2.14032492  2.86601807
  H  6.34630571  2.01727711  1.34485292
  H  4.91064720  3.09297626  1.44739652
  H -1.28172885 -1.58896619  1.74041437
  H -2.85923230 -3.41166242  2.24870454
  H -4.54661591 -4.08704650  0.57863129
  H -4.66243940 -2.91418717 -1.58855275
  H -3.10338014 -1.08365741 -2.08537297
  H -1.99608292  1.32696577  1.55672227
  H -3.34277507  3.38317061  1.57735742
  H -4.03657982  4.42741187 -0.55391986
  H -3.37353826  3.39271509 -2.69199170
  H -2.03264507  1.34535193 -2.71247497
  H -0.87419468 -0.57642574 -2.66617531
  H  0.31929703  0.54140969 -1.96310725
  H  0.42529883 -2.29829277 -2.34459058
  H  0.39937895 -2.06519344 -0.61605296
  H  2.64352081 -2.26128971 -1.14614024
  H  2.52035444 -1.31079837 -2.61910801
  H  2.49905157  0.77850274 -1.36504507
  H  3.90906860 -0.21784786 -1.01895587
