22
opt_min/./Reactant_2236_0_opt.xyz
  C -3.52596790 -0.14185794 -1.27489335
  N -2.17252699 -0.48467825 -0.90077699
  C -1.86675307 -0.86002792  0.35683693
  O -2.67536908 -0.97932361  1.25078152
  C -0.41391727 -1.17290754  0.60141354
  C -0.17270651 -2.24055811  1.49066374
  N  0.01329707 -3.11098698  2.21479523
  O  0.64318262 -0.54695775  0.18652016
  C  0.84179139  0.53430604 -0.51992744
  C -0.12950906  1.40637957 -1.03589890
  N -0.87965120  2.16266515 -1.46846873
  C  2.26185629  0.89686330 -0.75807213
  O  2.60732915  1.87478276 -1.36894110
  O  3.07697088 -0.01200490 -0.21551043
  C  4.47684067  0.19795219 -0.34845464
  H -3.50052209  0.60649856 -2.06252313
  H -4.07190399 -1.02382097 -1.61636735
  H -4.02914699  0.26100000 -0.39737887
  H -1.49050653 -0.50046901 -1.64206425
  H  4.91610696  0.14896748  0.64690448
  H  4.66780705  1.17076367 -0.80514340
  H  4.88716716 -0.59533537 -0.97419516
