27
opt_min/./Reactant_1802_1_opt.xyz
  C  3.96054900 -0.18553100  0.12755100
  N  2.54993029 -0.35619244 -0.12381196
  C  1.68124457  0.67684546  0.04139642
  O  2.06278706  1.78357787  0.38604066
  C  0.27945850  0.36321752 -0.24973297
  C -0.77608646  1.14306536  0.05856838
  C -0.79398607  2.47318292  0.70734718
  C -2.01729971  0.36045538 -0.29801748
  C -2.09897907 -0.77155190  0.75620735
  C -0.90760494 -1.67772960  0.38158155
  C -0.27748875 -0.93020316 -0.81577739
  C -1.52981819 -0.41032553 -1.52842408
  H  4.15387595 -0.05811091  1.19435339
  H  4.31412615  0.71238370 -0.38063935
  H  4.50676411 -1.05098451 -0.23416521
  H  2.20897831 -1.26200057 -0.38301706
  H -0.42766858  3.22074845  0.00939692
  H -0.11578306  2.49322615  1.55700065
  H -1.79858073  2.73967079  1.02777522
  H -2.93188089  0.94232526 -0.40930913
  H -2.00736381 -0.37377981  1.76297969
  H -3.04538177 -1.30067309  0.67725932
  H -0.20427332 -1.79436818  1.20222311
  H -1.24814022 -2.66128860  0.06297865
  H  0.39872748 -1.53621120 -1.42044281
  H -2.21021413 -1.20136625 -1.83542172
  H -1.29521835  0.24289424 -2.36453856
