26
opt_min/./Reactant_1908_0_opt.xyz
  C  4.29661366  2.08099515  1.58082702
  N  3.07683268  1.57163687  0.99984713
  C  2.58869967  0.35730341  1.38039969
  O  3.12994099 -0.37473540  2.20331419
  C  1.41650122 -0.08204088  0.75250675
  N  0.38000120 -0.60082400  0.49349049
  C -0.72963483 -1.18157614  0.22126567
  C -0.97922888 -2.51158851  0.87713533
  C -1.67731461 -0.57436703 -0.68406730
  C -2.91032374 -1.18150820 -0.95296095
  C -3.81014391 -0.59417470 -1.81924662
  C -3.51191744  0.60830811 -2.43951988
  C -2.29558923  1.22192060 -2.18318752
  C -1.39061470  0.64224766 -1.31943059
  H  4.21722347  2.08480584  2.66977131
  H  4.47324788  3.09202082  1.22508056
  H  5.14231068  1.44543017  1.30712870
  H  2.58374750  2.12194894  0.31858827
  H -0.11510088 -2.79501150  1.47330269
  H -1.15658328 -3.28069921  0.12620401
  H -1.84793180 -2.45775324  1.53338851
  H -3.16595823 -2.11613134 -0.47970431
  H -4.75596435 -1.07938752 -2.01318724
  H -4.21896427  1.06278060 -3.11683928
  H -2.05303871  2.15965604 -2.66206727
  H -0.44362430  1.12782977 -1.12947646
