28
opt_min/./Reactant_2077_1_opt.xyz
  C -1.48501773  2.29449088  1.69177433
  C -1.31262801  0.89427701  2.20072562
  O -1.87757619  0.44505561  3.15809585
  C -0.34767542  0.03618410  1.35666740
  C  0.45636621 -0.86309867  2.30858054
  F  0.99281450 -0.15484290  3.31440348
  F  1.49123088 -1.46975038  1.70023974
  F -0.27069243 -1.83853905  2.85741851
  C  0.56287819  0.77670217  0.51220904
  C  1.16816372  1.06980168 -0.47992735
  C  1.70931408  0.98052511 -1.81284308
  C  1.42462086 -0.47873178 -2.21776601
  C -0.03904512 -0.93380043 -2.03900950
  C -0.44727040 -1.61909935 -0.71104306
  C -1.19775680 -0.80668008  0.36450120
  H -2.27536638  2.79659887  2.24293809
  H -1.71149783  2.28139441  0.62796876
  H -0.54895022  2.83555352  1.82230014
  H  2.77634462  1.19816354 -1.85231353
  H  1.18171544  1.66732669 -2.47905972
  H  1.69072849 -0.58772281 -3.27106448
  H  2.06920869 -1.14165104 -1.63850401
  H -0.72362752 -0.11459638 -2.26479577
  H -0.19433535 -1.69576175 -2.80785410
  H  0.41456512 -2.13103981 -0.28650503
  H -1.16617352 -2.39420460 -0.99179705
  H -1.88645564 -0.12444569 -0.13933023
  H -1.79541895 -1.49916650  0.96245747
