16
opt_min/./Reactant_1480_1_opt.xyz
  C  2.12721900 -0.61762600 -0.62596800
  C  2.14889919  0.73374298  0.01957110
  O  3.16900866  1.25810138  0.38983549
  C  0.84275596  1.44434896  0.22418870
 Cl  1.06154050  2.96971328  1.00557476
  C -0.40446511  1.00680603 -0.02671341
 Cl -1.75116600  1.97010120  0.45532791
  C -0.85860888 -0.22561404 -0.76408306
  C -1.78254866 -1.09761842  0.03226619
  O -0.53115648 -0.44203166 -1.89939534
  H  1.68229525 -0.55559980 -1.61470838
  H  1.53894674 -1.31434311 -0.03339523
  H  3.14968095 -0.97755805 -0.69951104
  H -2.76083346 -0.62582955  0.09623106
  H -1.88755501 -2.06104425 -0.46127966
  H -1.40486640 -1.22247404  1.04476888
