19
opt_min/./Reactant_431_0_opt.xyz
  C -1.38581165  0.14704992  1.23759384
  C -1.25776447 -0.57987535 -0.08686084
  O -2.05872538 -1.44541261 -0.40567231
  C -0.29917278 -0.06337409 -1.04776966
  C -0.64892437 -0.12783147 -2.50462226
  O  0.79505150  0.62184268 -0.80190324
  C  1.61790360  0.57745857  0.22207231
  C  1.57575543 -0.44242838  1.31073182
  C  2.67836924  1.48210950  0.18779273
  N  3.53735373  2.24907126  0.23092173
  H -2.44491795  0.34753875  1.38926142
  H -0.83854646  1.08584231  1.25702913
  H -1.06154805 -0.48682956  2.06121246
  H -0.42552275  0.82084006 -2.98957155
  H -1.70066070 -0.37063897 -2.61888239
  H -0.06071675 -0.90467271 -2.99600346
  H  2.59539494 -0.75218749  1.54110722
  H  0.99974476 -1.30555751  0.97481777
  H  1.13934127 -0.05963778  2.23375998
