26
opt_min/./Reactant_658_0_opt.xyz
  C -1.94844506  3.22624098  1.55765596
  C -1.29528756  2.04437540  1.08624083
  N -0.69172347  1.09294245  0.76024377
  C -0.02008090  0.05501053  0.35051676
  C -0.11115732 -1.16064186  1.15745046
  O  0.41307854 -2.22417455  0.86300468
  N -0.86567947 -1.05485183  2.29873118
  C -0.97068046 -2.14956039  3.23055237
  C  0.74184143  0.19211581 -0.88285397
  C  0.72678818  1.39608699 -1.60018490
  C  1.45476121  1.54011313 -2.76288614
  C  2.22021875  0.49411118 -3.25036663
  C  2.24229261 -0.70258991 -2.55188414
  C  1.51796731 -0.85560089 -1.38672306
  H -2.04861035  3.92379502  0.72722466
  H -2.95129863  2.98412888  1.91553362
  H -1.38847741  3.70893441  2.36404816
  H -1.19252018 -0.15668579  2.60974561
  H -0.63131220 -3.04438252  2.71273679
  H -2.00819307 -2.27702931  3.54097391
  H -0.34472197 -1.98976868  4.11320391
  H  0.13647244  2.23054567 -1.24565530
  H  1.42328896  2.48083978 -3.29541550
  H  2.78973367  0.61038252 -4.16043138
  H  2.83276700 -1.53029119 -2.91826300
  H  1.54317572 -1.79294666 -0.85706449
