25
opt_min/./Reactant_5727_1_opt.xyz
  C -1.69903700  3.66079900  0.06026196
  C -1.16419977  2.34025412  0.15297636
  N -0.74272713  1.25409750  0.21898569
  C -0.29856445  0.02782002  0.29743021
  C -1.29762221 -1.00325865  0.17735604
  O -1.12758562 -2.20122467  0.22984170
  O -2.53911496 -0.44491938 -0.00838213
  C -3.61337649 -1.35261363 -0.11139701
  C  1.13016464 -0.19636498  0.48818263
  C  1.68138867 -1.47664587  0.45119004
  C  3.04040693 -1.66147398  0.63231385
  C  3.87673253 -0.57999332  0.84988439
  C  3.34101033  0.70020279  0.88914604
  C  1.98818388  0.89007850  0.71235217
  H -1.04634526  4.28126198 -0.55246659
  H -1.80969255  4.11940682  1.04580105
  H -2.67971465  3.59804258 -0.40809286
  H -4.35431099 -0.90951108 -0.77273917
  H -3.27634689 -2.30595527 -0.52394976
  H -4.05627811 -1.53272598  0.86871777
  H  1.05381952 -2.33634513  0.28757215
  H  3.44756650 -2.65902046  0.60072482
  H  4.93573123 -0.73165403  0.98908097
  H  3.99398354  1.54341356  1.06140000
  H  1.57374480  1.88929616  0.74890298
