34
opt_min/./Reactant_5940_1_opt.xyz
  C  3.93516200 -2.63715900 -2.07114800
  N  2.64159314 -2.41475003 -1.47362543
  C  2.15456350 -1.16505157 -1.27843821
  O  2.76453180 -0.15556497 -1.62570628
  C  0.84168140 -1.04942784 -0.63377756
  C -0.02883048 -2.21458097 -0.30873645
  N  0.49050650  0.21779576 -0.46995992
  C -0.54426061  0.83996073  0.10460673
  C -0.69368918  2.25534751 -0.19056382
  O -1.53223767  2.99624151  0.27634005
  O  0.25419958  2.68709111 -1.07715073
  C  0.24885707  4.06426940 -1.40644994
  C -1.41638970  0.22535103  1.10062704
  C -0.87326512 -0.55861935  2.12435417
  C -1.68336602 -1.08996124  3.10767067
  C -3.04706912 -0.84366294  3.09996075
  C -3.58992773 -0.04604687  2.10758418
  C -2.78628579  0.48847172  1.11882044
  H  4.71463539 -2.73425979 -1.30879815
  H  3.91357516 -3.54290944 -2.67576215
  H  4.17125235 -1.77706558 -2.69679668
  H  2.13298480 -3.21247735 -1.13283298
  H -0.02201367 -2.92562780 -1.13591430
  H -1.05262360 -1.88204995 -0.15860347
  H  0.29400059 -2.73206292  0.59754820
  H  1.17214487  0.83771591 -0.94454309
  H -0.20212164  4.19922363 -2.39230190
  H -0.32773613  4.62139860 -0.66460460
  H  1.28447080  4.40160534 -1.41945065
  H  0.19352354 -0.72238331  2.16212997
  H -1.24698086 -1.69207165  3.89177023
  H -3.67804990 -1.26143618  3.87027000
  H -4.65013047  0.16342669  2.10395023
  H -3.21243142  1.11171541  0.34988631
