12
opt_min/./Reactant_185_0_opt.xyz
  C  0.52590100 -0.51392100  1.53574000
  C  0.74689605 -0.63844379  0.04396635
  O  1.60472213 -1.33833923 -0.43278555
  C -0.15220643  0.17021160 -0.81710680
  C -0.00215728  0.07652748 -2.21926456
  N  0.13314492 -0.00371773 -3.35409313
  N -1.06889343  0.97006914 -0.31861964
  O -1.87066069  1.69171605 -0.91960846
  H  1.21348976 -1.19102334  2.03478816
  H -0.49037243 -0.78015022  1.81769384
  H  0.73973097  0.50027148  1.86950012
  H -1.12421643  1.00108291  0.71728863
