27
opt_min/./Reactant_2374_1_opt.xyz
  C -4.12130300 -1.17344600  0.02338700
  N -2.77286809 -1.39608090 -0.43204148
  C -1.78132344 -0.53340965 -0.17295108
  O -1.92739570  0.50386551  0.44978116
  C -0.42120225 -0.89817252 -0.67627938
 Br -0.24818174 -2.41067887 -1.82200952
  C  0.65571734 -0.19925772 -0.32174904
  C  2.05385953 -0.57033677 -0.73960459
  O  2.38259610 -0.69264422 -1.90026107
  N  2.86178232 -0.75135346  0.31941623
  C  4.24880289 -1.11461306  0.17825962
  C  0.59059918  0.92759072  0.68025073
  O  0.91543972  0.70902985  1.83274081
  N  0.34995517  2.13998228  0.16560563
  C  0.22104440  3.30728807  1.00403522
  H -4.45673642 -2.01370081  0.63252279
  H -4.79700146 -1.05233151 -0.82498958
  H -4.12653476 -0.26404249  0.62245629
  H -2.58736654 -2.24178480 -0.95142244
  H  2.50324214 -0.55365040  1.24625289
  H  4.44235887 -1.28468830 -0.88008053
  H  4.46025922 -2.02751015  0.73693342
  H  4.89668479 -0.31452437  0.54142253
  H  0.03871970  2.22086695 -0.79021669
  H  0.79358258  4.13273074  0.58045328
  H  0.61385229  3.05179228  1.98640186
  H -0.82576011  3.59881571  1.10459728
