21
opt_min/./Reactant_2873_1_opt.xyz
  N  3.63493870 -2.10712898  0.21965556
  C  2.53779780 -1.83481311  0.06191785
  C  1.14806591 -1.49433295 -0.10989982
 Br  0.19372056 -3.24181245 -0.47971895
  C  0.54504135 -0.86279009  1.03163047
  C -0.16207175 -0.08694181  1.61692072
  C -1.10148982  0.96366075  1.86076644
 Cl -2.24264435  0.59414030  3.18797403
 Cl -0.20511405  2.46580358  2.28772595
  C -1.84906812  1.15249474  0.53185570
  C -0.93057816  1.28276181 -0.69970102
  C -0.53911467 -0.02165936 -1.43566385
  C  0.91068172 -0.51870657 -1.28786736
  H -2.51578844  0.29814539  0.40199932
  H -2.46076998  2.05111115  0.62213477
  H -1.49004588  1.88984433 -1.41469239
  H -0.03801408  1.85126552 -0.43653195
  H -0.66846238  0.16868199 -2.50386676
  H -1.23654955 -0.81939464 -1.17512823
  H  1.21515660 -1.02773232 -2.20571819
  H  1.57496745  0.33736427 -1.13992937
