18
opt_min/./Reactant_1288_0_opt.xyz
  C -0.05347132  2.01940470  1.16660714
  C -0.77745307  1.13174940  0.20139952
  O -1.85645666  1.46589369 -0.26740300
  C -0.24738104 -0.19183684 -0.17232103
  N -1.15359114 -0.86722960 -0.88422072
  N -1.05576954 -2.03161352 -1.37299286
  C -1.98211789 -2.62578016 -2.05193866
  N -2.70662663 -3.29452855 -2.65121191
  C  1.05427730 -0.83284819  0.10428287
  C  2.21650096  0.02407458  0.53606091
  O  1.19078532 -2.02227009 -0.07179470
  H  0.21650219  1.47285971  2.06606803
  H  0.84811633  2.42630739  0.71667294
  H -0.70786085  2.84706159  1.42834126
  H -2.01296642 -0.28013215 -1.01184790
  H  2.32712304  0.88770975 -0.11407177
  H  2.09227959  0.36331717  1.56061733
  H  3.11767592 -0.58104766  0.48578742
