34
opt_min/./Reactant_5859_1_opt.xyz
  C  4.95576101  0.11467302  0.39787488
  O  3.53665542  0.12185491  0.39500290
  C  2.92917479 -0.98981324 -0.10154284
  O  3.55730589 -1.93060907 -0.53347248
  C  1.47741758 -0.94509079 -0.13940530
  C  0.93397551 -2.08271889 -0.76467454
  N  0.54463576 -3.04940278 -1.24994272
  N  0.63771239 -0.01922528  0.38869850
  C  1.18049057  0.99069415  1.27552618
  C -0.66327851  0.01222684  0.10872188
  C -1.21266176 -0.58109210 -1.13993754
  O -2.28334959 -1.12367201 -1.21695032
  O -0.41329451 -0.32128992 -2.19091144
  C -0.80436788 -0.86283228 -3.44692607
  C -1.65193502  0.60700481  0.99706173
  C -1.57523231  0.41156067  2.38423763
  C -2.54901742  0.92278317  3.21708893
  C -3.61693295  1.63617841  2.69439150
  C -3.70702874  1.82786337  1.32575225
  C -2.73749711  1.31859337  0.48402500
  H  5.28192418  1.12583255  0.16308138
  H  5.32624100 -0.59939853 -0.33828858
  H  5.31572442 -0.16736465  1.39000400
  H  0.38084291  1.62893512  1.64145934
  H  1.69872492  0.53414712  2.11827718
  H  1.90194698  1.59038847  0.72394030
  H -1.88478120 -1.01041243 -3.46781025
  H -0.49276454 -0.15307537 -4.20966566
  H -0.30021099 -1.81905686 -3.58790747
  H -0.76995001 -0.17304877  2.80301759
  H -2.47884769  0.75557134  4.28201948
  H -4.37739788  2.03183464  3.34945381
  H -4.53908635  2.37389955  0.90839452
  H -2.81043118  1.47602784 -0.58101280
