32
opt_min/./Reactant_5736_1_opt.xyz
  C -0.07423200  0.63951100  1.38718900
  N  0.01093944  0.11148357  0.05006163
  C -1.01875071 -0.35680130 -0.66713367
  C -2.43406632 -0.32932068 -0.41826936
  C -3.23155376 -1.24850706 -1.12122049
  C -4.59678133 -1.27919118 -0.94165885
  C -5.20985047 -0.39754034 -0.06353158
  C -4.43701725  0.52772218  0.61760444
  C -3.06623490  0.57225717  0.44626004
  O -0.55389348 -0.96155588 -1.76582862
  C  0.84859334 -0.90016625 -1.77111588
  O  1.50214072 -1.38968981 -2.66253073
  C  1.18739802 -0.18392926 -0.58676105
  C  2.51994922  0.18859827 -0.17270715
  C  2.79812685  1.38372620  0.49749892
  C  4.09501943  1.70052832  0.85489652
  C  5.13716551  0.84355537  0.54354026
  C  4.87693227 -0.32820117 -0.14916017
  C  3.58474910 -0.65636125 -0.50557054
  H -0.28471280  1.71050726  1.37465946
  H  0.87941491  0.47173499  1.88931979
  H -0.86499721  0.12421198  1.93259826
  H -2.75116546 -1.93299577 -1.80194422
  H -5.19060343 -1.99651098 -1.48881910
  H -6.27929907 -0.42637315  0.07837421
  H -4.90770185  1.23240746  1.28822372
  H -2.50953958  1.33599210  0.96243495
  H  2.00785948  2.09142762  0.70458182
  H  4.29392013  2.62925340  1.37045691
  H  6.14889931  1.09459768  0.82610546
  H  5.68872330 -0.99115122 -0.41208332
  H  3.37973987 -1.56075312 -1.05470358
