13
opt_min/./Reactant_88_0_opt.xyz
  C  3.09388173 -1.68927566  0.75104783
  N  2.11417102 -0.94465275  0.45704158
  C  1.25793309 -0.20169989  0.11089263
  C  0.12656821  0.63524362  0.17058833
  O  0.16924277  1.68973346  0.78625722
  N -0.95305622  0.22329252 -0.55977472
  C -2.16372007  0.99964102 -0.61503470
  H  3.14343203 -2.68300154  0.34803241
  H  3.86716253 -1.32443244  1.39910513
  H -0.93428882 -0.68465480 -0.99738997
  H -2.43782810  1.21402264 -1.64999975
  H -1.96604558  1.93553089 -0.09329990
  H -2.99177252  0.48245208 -0.12285465
