17
opt_min/./Reactant_5303_1_opt.xyz
  C  1.38279398 -2.60234401  0.46170600
  C  1.33552075 -1.30486495 -0.29403231
  O  2.17002306 -0.94978124 -1.10369023
  N  0.28560334 -0.52957958  0.11827160
  N -0.20531445  0.47198480 -0.51098490
  C -0.06502103  0.65886428 -1.95054603
  C -0.97496941  1.33669062  0.14534695
  C -1.62747922  2.38869268 -0.51577663
  N -2.15640115  3.25875042 -1.04630730
  C -1.17146897  1.22824920  1.53640347
  N -1.35037305  1.16377980  2.66694573
  H  0.68879311 -2.58552200  1.29530702
  H  1.11895132 -3.41145685 -0.21846752
  H  2.39730293 -2.77810939  0.81218828
  H -0.96701623  0.30803408 -2.45557679
  H  0.79954968  0.09590142 -2.29898599
  H  0.07559196  1.71567760 -2.17625780
