40
opt_min/./Reactant_5779_1_opt.xyz
  C  0.56583000  2.50682700 -2.99926000
  N  0.56061861  1.31752661 -2.18072445
  C  1.44373149  1.17219109 -1.15854063
  O  2.37269670  1.93153306 -0.98649104
  C  1.27331540 -0.10849731 -0.39907185
  O  0.12880663 -0.62364236 -0.04191427
  C -1.09910862 -0.10499490  0.04045581
  C -1.26273332  1.33159459  0.16138646
  O -0.33794202  2.09957230  0.35532478
  O -2.54152396  1.75950330  0.05795900
  C -2.72693048  3.15256713  0.24896416
  C -2.12975817 -1.11106253  0.21970043
  C -3.38270180 -0.84020963  0.77914459
  C -4.31536321 -1.84648546  0.93271078
  C -4.02770579 -3.14502394  0.54407587
  C -2.78812804 -3.43019845 -0.00585177
  C -1.85324182 -2.42971780 -0.17154334
  C  2.42231000 -0.94370544 -0.12244643
  C  2.27818298 -2.07759808  0.69480898
  C  3.35638406 -2.89301892  0.96347303
  C  4.60554025 -2.59875593  0.43790229
  C  4.76464581 -1.47758851 -0.36190210
  C  3.69103515 -0.65894873 -0.64746278
  H  0.10453168  2.29039100 -3.95988495
  H  1.59964253  2.81891081 -3.14236439
  H  0.02881864  3.32276749 -2.50762202
  H -0.21369425  0.68277901 -2.28717212
  H -2.48148942  3.43405183  1.27536170
  H -2.08452031  3.72008692 -0.42805567
  H -3.77541267  3.34884618  0.03917784
  H -3.62093897  0.15828813  1.10311274
  H -5.27664712 -1.61582214  1.36826837
  H -4.76135567 -3.92723754  0.66826207
  H -2.55166139 -4.43806901 -0.31458488
  H -0.89588429 -2.66330209 -0.61422880
  H  1.31418919 -2.30481382  1.12417673
  H  3.22615849 -3.76007180  1.59461676
  H  5.44957795 -3.23607497  0.65547803
  H  5.73605444 -1.24143429 -0.77017185
  H  3.82809078  0.21179638 -1.26609290
