23
opt_min/./Reactant_3806_1_opt.xyz
  C  4.51175293 -1.38007497  0.29701783
  N  3.12357342 -0.98754616  0.29558582
  C  2.39525914 -0.98292757 -0.85132922
  O  2.82300298 -1.26701208 -1.94810258
  C  1.03082389 -0.59698068 -0.64926673
  N -0.07381017 -0.22770463 -0.52932915
  C -1.31111613  0.15573360 -0.48937271
  C -2.02916508  0.12762394 -1.78383952
  C -3.45064500  0.60158786 -1.76568310
  O -1.47808477 -0.26677708 -2.78891610
  C -1.86962768  0.55843569  0.79514106
  C -0.89638482  0.49667520  1.95779742
  O -3.01753926  0.91782544  0.94984864
  H  5.08846392 -0.70858968  0.93225053
  H  4.63025484 -2.40626766  0.65513443
  H  4.87633463 -1.32197969 -0.72753214
  H  2.68522930 -0.77429064  1.17704501
  H -3.49854137  1.63006211 -1.41419397
  H -3.85665009  0.53084987 -2.77188688
  H -4.04043287 -0.00130622 -1.07887058
  H -0.01635685  1.10399464  1.75349816
  H -1.39255113  0.86732090  2.85112949
  H -0.58248346 -0.53287704  2.12557418
