44
opt_min/./Reactant_2333_0_opt.xyz
  C  4.37163168 -3.46196070  0.20408596
  N  3.54649608 -2.28512424  0.09288989
  C  2.20622666 -2.34460206  0.16114334
  O  1.58790040 -3.36938715  0.36001360
  C  1.49740837 -0.97464484  0.05959967
  C  2.02951091 -0.11438016 -1.09461647
  O  3.15503964 -0.21511600 -1.55380576
  N  1.15627364  0.80150636 -1.54577442
  C  1.48593890  1.71451293 -2.61418060
  C  0.06355283 -1.16447775 -0.00213193
  C -1.10031558 -1.12697584  0.29332791
  C -2.26728001 -0.62420793  0.98851955
  C -3.23945760  0.12233505  0.10569093
  C -4.48654780  0.46202112  0.61690844
  C -5.38565813  1.19091253 -0.13908336
  C -5.04992896  1.59279271 -1.42100960
  C -3.81616583  1.24842302 -1.94361472
  C -2.91697806  0.51896773 -1.18409637
  C -1.64115692  0.31268679  2.06318048
  C -0.58045036  1.27399347  1.48646512
  C  0.92009857  1.03038872  1.76424036
  C  1.69501860 -0.26946344  1.42956876
  H  5.10603490 -3.33287602  1.00167045
  H  4.89209019 -3.66406234 -0.73522290
  H  3.72220411 -4.30466758  0.43841788
  H  3.99781701 -1.42285544 -0.18261177
  H  0.21887480  0.79419762 -1.17358855
  H  2.12513702  2.52183709 -2.24678032
  H  2.02904184  1.17916754 -3.39470470
  H  0.57346305  2.13985150 -3.02423689
  H -2.79513334 -1.45212656  1.47721022
  H -4.75637663  0.14723435  1.61527487
  H -6.35237984  1.44533621  0.27188915
  H -5.75060034  2.16369026 -2.01219367
  H -3.55045179  1.54559838 -2.94751818
  H -1.96863920  0.22314568 -1.60957332
  H -2.44084312  0.90759688  2.50929843
  H -1.20618091 -0.28825823  2.86171685
  H -0.76740370  1.39838243  0.42085060
  H -0.76762859  2.26139556  1.92428138
  H  1.43470735  1.85223371  1.25412835
  H  1.06815278  1.16215300  2.83949101
  H  2.75428944 -0.01778332  1.54068918
  H  1.45028084 -1.01738250  2.19012451
