25
opt_min/./Reactant_1591_0_opt.xyz
  C -1.92208700  4.09785800 -0.31343500
  O -1.30279989  2.82251465 -0.22356678
  C -2.11058126  1.72918569 -0.32062001
  O -3.29620817  1.80275054 -0.48688283
  C -1.31050410  0.49864004 -0.20751997
  N -0.00103011  0.65636091 -0.01207839
  C  1.02437881 -0.14775698  0.12912361
  C  2.30642233  0.50546633  0.32400512
  C  3.50796044 -0.38991540  0.45804971
  O  2.37795489  1.72536042  0.33277564
  C -2.00007544 -0.79193271 -0.31269674
  O -3.18022914 -0.93356247 -0.49032258
  O -1.14287200 -1.84063492 -0.20829426
  C -1.71558691 -3.13707480 -0.31636091
  H -1.84862283  4.59257684  0.65552113
  H -2.97035873  3.97958935 -0.59311942
  H -1.38887341  4.67501822 -1.06791354
  H  0.28885888  1.64983140  0.03952669
  H  0.90864774 -1.21490379  0.10176105
  H  4.03035126 -0.41517553 -0.49722682
  H  4.19211107  0.02653147  1.19317960
  H  3.22789092 -1.40040402  0.73617030
  H -1.59822472 -3.50353548 -1.33777889
  H -2.77687943 -3.09673704 -0.06614695
  H -1.18050853 -3.78313638  0.37736020
