25
opt_min/./Reactant_5314_0_opt.xyz
  C -4.92320600  0.87361500  0.59364700
  O -3.59573226  0.49145568  0.26575686
  C -3.46925021 -0.49520758 -0.68102527
  O -4.40956455 -1.00838506 -1.22674987
  C -2.07150705 -0.77306554 -0.89371434
  N -1.08146301 -0.11359306 -0.20582231
  C  0.11181578 -0.54872222 -0.57961886
  C  1.39896285 -0.11923272 -0.10341893
  C  2.55218525 -0.71119720 -0.63308137
  C  3.79870633 -0.31671860 -0.19298618
  C  3.92070028  0.66775649  0.77610294
  C  2.78213544  1.25794701  1.30466733
  C  1.52837503  0.87415289  0.87470562
  O -0.02384977 -1.48690656 -1.50375171
  C -1.42096049 -1.69621773 -1.76846323
  O -1.77069612 -2.50499727 -2.57533476
  H -5.26254910  0.30943589  1.46498116
  H -5.58618749  0.66915509 -0.24845298
  H -4.90315298  1.93795025  0.82022560
  H -1.27629117  0.59856592  0.48219653
  H  2.44361284 -1.47550538 -1.38604630
  H  4.68223074 -0.77865647 -0.60701187
  H  4.89651753  0.97461240  1.11873054
  H  2.87487469  2.02478706  2.05944155
  H  0.65315117  1.34429678  1.29716824
