24
opt_min/./Reactant_3058_1_opt.xyz
  C -2.35602383  0.61441891  2.65761071
  C -1.85772855 -0.14031696  1.46669939
  C -2.55210941 -1.28910971  1.08797324
  N -3.16072494 -2.23725139  0.85050619
  N -0.76766426  0.21720128  0.78713811
  C -0.03972304  1.39765788  1.25289430
  N -0.48034735 -0.38627504 -0.31481989
  C  0.75918747 -0.37809927 -0.88521234
  C  1.96258369 -0.43562278 -0.16707757
  C  3.16695156 -0.53327531 -0.83342234
  C  3.20619007 -0.56718708 -2.21774804
  C  2.02071879 -0.53596543 -2.93680763
  C  0.80976551 -0.45148767 -2.28518447
  H -1.67110954  0.52593000  3.50462084
  H -3.31539397  0.20135327  2.95980650
  H -2.49169723  1.67488940  2.44400182
  H -0.71542936  2.25307432  1.27110411
  H  0.77725555  1.61347324  0.56827395
  H  0.35333326  1.23115308  2.25507920
  H  1.94117580 -0.46303394  0.91488444
  H  4.08401525 -0.58687314 -0.26425806
  H  4.15333616 -0.63454972 -2.73106059
  H  2.04147158 -0.58138534 -4.01614574
  H -0.12142878 -0.43136041 -2.82867904
