26
opt_min/./Reactant_2061_0_opt.xyz
  C -2.00344260  0.25204078  0.34276199
  C -0.91806385 -0.37830954 -0.54009478
  C -1.55077567 -0.98444819 -1.79641833
  C  0.08867673  0.60204785 -0.85775515
  C  1.16131915  1.14118961 -0.80009287
  C  2.42519627  1.51038689 -0.26865184
 Cl  3.75679891  0.71152043 -1.18065233
 Br  2.74605806  3.47859086 -0.30811716
  C  2.42895919  1.04805729  1.19087778
  C  2.09670024 -0.43124444  1.46390284
  C  0.66157570 -1.00950724  1.49790458
  C -0.10225306 -1.44351442  0.23069048
  H -1.57393331  0.98500621  1.02090989
  H -2.49714182 -0.52006470  0.92906252
  H -2.74757152  0.74883154 -0.27438757
  H -0.81505938 -1.56184098 -2.35231084
  H -1.93193537 -0.19584722 -2.44042806
  H -2.37437097 -1.64251054 -1.52747657
  H  1.74132622  1.68582999  1.75268846
  H  3.43621116  1.22448253  1.58045282
  H  2.43604842 -0.56184961  2.49805578
  H  2.73006549 -1.06927104  0.84416663
  H  0.02897073 -0.38115025  2.12647391
  H  0.80322063 -1.94989460  2.04234304
  H  0.60989345 -1.91042241 -0.45476408
  H -0.80743605 -2.22296955  0.53562261
