28
opt_min/./Reactant_2076_1_opt.xyz
  C -1.48501773  2.29449088  1.69177433
  C -1.31262797  0.89427703  2.20072565
  O -1.87757616  0.44505562  3.15809585
  C -0.34767540  0.03618411  1.35666741
  C  0.45636623 -0.86309867  2.30858055
  F  0.99281452 -0.15484291  3.31440350
  F  1.49123090 -1.46975039  1.70023975
  F -0.27069241 -1.83853903  2.85741852
  C  0.56287820  0.77670217  0.51220905
  C  1.16816373  1.06980167 -0.47992734
  C  1.70931409  0.98052511 -1.81284307
  C  1.42462085 -0.47873179 -2.21776601
  C -0.03904512 -0.93380043 -2.03900950
  C -0.44727042 -1.61909934 -0.71104308
  C -1.19775681 -0.80668007  0.36450119
  H -2.27536639  2.79659886  2.24293809
  H -1.71149783  2.28139439  0.62796877
  H -0.54895023  2.83555354  1.82230013
  H  2.77634464  1.19816354 -1.85231352
  H  1.18171546  1.66732669 -2.47905971
  H  1.69072850 -0.58772280 -3.27106449
  H  2.06920868 -1.14165105 -1.63850401
  H -0.72362752 -0.11459637 -2.26479578
  H -0.19433535 -1.69576176 -2.80785411
  H  0.41456510 -2.13103984 -0.28650505
  H -1.16617355 -2.39420458 -0.99179706
  H -1.88645564 -0.12444567 -0.13933022
  H -1.79541896 -1.49916649  0.96245747
