22
opt_min/./Reactant_4392_0_opt.xyz
  C  1.92876826 -2.27598236  0.58247452
  N  1.21281039 -1.14888024  0.03062105
  C  1.54196448  0.13644266  0.42081455
  O  2.31998917  0.34875147  1.33041486
  C  0.91138500  1.19247806 -0.36791302
  C  1.66536009  2.33851652 -0.61299500
  N  2.24228573  3.30342105 -0.86883848
  N -0.30105233  1.17202747 -1.00361931
  C -1.41976220  0.50483116 -0.84053203
  C -2.54493580  0.77694270 -1.78329475
  C -1.69296762 -0.41390917  0.29844283
  H  1.23653122 -3.09546235  0.77899611
  H  2.38239477 -1.94514912  1.51510771
  H  2.71764985 -2.62544585 -0.08875832
  H  0.83889466 -1.27818773 -0.89736765
  H -0.34642323  1.89135540 -1.72510551
  H -3.41978735  1.12489149 -1.23352727
  H -2.28096269  1.52812048 -2.52513517
  H -2.83621209 -0.13417658 -2.30698217
  H -0.79377981 -0.88397828  0.68399956
  H -2.14323873  0.15323823  1.11655746
  H -2.40259478 -1.18167030 -0.00188125
