41
opt_min/./Reactant_2486_0_opt.xyz
  C  3.72911500 -2.21279100  1.67368900
  C  2.96304550 -0.91893265  1.73912142
  O  2.90299117 -0.29969697  2.80171834
  C  2.29610375 -0.47019626  0.53593620
  C  2.27277908 -1.25450338 -0.68122842
  C  2.01833456 -0.49700456 -1.98283769
  O  2.53455728 -2.44606551 -0.73797209
  N  1.58163729  0.72087332  0.56047542
  C  2.21079610  1.86418082  1.19001905
  C  0.35611805  0.80085562  0.07280732
  C -0.26918447  2.08861793 -0.23926837
  C  0.40268422  3.07189649 -0.97016766
  C -0.22834983  4.25671205 -1.29628769
  C -1.53317786  4.48720546 -0.89197729
  C -2.21119469  3.51845910 -0.16933951
  C -1.59049983  2.32602999  0.14779212
  C -0.46486801 -0.38897898 -0.15942013
  C -1.32120500 -0.43943742 -1.26278799
  C -2.13689347 -1.53631521 -1.46806842
  C -2.12843169 -2.58871196 -0.56895021
  C -1.30625469 -2.53378153  0.54651192
  C -0.47485538 -1.45162836  0.74808277
  H  4.25914855 -2.34924134  2.61382195
  H  3.04334861 -3.04141238  1.51557662
  H  4.43066624 -2.20606998  0.84435345
  H  2.18730347  0.57182431 -1.89182232
  H  1.00695888 -0.67842653 -2.34086857
  H  2.69960301 -0.90600177 -2.72683132
  H  1.50785922  2.68433153  1.30245631
  H  2.56126824  1.53556917  2.17212697
  H  3.07596664  2.18482304  0.60812588
  H  1.41283640  2.89399750 -1.30859255
  H  0.29974835  5.00217489 -1.87178689
  H -2.02092507  5.41675189 -1.14348014
  H -3.22866518  3.69198966  0.14678924
  H -2.11777707  1.57198522  0.71282037
  H -1.33371554  0.38038766 -1.96689065
  H -2.78056544 -1.56785408 -2.33469705
  H -2.76124565 -3.44758394 -0.73299565
  H -1.31026289 -3.34217543  1.26154381
  H  0.15213278 -1.41558490  1.62581353
