32
opt_min/./Reactant_5591_0_opt.xyz
  C -0.02762200  2.15909100 -1.95983400
  C -1.23774603  1.46811069 -1.39250423
  O -2.36957642  1.77653855 -1.72236711
  C -0.99120698  0.41059316 -0.41202687
  N  0.20934971  0.03598608  0.01546761
  N  1.36189843  0.46997214 -0.35278555
  C  2.49001574 -0.02477544  0.25197026
  C  2.53098784 -0.74402612  1.45433033
  C  3.74040943 -1.16930290  1.96731749
  C  4.92603555 -0.89055529  1.30710579
  C  4.89713843 -0.16442055  0.12545380
  C  3.69843024  0.26929246 -0.39597156
  C -2.13307259 -0.28339519  0.20383004
  C -2.14690017 -0.54254684  1.57720351
  C -3.21580141 -1.19956683  2.15532694
  C -4.28710436 -1.60535015  1.37758696
  C -4.28660543 -1.34493137  0.01726197
  C -3.21996911 -0.68979405 -0.56801768
  H  0.56446087  2.59242205 -1.15664356
  H  0.60674428  1.43749754 -2.46996357
  H -0.34997435  2.93391369 -2.65100818
  H  0.16105764 -0.71838221  0.72161129
  H  1.62911712 -0.95495701  2.01590362
  H  3.75581154 -1.71963892  2.89728012
  H  5.86437027 -1.22987781  1.71780874
  H  5.81985814  0.06420229 -0.38798281
  H  3.65790932  0.83442041 -1.31356948
  H -1.33571487 -0.19389036  2.20301097
  H -3.21810698 -1.38621735  3.21996644
  H -5.12243094 -2.11574040  1.83378785
  H -5.12253906 -1.65836729 -0.59021939
  H -3.22209482 -0.48967937 -1.62724866
