32
opt_min/./Reactant_1640_0_opt.xyz
  C  3.95015498  2.08666002  0.84652005
  N  2.69211689  1.65333348  0.29161259
  C  2.32182086  0.34534723  0.33948303
  O  3.07609421 -0.50076067  0.81535322
  C  1.00065951  0.07957794 -0.22028283
  C  0.24117116  1.16866998 -0.63069203
  N -0.31332099  2.10201897 -1.02614104
  N  0.45059563 -1.18160326 -0.31288663
  C  1.35091983 -2.30665154 -0.48383824
  C -0.84958042 -1.39140604 -0.36191200
  C -1.38654006 -2.71860201 -0.79016809
  C -1.81137197 -0.37650636  0.07534666
  C -2.92781552 -0.05752991 -0.69555433
  C -3.85645360  0.85835332 -0.23846550
  C -3.69737459  1.45441946  0.99987514
  C -2.59811298  1.13451487  1.78060529
  C -1.65843353  0.23455737  1.32269910
  H  4.75709397  1.46396429  0.45534027
  H  4.12495569  3.12481949  0.57728749
  H  3.94944225  1.98836928  1.93693034
  H  2.05177517  2.33881880 -0.07378684
  H  1.43953828 -2.56081876 -1.54213597
  H  0.98430136 -3.17103763  0.06710965
  H  2.33080139 -2.02815978 -0.09270195
  H -2.44814207 -2.63360016 -1.00832766
  H -0.87304495 -3.10085143 -1.67200634
  H -1.27634881 -3.45674245  0.01041428
  H -3.04758473 -0.50021300 -1.67366245
  H -4.70682816  1.10992036 -0.85483965
  H -4.42403961  2.17024895  1.35485413
  H -2.47131832  1.59156493  2.75139467
  H -0.80510999 -0.01460902  1.93755096
