19
opt_min/./Reactant_3569_1_opt.xyz
  C  3.15890542  1.70912669 -0.77032121
  N  1.90790850  1.02287933 -0.56481179
  C  1.21362206  0.47943540 -1.59558222
  O  1.59420247  0.49346591 -2.74754763
  C -0.07008241 -0.15397220 -1.19540042
  C -0.84173823 -0.77915429 -2.18319425
  N -1.44600343 -1.29413897 -3.01526139
  O -0.40853148 -0.09801692  0.07388056
  C -1.48024625 -0.53657304  0.66962914
  C -1.55601249 -0.30741081  2.15060547
  C -2.54438018 -1.20292604  0.05989653
  N -3.47541435 -1.74397043 -0.34807116
  H  3.05293861  2.78172258 -0.59433906
  H  3.45233410  1.54595675 -1.80533191
  H  3.92433021  1.30989561 -0.10525248
  H  1.53133630  1.00536952  0.36890968
  H -2.52692160 -0.62299560  2.52070336
  H -1.41736318  0.74958204  2.37934970
  H -0.78538243 -0.87554058  2.67202092
