28
opt_min/./Reactant_5421_0_opt.xyz
  C  2.54786347 -3.19355397  0.20656144
  N  1.47500476 -2.22263553  0.22361412
  C  1.66568657 -0.99619228 -0.32475538
  O  2.74288761 -0.71619958 -0.84018614
  C  0.52699055 -0.06087992 -0.30233625
  N -0.54678495 -0.36481991  0.41172288
  C -1.79928036  0.08812530  0.49537042
  C -2.42850430  1.08610574 -0.26622720
  N -3.14802124  1.78763017 -0.82656262
  C -2.57759568 -0.65415119  1.49412191
  C -4.02308726 -0.31195357  1.65045437
  O -1.99472083 -1.50931646  2.15732099
  C  0.57377017  1.27671458 -0.95299131
  O -0.33981719  2.07234173 -0.77745534
  N  1.67418946  1.55191297 -1.66790196
  C  1.84663196  2.81340260 -2.34219787
  H  2.28058387 -4.03515605  0.83914308
  H  3.46231156 -2.72767862  0.57531096
  H  2.73619486 -3.54315547 -0.81150110
  H  0.57977212 -2.54083069  0.55399187
  H -0.47313346 -1.12324965  1.12110899
  H -4.52673024 -0.37160323  0.68659910
  H -4.12170552  0.71245802  2.00632318
  H -4.48588543 -0.99373672  2.36008298
  H  2.44128669  0.88448384 -1.66765313
  H  0.97332469  3.43157958 -2.13787227
  H  2.74400160  3.31934073 -1.98196395
  H  1.93528138  2.65425565 -3.41890519
