15
opt_min/./Reactant_2618_1_opt.xyz
  C -2.02057220 -1.93635085 -1.66317594
  O -1.16319521 -1.14667871 -0.84997710
  C -0.95733615  0.11245191 -1.25166194
  O -1.42957184  0.60983873 -2.24443835
  C -0.06040280  0.83613786 -0.34874652
  O  0.40772986  0.24153431  0.68919510
  C  1.21526686  0.74221398  1.58991503
  C  1.71119272  2.05941615  1.55427581
  N  2.09236970  3.14258445  1.54274360
  C  1.61744008 -0.08699468  2.65400881
  N  1.98220718 -0.75429807  3.51293456
  H -1.79941669 -2.97361544 -1.42476670
  H -1.83631213 -1.72953650 -2.71877337
  H -3.06368247 -1.70978554 -1.43352148
  H  0.18606221  1.86625922 -0.58340605
