10
opt_min/./Reactant_5624_1_opt.xyz
  O  0.57070800 -1.07194100 -1.68502200
  C  1.45738458 -0.23841802 -1.08665422
  O  2.54641016 -0.16250756 -1.57180834
  C  0.99564985  0.49635032  0.10568095
  C -0.24536799  0.33774924  0.56591495
  C -1.18651175 -0.57725805 -0.10709294
  O -0.73540858 -1.23968622 -1.19962151
  O -2.31443202 -0.78498575  0.22937553
  H  1.72339237  1.15175552  0.55918926
  H -0.63137733  0.85128998  1.43299432
