33
opt_min/./Reactant_1807_0_opt.xyz
  C -2.58038100  2.31129800  0.17040500
  N -1.77953566  1.11205663  0.19259492
  C -1.79007496  0.21927917 -0.83803840
  O -2.43013850  0.42986367 -1.85397389
  C -0.98675721 -0.99735689 -0.56585147
  C -1.44877728 -2.29036493 -1.02534440
  C -2.82894606 -2.34090659 -1.63066988
  O -0.76040879 -3.30626471 -0.96834746
  N  0.19624788 -0.85203690  0.10319589
  C  0.59715980 -1.93509795  0.98142501
  C  0.99643780  0.19593854 -0.08050607
  C  0.88477755  1.00890645 -1.33504982
  C  1.88780651  0.67009523  0.99360066
  O  1.74737352  0.34737969  2.16850380
  N  2.83713020  1.57026202  0.63002273
  C  3.72632278  2.16504718  1.59623003
  H -3.38745912  2.26190170  0.90505168
  H -1.96199745  3.18624961  0.38057754
  H -3.00930436  2.39778208 -0.82667617
  H -1.34039688  0.86480803  1.06486442
  H -2.87556856 -1.71793361 -2.51971819
  H -3.56598752 -1.96412978 -0.92478551
  H -3.05622602 -3.37175052 -1.88968120
  H  1.52846378 -1.70340170  1.48388275
  H  0.70120841 -2.83779535  0.37518589
  H -0.18191642 -2.11493734  1.72141729
  H  0.49567621  2.01085781 -1.15505961
  H  0.23361796  0.52073208 -2.05471961
  H  1.86999144  1.09619057 -1.79802393
  H  2.95888926  1.83291441 -0.33218019
  H  4.76608978  1.99331483  1.31363366
  H  3.52834872  1.69903857  2.55988522
  H  3.54983971  3.24042537  1.67583479
