36
opt_min/./Reactant_3078_0_opt.xyz
  C  3.78648425  1.56177401  2.07663910
  O  2.67255044  0.95413591  1.42783218
  C  2.54355845 -0.36741346  1.52406093
  O  3.29083948 -1.10035567  2.10123569
  C  1.28555476 -0.82781295  0.75349901
  O  0.98502460 -2.10075373  1.26736345
  C -0.27253509 -2.64398840  0.94527108
  C  0.21756880  0.14581910  0.84164427
  C -0.70820704  0.80555309  0.46190760
  C -1.83333474  1.13264788 -0.39286994
  C -3.06140433  1.49692595  0.46484741
  F -2.81678903  2.51236654  1.29283856
  F -3.42702019  0.45383032  1.22626604
  F -4.13750887  1.82040895 -0.25847006
  C -1.45609445  2.34367674 -1.26965078
  F -0.56256650  2.03167257 -2.21336787
  F -2.50331956  2.87449919 -1.91071139
  F -0.91238445  3.32212965 -0.54095593
  C -2.07536003 -0.19849232 -1.13853726
  C -0.98076309 -0.76689193 -2.07543400
  C  0.58996909 -0.85327526 -1.94268154
  C  1.63168514 -0.80490766 -0.76268066
  H  4.42607123  0.79431789  2.51534378
  H  4.33600766  2.13651503  1.33187487
  H  3.40890317  2.22675829  2.85308060
  H -0.28614278 -3.62951068  1.40662353
  H -1.08986672 -2.04104063  1.35435242
  H -0.40319873 -2.74888978 -0.13564607
  H -2.97547186 -0.11085257 -1.75639542
  H -2.30333895 -0.93545845 -0.36574164
  H -1.10398769 -0.23234946 -3.01863570
  H -1.33136455 -1.78504182 -2.26089555
  H  0.95046763 -0.07638540 -2.61607941
  H  0.79747942 -1.79973092 -2.43972442
  H  2.21936746  0.10094586 -0.91781915
  H  2.31067672 -1.64584869 -0.92288761
