12
opt_min/./Reactant_450_0_opt.xyz
  C  0.94934700 -1.09049800 -0.01232400
  C  0.07721724  0.12754652 -0.03442806
  C -1.40963313 -0.02608074  0.13421649
  C  0.60533745  1.33292758 -0.16506493
  F -0.08455725  2.47663539 -0.18521936
  F  1.90391399  1.60522556 -0.31303456
  H  1.13100453 -1.40460441  1.01513753
  H  0.45892113 -1.90889938 -0.52846406
  H  1.90791541 -0.88993002 -0.47919757
  H -1.69100901 -1.06923013  0.05892817
  H -1.94257694  0.53696647 -0.62555878
  H -1.72440719  0.35417740  1.10292271
