19
opt_min/./Reactant_556_0_opt.xyz
  C  2.98419082  0.16824385 -1.30879345
  N  1.64867292  0.56024305 -0.92309676
  C  0.83879518 -0.30723678 -0.26999678
  O  1.20636002 -1.44158066  0.03386418
  C -0.50694953  0.14158098  0.07827381
  C -1.05291999  1.50800441 -0.16418842
  N -1.21942592 -0.82158060  0.64641153
  C -2.47023902 -0.86869987  1.08488723
  C -2.97132459 -2.01173691  1.68538043
  N -3.39120031 -2.96310690  2.18360839
  H  3.49841954  1.01661282 -1.75121539
  H  2.94885536 -0.65454434 -2.02741075
  H  3.53294065 -0.17950501 -0.43177321
  H  1.30488015  1.45815096 -1.21254973
  H -1.86235871  1.72015700  0.53212720
  H -0.28312439  2.26329127 -0.01093864
  H -1.44316625  1.61508234 -1.17860756
  H -0.65736007 -1.68242972  0.74245426
  H -3.11572063 -0.01046149  0.98587962
