21
opt_min/./Reactant_2434_0_opt.xyz
  C -0.79899128 -2.55408888  0.29519409
  C -0.03619062 -2.20007728 -0.94853122
  O  0.17961605 -2.98175372 -1.85061425
  C  0.42105729 -0.79598220 -1.04973295
  C  1.13953828 -0.34527304 -2.26759596
  O  0.16744918 -0.05802004 -0.03028442
  C  0.38984368  1.22733595  0.19128045
  C  1.02721283  2.11521833 -0.67956087
  N  1.55028897  2.88934034 -1.35302043
  C -0.09080130  1.69177872  1.50569567
  C  0.11221099  3.15664681  1.78474187
  O -0.60775233  0.91786199  2.28307423
  H -1.75491946 -2.03170239  0.29632700
  H -0.25504737 -2.24266041  1.18398107
  H -0.97771752 -3.62485261  0.31945245
  H  0.57112149  0.40585251 -2.81787666
  H  2.09905871  0.10138134 -1.99937773
  H  1.30331847 -1.20643695 -2.91133474
  H  1.14974200  3.43663050  1.61646606
  H -0.50760725  3.74331070  1.10827655
  H -0.17145956  3.37311542  2.81088862
