28
opt_min/./Reactant_4641_1_opt.xyz
  C -3.96307885  0.94894466  0.46076019
  N -2.55677458  0.62051200  0.46734598
  C -2.09159001 -0.58296613  0.03759383
  O -2.80550847 -1.45156184 -0.41541932
  C -0.61437495 -0.74782142  0.20449062
  C -0.19313990 -1.99099211  0.90309683
  N  0.24404084  0.13040083 -0.27584523
  C -0.18304355  1.10116608 -1.26702052
  C  1.56628516  0.15262939  0.09250051
  C  1.94447798 -0.31359925  1.35491810
  N  2.27351077 -0.62088103  2.41471727
  C  2.62795440  0.66339511 -0.74439834
  O  2.52465927  1.07090361 -1.88821834
  O  3.81414500  0.57896173 -0.10278161
  C  4.96112962  0.98789370 -0.82696510
  H -4.29119518  1.25067278  1.45429539
  H -4.16649790  1.75556119 -0.24645932
  H -4.50677895  0.05947530  0.15005413
  H -1.93133215  1.26437584  0.92159590
  H -1.00173353 -2.71307665  0.82757024
  H  0.02401200 -1.82053513  1.95820638
  H  0.71043499 -2.39710832  0.44912223
  H -1.19994601  0.90188163 -1.58696747
  H -0.10545139  2.10915111 -0.85798120
  H  0.48728656  1.04520715 -2.12478505
  H  4.69598338  1.76261775 -1.54950380
  H  5.39092385  0.13539098 -1.35624380
  H  5.67133951  1.36762587 -0.09804564
