29
opt_min/./Reactant_2382_0_opt.xyz
  C -1.93775300  1.67403501 -1.54014500
  C -0.98862384  0.70883250 -0.87134667
  O  0.20358420  0.96662240 -0.84002972
  C -1.51700411 -0.48258606 -0.22687595
  N -0.74222046 -1.26521672  0.57342258
  C  0.49195155 -1.32648222  1.00961246
  C  0.79542847 -2.38059896  1.89604424
  N  1.07628876 -3.22886118  2.61835376
  C  1.65619136 -0.45690689  0.72960407
  C  1.95373234  0.60113759  1.57935352
  C  3.08865890  1.35921046  1.35758633
  C  3.93829170  1.05300924  0.30887783
  C  3.65467325 -0.01820251 -0.52134440
  C  2.52330297 -0.78205205 -0.30780369
  C -2.86342183 -1.05616350 -0.24539787
  C -3.96592445 -0.51246546 -1.10658177
  O -3.08102969 -2.04366609  0.45856378
  H -2.32767884  1.24390569 -2.45893351
  H -1.36686079  2.56744256 -1.79144535
  H -2.76410893  1.94286198 -0.89074608
  H -1.37649431 -2.02017937  0.93737607
  H  1.28677586  0.83734346  2.39573637
  H  3.30861353  2.19221742  2.00906784
  H  4.82217266  1.64963384  0.13952454
  H  4.31731448 -0.26135860 -1.33862377
  H  2.29742844 -1.61699899 -0.95502024
  H -4.79373234 -1.22018026 -1.06573933
  H -4.30892946  0.44511928 -0.71814104
  H -3.65139684 -0.37855619 -2.13624235
