14
opt_min/./Reactant_466_1_opt.xyz
  N  2.38480500 -2.74971500 -0.20359600
  C  1.75529226 -1.79939229 -0.06071581
  C  0.98875462 -0.65098032  0.10194686
  C  0.54476082 -0.04125096  1.21612618
 Cl  0.73593300 -0.45114204  2.83402334
  C -0.29179438  1.15035975  0.71249208
  C -1.54260243  0.49886618  0.10717819
  C -1.10986860 -0.09611699 -0.99304861
  C  0.39167333  0.20765740 -1.04014247
  O  0.43352439  1.49188473 -0.45084476
  H -0.42274226  1.99042345  1.38681179
  H -2.52143838  0.52639267  0.53612765
  H -1.63287573 -0.68989953 -1.71265655
  H  0.89910701  0.17418380 -1.99911882
