26
opt_min/./Reactant_1975_1_opt.xyz
  C  3.18509500  1.96565500 -1.06051500
  N  2.09418324  1.10333847 -0.67682617
  C  2.31113865 -0.15333214 -0.24684614
  O  3.43237406 -0.56750198  0.00335970
  C  1.11344718 -1.04999111 -0.04743641
  C  1.50923557 -2.40031683  0.48090768
  C -0.18709982 -0.80046702 -0.27903034
  C -1.20610635 -1.88900985 -0.03932220
  C -0.80775315  0.46600536 -0.78290160
  O -0.45856772  1.05724904 -1.79452069
  N -1.84025258  0.89286108 -0.02442983
  C -2.60149957  2.07675289 -0.33761642
  H  4.11520761  1.48597260 -0.75895730
  H  3.09312319  2.93168738 -0.56114211
  H  3.18885714  2.12151366 -2.14157350
  H  1.17163522  1.35510804 -0.99403714
  H  2.57392647 -2.39364928  0.70024566
  H  1.31437470 -3.17232056 -0.26348678
  H  0.95743173 -2.64897717  1.38527487
  H -2.18477599 -1.60803666 -0.42250231
  H -1.29266250 -2.11450012  1.02522057
  H -0.89954390 -2.80554787 -0.54076633
  H -2.06489134  0.40586140  0.82854380
  H -2.22818971  2.46403985 -1.28522235
  H -2.47828984  2.83547510  0.43783153
  H -3.66133856  1.83655803 -0.43829615
