19
opt_min/./Reactant_4772_1_opt.xyz
  N  4.19148182  0.79387254  0.78290759
  C  3.34326815  0.01589438  0.71274720
  C  2.35884292 -0.96211497  0.68362191
  O  1.09310358 -0.81232632  0.41036104
  C  0.43898328  0.27323081  0.08335107
  C  1.05230254  1.53232607 -0.05270772
  N  1.52646611  2.56459573 -0.23190320
  C -0.98942108  0.14907552 -0.15679797
  C -1.61145061 -1.10242337 -0.13385314
  C -2.96844734 -1.20711313 -0.36174055
  C -3.72590167 -0.07426098 -0.61766204
  C -3.11618699  1.17068848 -0.64519760
  C -1.75989050  1.28773297 -0.41772228
  H  2.63120028 -1.98452246  0.90953248
  H -1.02626162 -1.98893009  0.06131999
  H -3.44066558 -2.17806546 -0.34171155
  H -4.78717735 -0.16396084 -0.79606520
  H -3.70461957  2.05353097 -0.84425395
  H -1.28485832  2.25649884 -0.43780736
