24
opt_min/./Reactant_4507_1_opt.xyz
  C  3.17073952  0.79385115 -1.45558951
  N  2.10565070  0.25107735 -0.64716100
  C  0.82154246  0.59718095 -0.87689215
  O  0.52839893  1.37642151 -1.76177486
  C -0.23418446 -0.01629389  0.01657299
  C -1.65591710  0.34657595 -0.24256820
  O -2.60270718 -0.15449696  0.33224740
  O -1.80763850  1.27429988 -1.17126345
  C -3.13691188  1.65339321 -1.48947082
  N  0.03528488 -0.85764367  1.01173177
  C -1.00046031 -1.39694991  1.88492914
  N  1.25311196 -1.23086246  1.25110493
  C  1.64044693 -2.02503109  2.19640158
  N  2.14211750 -2.69313458  2.99289491
  H  2.78682695  1.65531295 -1.99998124
  H  3.52676846  0.05237702 -2.17475965
  H  3.99747631  1.09762005 -0.81445012
  H  2.35971944 -0.40744545  0.07772863
  H -3.09896616  2.06865342 -2.49353959
  H -3.48516653  2.41066058 -0.78350304
  H -3.80273098  0.78904675 -1.44487947
  H -1.69843531 -2.00975479  1.31585806
  H -0.51800981 -2.00057129  2.65547861
  H -1.57095666 -0.59239418  2.34655706
