20
opt_min/./Reactant_238_1_opt.xyz
  C  4.45319968  0.71868381 -1.71231194
  C  36.16167157 -72.73388575  15.67830601
  O  12.66623150 -67.33477780  21.38293207
  N -20.27866958  24.08516525  1.26586466
  N -23.63383961 -7.26749387  11.66164312
  C -39.49940238  25.85853136  22.74042762
  C  8.61265585  65.52841825 -32.39840831
  C -8.24203337  7.79090572 -4.19227157
  C -21.34616392  1.01782803 -5.25536657
  C -1.13203110 -6.83528932  11.81520164
  C  2.50604037 -35.69304760 -37.80873329
  C  12.12537655 -13.27228484  20.31021281
  H  23.50680168 -91.19487667 -0.62198728
  H  20.53754686 -72.12437725 -2.87226829
  H -7.56878936 -6.42211818  13.44211255
  H  2.57665644  7.38170772  27.80542801
  H -3.79180947 -15.17464873 -23.15266032
  H -13.72575519 -6.10615168 -17.79503656
  H -2.34452837  4.62787128 -6.20564562
  H  19.12168514 -39.17774320  40.95879188
