32
opt_min/./Reactant_3111_1_opt.xyz
  C  2.11076982 -2.86238895 -2.20305819
  N  1.40576430 -1.86188662 -1.43541523
  C  1.85359134 -1.44124153 -0.23742518
  O  2.83539721 -1.88152165  0.31371381
  C  0.93912135 -0.36833763  0.40008541
  C  1.76021320  0.42135887  1.43631883
  C  2.83907671  1.27796999  0.83832283
  O  1.53130327  0.35446380  2.61138277
  C  0.35101415  0.53281805 -0.55210422
  C -0.47514098  1.15476181 -1.16498831
  C -1.76032913  1.71095912 -1.45907140
 Cl -1.68539959  3.42800555 -1.97648091
 Cl -2.53125487  0.77265026 -2.78656295
  C -2.57729190  1.57016395 -0.16652412
  C -2.55028943  0.16015204  0.45710743
  C -1.43928767 -0.15637929  1.48746245
  C -0.27855464 -1.07431027  1.05755301
  H  2.89745660 -2.41146653 -2.81380117
  H  2.57344923 -3.56475574 -1.51050665
  H  1.41000979 -3.38658603 -2.84859662
  H  0.61761813 -1.39646231 -1.85960191
  H  3.00275115  1.05931062 -0.21226403
  H  2.55071351  2.32347984  0.94744135
  H  3.76077104  1.12881283  1.39670835
  H -3.60851307  1.84564654 -0.39427218
  H -2.18048300  2.28929974  0.55226657
  H -3.49907512  0.07176723  0.99111379
  H -2.56093097 -0.59615241 -0.32844564
  H -1.92748438 -0.69875819  2.30106718
  H -1.04854144  0.76328723  1.92178758
  H  0.10887015 -1.56892678  1.95063083
  H -0.66032703 -1.83879759  0.37833336
