31
opt_min/./Reactant_1788_0_opt.xyz
  C  5.01051900  0.05280500  1.18567200
  N  3.96947588 -0.71304180  0.55779247
  C  2.64971952 -0.31765818  0.59615541
  O  2.32348229  0.70661098  1.20229096
  C  1.75533234 -1.21259607 -0.05653820
  N  0.41788038 -1.02053220 -0.19182589
  C -0.37876823 -2.23885618 -0.17212699
  C -0.15666744  0.14724331 -0.46614832
  C  0.67690194  1.27810426 -0.93754651
  C -1.58319306  0.34765763 -0.25995929
  C -2.36193267  1.02984789 -1.19976881
  C -3.71013982  1.23816239 -0.98529110
  C -4.31564489  0.78120715  0.17383950
  C -3.55530995  0.11538634  1.12268479
  C -2.20922692 -0.10147824  0.91075106
  H  5.65318048 -0.59061803  1.78973244
  H  5.62614797  0.58203900  0.44993221
  H  4.52166815  0.78731431  1.82471697
  H  4.23374899 -1.51679424  0.01348066
  H  2.10628531 -2.20931067 -0.27621170
  H  0.09847582 -2.98206602 -0.81338373
  H -1.38582929 -2.04797091 -0.53654488
  H -0.43062027 -2.64790354  0.83773237
  H  1.24000585  1.71079189 -0.09899375
  H  1.42765697  0.90693159 -1.64187269
  H  0.06918049  2.05398596 -1.38845036
  H -1.90929675  1.37587517 -2.11745377
  H -4.29484134  1.75938961 -1.72939085
  H -5.36955135  0.94720397  0.33892511
  H -4.01521843 -0.23028780  2.03712084
  H -1.61835643 -0.59021156  1.67088046
