22
opt_min/./Reactant_1466_0_opt.xyz
  C -3.29121613 -1.44722003 -0.49456020
  C -2.62986584 -0.12342950 -0.24827164
  C -3.39083201  1.15414348 -0.46022573
  N -1.37908741 -0.07875660  0.01260841
  C -0.21548017 -0.03787917  0.25115048
  C  1.13735324  0.02480389  0.53921881
  C  1.65818935 -0.50665864  1.73649288
  C  3.01015712 -0.43555819  1.99341488
  C  3.87545916  0.14284585  1.07468790
  C  3.37623999  0.66575625 -0.11051303
  C  2.02758987  0.61917315 -0.37989467
  H -4.22398228 -1.53316206  0.06329640
  H -3.52573029 -1.56230258 -1.55509260
  H -2.63350433 -2.26147255 -0.20151985
  H -4.45532879  0.95343929 -0.37114975
  H -3.20885030  1.60740728 -1.43642284
  H -3.11494281  1.88384010  0.30151020
  H  0.98672115 -0.95318154  2.45374140
  H  3.39638960 -0.81420258  2.92909069
  H  4.93455778  0.18392560  1.28305707
  H  4.05519848  1.08878083 -0.83821720
  H  1.63351794  1.01669881 -1.30331490
