16
opt_min/./Reactant_794_0_opt.xyz
  C -2.47286642 -0.27031244  0.21780294
  C -1.11669808  0.35097235  0.03962792
  O -0.92893395  1.36380793 -0.60369224
  C -0.01255130 -0.31087227  0.73983362
  C -0.25080056 -1.23166100  1.76442367
  N -0.42330830 -2.00064218  2.60214779
  N  1.26665856  0.06113471  0.55006217
  C  1.82441052  0.74570233 -0.44934493
  C  1.22038394  1.04375534 -1.68223597
  N  0.89160206  1.20690536 -2.77096052
  C  3.17665375  1.11400696 -0.33232944
  N  4.26726078  1.44916773 -0.21567486
  H -3.23997606  0.48075364  0.05055098
  H -2.58787431 -0.72669844  1.19616165
  H -2.58945017 -1.04307156 -0.54068059
  H  1.91856503 -0.22565514  1.28021903
