21
opt_min/./Reactant_3461_1_opt.xyz
  C  4.81564423  0.82505189 -1.40073305
  N  3.47132160  0.32074968 -1.27022795
  C  2.56015362  0.93143044 -0.46740215
  O  2.77834628  1.90804538  0.22037783
  C  1.27105332  0.33042055 -0.49114025
  N  0.18378314 -0.10430276 -0.41974203
  C -1.02459682 -0.54719218 -0.31147270
  C -1.41252583 -1.65125185 -1.07238637
  N -1.78230086 -2.55409385 -1.68430577
  C -1.97173418  0.13101038  0.61886310
  O -1.63136510  1.05132770  1.33108449
  N -3.21646747 -0.40055541  0.60072463
  C -4.27957389  0.17984011  1.38726784
  H  5.02440935  1.12508790 -2.43036813
  H  4.90453766  1.69609783 -0.75363667
  H  5.54121913  0.06834389 -1.09703182
  H  3.20932784 -0.47004179 -1.83682888
  H -3.44766213 -1.11999294 -0.06770632
  H -4.96821518 -0.60145129  1.70012697
  H -4.82514026  0.93854357  0.81824385
  H -3.83094011  0.65618258  2.25719270
