18
opt_min/./Reactant_2202_0_opt.xyz
  C  0.88948052  0.11437305 -4.47098443
  O  0.61611980  0.25514195 -3.08201196
  C  0.35916636 -0.86610339 -2.40718920
  O  0.35628679 -1.99183550 -2.84547336
  C  0.09309443 -0.60697301 -1.03607361
  N -0.18132917 -0.57081221  0.10369045
  C -0.37996614 -0.39654749  1.36750822
  C -0.67792023 -1.50790478  2.16680158
  N -0.95348114 -2.39326537  2.84403769
  C -0.38931452  0.99353010  1.87772534
  C -0.20488712  1.13361810  3.36174115
  O -0.51261286  1.93053092  1.12271337
  H  1.20756974 -0.90678954 -4.69031057
  H  1.67518252  0.82427102 -4.71817903
  H -0.01369439  0.34418809 -5.03894119
  H -0.24663320  0.17750684  3.87500361
  H  0.76177133  1.60257787  3.53955553
  H -0.96812104  1.80058280  3.75821332
