40
opt_min/./Reactant_3207_1_opt.xyz
  C -2.89547900 -1.59341000  2.67960100
  N -2.34404662 -0.57608973  1.81908267
  C -2.48051368 -0.62577154  0.46514000
  O -3.04410886 -1.53899203 -0.09955504
  C -1.89222436  0.54426855 -0.23471432
  O -0.64127043  0.96898207 -0.12922925
  C  0.40358381  0.43547555  0.41913607
  C  0.40098828 -0.91432546  1.01596902
  C  0.75140997 -1.10590894  2.35206062
  C  0.74535722 -2.37706733  2.89363459
  C  0.39699530 -3.46492835  2.10917995
  C  0.06025447 -3.28283094  0.77844884
  C  0.05857537 -2.01359884  0.22943023
  C  1.61280126  1.23620204  0.38300014
  C  2.85617037  0.69092509  0.73265284
  C  3.99415318  1.47020384  0.68850610
  C  3.92345918  2.79713800  0.29209469
  C  2.70225779  3.34174087 -0.07273311
  C  1.55577935  2.57486988 -0.02941912
  C -2.69924176  1.38915348 -1.10339751
  O -2.25635742  2.33498758 -1.72328364
  O -3.99513832  1.02259900 -1.09844693
  C -4.87251966  1.73448224 -1.95811979
  H -3.34217657 -2.35119867  2.03843048
  H -3.66080869 -1.17635293  3.33694790
  H -2.10832771 -2.04852447  3.28490819
  H -1.96586689  0.24554407  2.26309092
  H  1.00937461 -0.24704461  2.95438628
  H  1.00726976 -2.52447977  3.93125580
  H  0.38900050 -4.45829560  2.53277846
  H -0.20561109 -4.12713137  0.16150623
  H -0.19640948 -1.87427831 -0.81009504
  H  2.92072828 -0.34690672  1.01914823
  H  4.94768881  1.04110846  0.95917559
  H  4.81819755  3.40098756  0.26178327
  H  2.63968213  4.37116309 -0.39256413
  H  0.60645120  2.99882862 -0.31869836
  H -5.66447156  2.17411565 -1.35039787
  H -4.32161445  2.51785097 -2.48287775
  H -5.30079706  1.02924107 -2.67092826
