22
opt_min/./Reactant_227_1_opt.xyz
  C  4.24385295  0.20405385  0.36532902
  N  2.90529257  0.41533368 -0.13606951
  C  1.85304200 -0.21715649  0.39505131
  O  1.91326184 -1.03952961  1.30085528
  C  0.51289127  0.08623191 -0.19071325
  C  0.39399763  1.08506722 -1.15653931
  N  0.48540322  2.00321092 -1.84536240
  N -0.43999709 -0.60064440  0.41736033
  C -1.76194332 -0.68700281  0.25015929
  C -2.48646692 -1.40662738  1.20973400
  N -3.08684106 -1.99174055  1.99614067
  C -2.41485530 -0.19682303 -0.96621896
  C -3.91444658 -0.29029536 -0.99634521
  O -1.75064331  0.19779620 -1.90548223
  H  4.43022080 -0.86576441  0.46606395
  H  4.96087789  0.63874518 -0.32392451
  H  4.35971035  0.66181735  1.35040346
  H  2.75549103  1.09355136 -0.86694753
  H -0.00021851 -1.16281855  1.17541404
  H -4.34422305 -0.15938714 -0.00762704
  H -4.30698661  0.45342936 -1.68461258
  H -4.19636783 -1.27529898 -1.36819451
