8
opt_min/./Reactant_247_0_opt.xyz
  C -1.34939500 -0.26321900  0.22196800
  C  0.06388253 -0.41981973  0.00263859
  C  1.25080811 -0.55390323 -0.18105696
  C  2.58756104 -0.69800157 -0.38941611
  N  3.71723639 -0.81996095 -0.56428270
  H -1.90693196 -0.81400070 -0.53590360
  H -1.61579572 -0.64493141  1.20795152
  H -1.61816332  0.79196424  0.16479290
