29
opt_min/./Reactant_585_1_opt.xyz
  C  3.55765200  0.95949200 -1.44160700
  O  2.49599545  0.30462495 -0.75433133
  C  1.80062277  1.06314811  0.09187536
  O  2.08019212  2.18245083  0.41484362
  C  0.64557185  0.28700054  0.66838775
  C  0.77547705 -0.17417070  2.09760773
  C  2.02144718 -0.97003344  2.34034597
  O -0.05165392  0.09465008  2.92368539
  C -0.46389704  0.06653609 -0.04443227
  C -1.60313025 -0.73545342  0.51580946
  O -1.49814439 -1.86776164  0.90375569
  O -2.72515145 -0.02923410  0.51436773
  C -3.87029071 -0.67812252  1.05358101
  C -0.58965625  0.57971369 -1.43840808
  O  0.16310596  1.37733729 -1.93509444
  O -1.63242729  0.03821541 -2.06111826
  C -1.86181749  0.47149865 -3.39553487
  H  4.12321196  0.17802476 -1.94276909
  H  4.18852005  1.50346845 -0.73593495
  H  3.14106007  1.66029405 -2.16616484
  H  2.08585484 -1.76763759  1.60248075
  H  2.88841464 -0.32373554  2.20708473
  H  2.02124851 -1.37926972  3.34584059
  H -3.67811397 -0.97869903  2.08516104
  H -4.11156131 -1.56661363  0.46628146
  H -4.67923411  0.04529774  1.00567811
  H -1.85010649  1.56182808 -3.44518464
  H -2.83472719  0.08051355 -3.68027548
  H -1.08546540  0.07899439 -4.05575236
