25
opt_min/./Reactant_5688_1_opt.xyz
  C  2.87779609  0.93308930 -0.53209389
  C  1.45792355  1.07352226 -1.02762722
  O  1.19456036  1.77566320 -1.98215534
  C  0.43334790  0.33215521 -0.29443092
  C  0.49165484 -0.30956279  0.89859655
  C  1.55698710 -0.51728669  1.90930824
  O -0.73297212 -0.82392714  1.23701686
  N -0.90277086  0.29686236 -0.75647333
  C -1.20791848  0.23758767 -2.16779413
  C -1.63330296 -0.56597890  0.16430079
  C -2.91096791  0.10448405  0.68188493
  C -1.97665976 -1.85555766 -0.45741753
  N -2.17185429 -2.86235193 -0.96076564
  H  2.97999117  1.42051776  0.43448710
  H  3.15253601 -0.11257366 -0.42984125
  H  3.54414449  1.41795469 -1.24063757
  H  2.36118379 -1.13541597  1.51401146
  H  1.11708088 -1.02289424  2.76537136
  H  1.97919867  0.43125382  2.23407321
  H -2.25291996 -0.04143388 -2.29271846
  H -0.58594120 -0.48822237 -2.70318939
  H -1.04324370  1.22298502 -2.60015683
  H -3.61424936  0.24164118 -0.13496001
  H -2.64844502  1.07377215  1.09954416
  H -3.36574722 -0.51163784  1.45215525
