33
opt_min/./Reactant_5608_0_opt.xyz
  C  4.85016800  0.58063000 -0.26617200
  O  3.58111805  0.13521047 -0.72146599
  C  2.52496266  0.77301699 -0.18564698
  O  2.67405477  1.68239417  0.60558547
  C  1.22450853  0.22708384 -0.56086638
  C  0.98446526 -0.94110467 -1.41371623
  C  2.11931967 -1.48368024 -2.23334635
  O -0.13740858 -1.40496915 -1.53851944
  N  0.09817346  0.92300910 -0.25674926
  C  0.12125315  2.36892308 -0.24123155
  C -1.02932218  0.23836511  0.00496318
  C -0.87516654 -0.99799835  0.82109923
  C -2.09450270 -1.82160968  1.10968131
  O  0.20383193 -1.29187826  1.28818911
  C -2.29600706  0.79645871 -0.48018792
  O -2.35229434  1.58848928 -1.39695110
  O -3.39339886  0.32107611  0.12880003
  C -4.64577518  0.75228314 -0.38624044
  H  4.92895968  0.46062863  0.81594593
  H  4.99543198  1.63445973 -0.51285302
  H  5.58474666 -0.03789203 -0.77512428
  H  2.57994005 -0.70669875 -2.83680723
  H  1.72553099 -2.26801590 -2.87541915
  H  2.87569742 -1.89351486 -1.57046678
  H -0.88024101  2.76251752 -0.10894865
  H  0.76391585  2.69428744  0.57877423
  H  0.54007491  2.74688000 -1.17335792
  H -2.54785049 -2.12719218  0.17031291
  H -2.82561358 -1.25098509  1.67416665
  H -1.78903158 -2.69615788  1.67810314
  H -4.98785803  1.62944344  0.16683034
  H -4.55037454  1.00691998 -1.44301773
  H -5.34276151 -0.07156977 -0.24798676
