29
opt_min/./Reactant_470_1_opt.xyz
  C -3.19174200  2.84589500  0.24718900
  N -2.13896340  1.96885161 -0.20457234
  C -1.30774523  1.36494772  0.66206633
  O -1.30876324  1.59037605  1.86306944
  C -0.36962739  0.39203196  0.00354691
  C -0.96124297 -0.49625102 -0.99571488
  C -0.59039583 -1.96376949 -0.92489689
  O -1.82650243 -0.12985096 -1.77960039
  N  0.90928755  0.27611149  0.38554324
  C  1.37640384  0.89402716  1.61215345
  C  1.81312780 -0.32543340 -0.38392016
  C  3.18864009 -0.58918839 -0.04929352
  O  3.79383571 -0.31476879  0.96793481
  O  3.77745456 -1.23692390 -1.08816674
  C  5.14415478 -1.56459827 -0.90905614
  H -4.16809323  2.36455038  0.16203688
  H -3.18944313  3.75786078 -0.35070321
  H -3.00312548  3.09195827  1.29113663
  H -2.22476145  1.55760769 -1.13010481
  H -0.09374977 -2.27296944 -1.84293573
  H  0.03668395 -2.20119342 -0.07144200
  H -1.52094517 -2.52663019 -0.86528065
  H  2.01814843  0.19304122  2.14255810
  H  0.53126906  1.17842073  2.23400140
  H  1.97808632  1.77200517  1.37612992
  H  1.51389674 -0.65844976 -1.36265691
  H  5.25336368 -2.34473030 -0.15202771
  H  5.50070637 -1.91918529 -1.87268579
  H  5.70780178 -0.68568788 -0.58847840
