19
opt_min/./Reactant_3381_1_opt.xyz
  C  2.98682300 -1.16781800  0.69750900
  C  2.20590683  0.09731842  0.65780342
  O  0.98644038  0.04913186  0.26356503
  C  0.14184381  1.04261604  0.10911565
  C  0.52109016  2.46575956  0.36822698
  C -1.19452579  0.71199314 -0.31198655
  O -2.07295443  1.53018949 -0.50433823
  O -1.37821294 -0.62727527 -0.46364462
  C -2.66547935 -1.03466916 -0.88814890
  H  2.31602966 -2.01945266  0.78661562
  H  3.67563757 -1.15952186  1.53923708
  H  3.57372137 -1.29971628 -0.21496875
  H  2.68237789  1.03438126  0.91363787
  H  1.45317945  2.71743495 -0.14094603
  H  0.64803131  2.66005069  1.43569244
  H -0.27731477  3.09915064 -0.00613343
  H -2.71233192 -1.05758234 -1.97991785
  H -3.42292935 -0.34147124 -0.51611019
  H -2.83055788 -2.03404383 -0.48882050
