24
opt_min/./Reactant_2813_1_opt.xyz
  C  3.73568819 -0.48128415  1.47775329
  N  2.37388488 -0.35099740  1.01296333
  C  1.32554992 -0.79263735  1.73605139
  O  1.40360139 -1.38284782  2.78545199
  C  0.01410502 -0.47658727  1.03476739
  C -0.62547424  0.69157900  1.45283812
  N -1.11011078  1.65102976  1.86190854
  N -0.43178689 -1.26053541  0.07380029
  C  0.24835421 -2.52768663 -0.16498778
  N -1.47661104 -1.11123541 -0.66068879
  C -2.04486716  0.09796820 -0.93140216
  O -3.21620359  0.26952731 -1.11681667
  O -1.10147371  1.07283531 -1.11289761
  C -1.61620574  2.36212099 -1.40813558
  H  4.14500784  0.48983608  1.76041232
  H  3.72501140 -1.13095648  2.35077541
  H  4.35780211 -0.92410337  0.69969315
  H  2.21151189  0.21602894  0.19454384
  H  0.74769478 -2.87926969  0.73501937
  H -0.50371508 -3.24235475 -0.49025472
  H  0.97888939 -2.39696100 -0.96373486
  H -2.36560279  2.29480825 -2.19776135
  H -0.76749019  2.95736659 -1.73567075
  H -2.06100042  2.79039783 -0.50841997
