36
opt_min/./Reactant_2267_0_opt.xyz
  C  4.91425400 -0.20601500 -0.72533800
  N  3.88261462 -0.87048727  0.03267556
  C  2.56363765 -0.57427977 -0.16003737
  O  2.21066892  0.19743298 -1.04257469
  C  1.63713945 -1.19781531  0.77919057
  C  2.13184435 -2.01053423  1.93975123
  N  0.35571572 -0.78359626  0.75709040
  C -0.38996497 -0.67606338  2.00471725
  C -0.26509085 -0.47598814 -0.39540357
  C -0.06878731 -1.18589160 -1.64824209
  C  0.69577563 -2.49951564 -1.64669222
  O -0.61072792 -0.80972528 -2.67396661
  C -1.27874844  0.59509632 -0.40599094
  C -2.55629831  0.39918288 -0.92132476
  C -3.45995190  1.44568567 -0.95349209
  C -3.10102470  2.69393335 -0.47396844
  C -1.82743390  2.90068754  0.03028880
  C -0.91938179  1.85985362  0.06444791
  H  4.43235376  0.29566758 -1.56185130
  H  5.63286733 -0.93840843 -1.09693315
  H  5.44261445  0.53711602 -0.12130122
  H  4.17518024 -1.38363707  0.84605176
  H  2.81259030 -2.79170542  1.60287153
  H  2.65867302 -1.39767859  2.67721596
  H  1.30402531 -2.50347384  2.44165742
  H -1.19997144  0.03733812  1.87411537
  H  0.25554696 -0.34824276  2.81577189
  H -0.82525924 -1.64643526  2.25771991
  H  0.20730264 -3.16170321 -2.35909400
  H  0.73066013 -2.96952720 -0.66763284
  H  1.71031654 -2.33094576 -1.99699780
  H -2.83524189 -0.57163071 -1.30046656
  H -4.44994449  1.28534942 -1.35468032
  H -3.80931139  3.50888058 -0.50329486
  H -1.53833863  3.87847565  0.38706105
  H  0.08799957  2.01773323  0.42232974
