22
opt_min/./Reactant_2576_0_opt.xyz
  C  3.90606600  1.30253600  0.04210200
  N  2.58346304  0.72630784  0.10962503
  C  2.42300075 -0.63052367  0.12707070
  O  3.36351349 -1.39189922  0.12263711
  C  1.02894923 -1.09496596  0.16063715
  N -0.09578923 -0.34172650  0.16838109
  C -1.18237194 -1.11321806  0.19874621
  C -2.55911924 -0.62031293  0.21291390
  O -3.55978560 -1.28102675  0.24192102
  O -2.53428590  0.73884105  0.20229817
  C -3.80846141  1.37681441  0.21577359
  O -0.83166737 -2.38731369  0.21172757
  C  0.59553327 -2.47325038  0.18840501
  O  1.14772540 -3.52908547  0.19537848
  H  4.61119276  0.56785869  0.42967189
  H  4.18660975  1.53823071 -0.98919269
  H  3.94704192  2.21116781  0.64203822
  H  1.80698683  1.36320814  0.06001565
  H -0.16514668  0.66771660  0.15633210
  H -4.24882942  1.35048601 -0.78256180
  H -4.47823917  0.86018110  0.90549674
  H -3.63592050  2.40135368  0.53519365
