24
opt_min/./Reactant_4313_0_opt.xyz
  C -3.15210400  1.18562600 -0.24504200
  C -2.45425137 -0.09269801 -0.56188903
  C -3.27794226 -1.23984496 -1.05114719
  N -1.14812517 -0.24839295 -0.46144371
  C -0.16227975  0.56218509 -0.05611350
  C  1.20290830  0.18014946 -0.05905346
  C  2.16606222  1.10568379  0.38879874
  C  3.50561633  0.79406554  0.41502564
  C  3.94714575 -0.45342936 -0.00233575
  C  3.01951882 -1.38019891 -0.45186451
  C  1.67620129 -1.07715451 -0.48302205
  H -2.44917551  1.99597146 -0.07929876
  H -3.77152065  1.07866725  0.64861434
  H -3.81300877  1.46611378 -1.06747738
  H -4.19185669 -1.33097366 -0.46345493
  H -3.57745858 -1.09722458 -2.09393741
  H -2.73188945 -2.18023956 -0.98381516
  H -0.81199289 -1.17006132 -0.73243642
  H -0.42806619  1.54444131  0.29326366
  H  1.83221636  2.08076762  0.71641217
  H  4.22008488  1.52781404  0.76286945
  H  4.99813789 -0.69927751  0.02167305
  H  3.35226629 -2.35537214 -0.78175354
  H  0.98863284 -1.83034841 -0.84973224
