40
opt_min/./Reactant_2588_0_opt.xyz
  C -3.56550980  1.98930211  0.43745160
  C -2.39232409  1.11617942  0.08264579
  O -1.63326174  1.38137977 -0.81336429
  C -2.22931272 -0.13598024  0.95607192
  C -3.48431705 -1.01609312  0.86122298
  C -3.84508779 -1.41492193 -0.54532318
  O -4.09030057 -1.38927587  1.83030760
  C -1.12715837 -0.95688545  0.38504698
  C  0.01501916 -1.27879502  0.12206906
  C  1.46055784 -1.14612213  0.40107405
  F  1.96772835 -2.36165178  0.82595060
  C  2.21764096 -0.66482549 -0.81638080
  C  1.64683657  0.29077572 -1.65041129
  C  2.35510366  0.76514323 -2.73927381
  C  3.63043037  0.29370374 -3.00371666
  C  4.19873013 -0.65543324 -2.17300407
  C  3.49740751 -1.13197213 -1.07923357
  C  1.69904389 -0.10152597  1.62969271
  C  0.28037467  0.23825388  2.05817432
  C -0.70173960  1.01541275  2.92392630
  C -2.02785080  0.31100569  2.47163430
  H -3.24566469  2.72544755  1.17425244
  H -4.38884002  1.41325798  0.85048378
  H -3.88951329  2.53111291 -0.44867746
  H -3.71777620 -2.49236279 -0.64594438
  H -4.89881583 -1.19854627 -0.71634514
  H -3.23361568 -0.91196188 -1.28809475
  H  0.65198273  0.65845592 -1.45117665
  H  1.90743771  1.50542549 -3.38545856
  H  4.18063677  0.66412986 -3.85618288
  H  5.19290230 -1.02689721 -2.37409751
  H  3.93865768 -1.87483098 -0.43174872
  H  2.27713881 -0.63721874  2.38175671
  H  2.27452480  0.74597037  1.26093563
  H -0.07691954 -0.77233241  2.26132431
  H -0.06654768  0.61823463  1.10064024
  H -0.71912069  2.08383281  2.70862908
  H -0.58644914  0.87550930  3.99934121
  H -2.12987204 -0.60782021  3.05261260
  H -2.88611372  0.93655712  2.71659053
