28
opt_min/./Reactant_1717_0_opt.xyz
  C -0.52654803  1.29197201 -4.62913500
  O -0.43657376  1.04626130 -3.23102103
  C -0.56581888 -0.24123165 -2.87043337
  O -0.75951143 -1.12790990 -3.66257950
  C -0.46404734 -0.49850809 -1.41386930
  C -0.55801895 -1.87891717 -1.11479468
  N -0.68050326 -2.99545347 -0.88693892
  N -0.37356770  0.38196541 -0.42926460
  C -0.47385218  1.79992824 -0.68201122
  C -0.06482751 -0.04716037  0.84691154
  C  1.08608458 -0.94512033  0.89332984
  C  1.71465849 -1.32417621  2.20890491
  O  1.61566476 -1.32090193 -0.14343121
  C -0.86643175  0.53129258  1.91461220
  C -0.66976550  0.09689137  3.34707238
  O -1.77009447  1.31267488  1.65292555
  H  0.29571099  0.79992535 -5.15189047
  H -1.46924724  0.90825549 -5.02201200
  H -0.46867855  2.37094794 -4.74747931
  H -0.34954513  2.34331757  0.24977814
  H -1.44421444  2.05077793 -1.10952875
  H  0.30616109  2.09587457 -1.38394481
  H  1.09313704 -2.06854554  2.70156343
  H  2.67800902 -1.77820215  1.98487100
  H  1.85826356 -0.47593775  2.86784670
  H -0.59707926 -0.97913107  3.44859752
  H -1.53097576  0.45362991  3.90906573
  H  0.22277186  0.56069903  3.76251325
