20
opt_min/./Reactant_2407_0_opt.xyz
  C  3.55129390  0.91459718  0.58124027
  O  2.13631274  1.03551664  0.51988903
  C  1.44715124  0.03377635 -0.02744390
  O  1.94904598 -0.97794478 -0.46627286
  C  0.01309562  0.37569406 -0.02335479
  C -0.27092697  1.66041118  0.47323873
  N -0.45934860  2.66826154  0.99005875
  N -0.97098196 -0.43230655 -0.44689488
  C -0.73803335 -1.85125684 -0.64589657
  C -2.23097549 -0.02288476 -0.65264901
  C -3.24028922 -0.95807445 -0.93499380
  N -4.07538258 -1.70810057 -1.17755591
  C -2.66079717  1.31349217 -0.69522475
  N -3.09040612  2.37196201 -0.80958669
  H  3.85355134 -0.10438339  0.33344159
  H  3.85478286  1.17071876  1.59495437
  H  3.99034789  1.61774686 -0.12739033
  H -1.15154492 -2.40864029  0.19670652
  H -1.23347621 -2.18587828 -1.55760479
  H  0.32908770 -2.04725829 -0.72577324
