23
opt_min/./Reactant_592_1_opt.xyz
  C  3.66419700  0.14163600  0.36070600
  N  2.28678595 -0.24029700  0.17457003
  C  1.29803309  0.67871345  0.02508535
  O  1.50644389  1.87680884  0.09992476
  C -0.04416923  0.11487463 -0.18242920
  C -1.21276608  0.76895315 -0.21045493
  C -1.54091810  2.19489427 -0.00417154
  C -2.26514236 -0.33162448 -0.42391358
  C -2.28218335 -1.10923231  0.89584039
  C -1.13182326 -1.76257881  0.91711012
  C -0.43457661 -1.36390875 -0.38739152
  O -1.54561368 -1.22609129 -1.25690022
  H  4.24068481  0.01299077 -0.56181542
  H  4.11719284 -0.45474421  1.15371400
  H  3.67972836  1.19629112  0.63552945
  H  2.08374391 -1.22290623  0.08857205
  H -2.29479613  2.52460695 -0.71618911
  H -0.63375551  2.78860833 -0.08925303
  H -1.94338918  2.32215342  1.00335825
  H -3.21403092 -0.03982060 -0.85740472
  H -3.07805368 -1.05650305  1.61056559
  H -0.70341489 -2.40810254  1.65696039
  H  0.29362634 -2.05190874 -0.80289857
