35
opt_min/./Reactant_3162_0_opt.xyz
  C  3.59861893 -1.16077405  0.25189016
  O  2.23645063 -1.51754505  0.14892613
  C  1.25532446 -0.61798040  0.63530564
  C  1.24518631 -0.57452909  2.18598516
  C -0.08481579 -0.65083464  2.87973150
  O  2.27732724 -0.47229610  2.79707686
  C -0.01999467 -1.00091080  0.08042200
  C -1.07185686 -0.89857069 -0.48419088
  C -2.25783099 -0.33506539 -1.08023136
  C -2.26446416 -0.61886244 -2.59398508
  F -3.38239748 -0.17891013 -3.18578400
  F -2.15850525 -1.91912162 -2.87056842
  F -1.24709838 -0.00846733 -3.21239564
  C -3.52163175 -0.93593566 -0.44035673
  F -3.52305064 -0.71228587  0.88459724
  F -4.64809600 -0.39387783 -0.91398243
  F -3.61303944 -2.25472236 -0.60424977
  C -2.19553453  1.18723319 -0.77853827
  C -0.83728303  1.91325752 -0.88489712
  C  0.25193929  1.81883667  0.21519107
  C  1.43373052  0.83495058  0.09420761
  H  4.14006004 -2.05911170 -0.03822560
  H  3.85800867 -0.35252839 -0.44025473
  H  3.87950855 -0.88265929  1.26775370
  H -0.92485947 -0.49863293  2.21182476
  H -0.10090048  0.07001320  3.69465389
  H -0.17072750 -1.64064149  3.32707626
  H -2.58919110  1.34775114  0.22735473
  H -2.87677153  1.67714549 -1.48029645
  H -0.38304431  1.74382839 -1.85956585
  H -1.14374057  2.96286169 -0.86015342
  H  0.74277266  2.79452176  0.16095452
  H -0.20952839  1.75974190  1.20069378
  H  1.72350971  0.76590388 -0.95625563
  H  2.27032444  1.26932465  0.64849780
