11
opt_min/./Reactant_3595_0_opt.xyz
  C -1.91646154 -0.29741637  0.03951518
  N -0.53434694  0.00310958  0.33006859
  C  0.41700684 -0.02098802 -0.62970342
  O  0.23186311 -0.29437060 -1.79388931
  C  1.73336084  0.32482707 -0.13685701
  N  2.87778822  0.52400783 -0.13712244
  O  4.02246729  0.75784858  0.01738860
  H -2.29701559 -1.04070348  0.73672877
  H -2.53230874  0.60157484  0.09912394
  H -1.95952157 -0.69063070 -0.97468936
  H -0.28521649  0.24216546  1.27675868
