28
opt_min/./Reactant_1218_1_opt.xyz
  C -2.63386474  1.71309319  0.51917878
  C -2.51565135  0.59930171 -0.48918326
  O -3.37183544  0.39126833 -1.31186041
  C -1.22663264 -0.22786086 -0.45034017
  C -1.49187421 -1.62454114 -1.02407041
  C -0.62339870 -0.33560056  0.85360553
  C  0.20139459 -0.35791155  1.72224176
  C  1.52546366 -0.39365382  2.28106061
  C  2.43974520 -0.71413127  1.08763691
  C  2.33232189  0.16173537 -0.17856490
  C  1.27677248 -0.03595854 -1.29522607
  C -0.14608325  0.55358663 -1.23783564
  H -3.66275233  1.77411935  0.87005097
  H -1.95488296  1.56950730  1.35559062
  H -2.40171969  2.65587475  0.02277444
  H -1.44797211 -1.60630181 -2.11228021
  H -0.76153101 -2.33850482 -0.64937938
  H -2.48470388 -1.95803003 -0.73117478
  H  1.62040882 -1.15564333  3.06016092
  H  1.76222568  0.57914039  2.72553469
  H  3.47243428 -0.60607101  1.43709724
  H  2.31313326 -1.75797358  0.79535449
  H  2.36265813  1.21926509  0.10307859
  H  3.26936856 -0.06094399 -0.70658388
  H  1.24091619 -1.08906072 -1.58345073
  H  1.72498408  0.51535659 -2.13400776
  H -0.07780959  1.57276959 -0.84662204
  H -0.49301794  0.62492426 -2.27552930
