23
opt_min/./Reactant_5690_1_opt.xyz
  C -3.35903967  1.12461251 -0.66260126
  N -2.46097359  0.70830688  0.38116254
  C -1.24311681  0.19240145  0.12152271
  O -0.80304854 -0.03574995 -0.99036030
  N -0.57886153 -0.17634432  1.28875865
  N  0.70849548 -0.21632657  1.30475730
  C  1.24459842 -1.15244274  2.27301508
  C  1.50942387  0.59016025  0.60887125
  C  0.94618488  1.75547054  0.05061592
  N  0.49983713  2.74514120 -0.32178803
  C  2.96351287  0.42575080  0.39966515
  C  3.46280716 -0.98340038  0.17021947
  O  3.69778047  1.38593931  0.33082048
  H -2.92616695  0.80870727 -1.60934938
  H -4.33799789  0.66025296 -0.53396109
  H -3.47377049  2.21091491 -0.66845942
  H -2.70893021  0.87707561  1.34198263
  H  0.46255784 -1.33404667  3.00726874
  H  1.48418554 -2.09850393  1.78886096
  H  2.13046802 -0.74766863  2.75655495
  H  2.69422271 -1.61651625 -0.26400252
  H  3.81458891 -1.41550535  1.10492911
  H  4.31385744 -0.92930111 -0.50327422
