22
opt_min/./Reactant_4142_0_opt.xyz
  C -3.56903900  1.47037000  0.10975400
  N -2.52286616  0.50507658 -0.11759501
  C -1.22806817  0.78777887  0.18561329
  O -0.90598109  1.84674990  0.70624639
  C -0.26267293 -0.26797201 -0.13195461
  C -0.65432274 -1.58033620 -0.75343019
  O  1.01322097 -0.15858120  0.09364315
  C  1.71746408  0.80293302  0.61212420
  C  3.14423438  0.62557911  0.76023970
  C  3.72723797 -0.69452223  0.30057566
  O  3.83995242  1.50269246  1.24039111
  H -3.80074339  2.02918604 -0.80164947
  H -3.21609337  2.17273663  0.86323108
  H -4.46827299  0.96809211  0.46211402
  H -2.76247827 -0.34668452 -0.59042075
  H  0.23474961 -2.19961416 -0.84537634
  H -1.07695047 -1.44215536 -1.74882224
  H -1.37819500 -2.11309065 -0.13829271
  H  1.26118432  1.72637205  0.93959005
  H  4.71367093 -0.52054335 -0.11886766
  H  3.09291786 -1.18681511 -0.42902566
  H  3.84385802 -1.34212816  1.16726025
