29
opt_min/./Reactant_3068_0_opt.xyz
  C  4.93464300  0.92281700  0.30515100
  O  3.56319602  0.56443426  0.31849598
  C  3.27304453 -0.70574980 -0.02267095
  O  4.10330252 -1.53890963 -0.31593553
  C  1.85051706 -0.97979229  0.01516197
  O  1.02010221 -0.02182465  0.28865996
  C -0.27828021 -0.05453068  0.35155077
  C -0.92391384  1.24943317  0.57305796
  O -2.11401616  1.40969234  0.71361789
  O -0.02311362  2.24351798  0.61592438
  C -0.54052548  3.54322417  0.84817319
  C -1.09740875 -1.26298126  0.24728919
  C -0.74086692 -2.42637918  0.93551036
  C -1.53148480 -3.55682385  0.85536454
  C -2.68642167 -3.54910867  0.09012273
  C -3.05576312 -2.39554512 -0.58307636
  C -2.27287954 -1.25989331 -0.50585735
  H  5.55220571  0.06654246  0.58363095
  H  5.22260543  1.25842478 -0.69362602
  H  5.05416156  1.73413634  1.01964793
  H  1.52305444 -1.98201711 -0.22861631
  H -1.30679963  3.51440404  1.62526978
  H -0.98307617  3.94203737 -0.06725560
  H  0.30156916  4.15699163  1.15786794
  H  0.13485454 -2.43873623  1.56846533
  H -1.24440954 -4.44557426  1.39768410
  H -3.29894860 -4.43544954  0.02507536
  H -3.96005671 -2.38060792 -1.17282146
  H -2.56493505 -0.36409620 -1.02960491
