25
opt_min/./Reactant_2157_0_opt.xyz
  C  1.85930539  3.81829534 -0.01801610
  N  1.46739455  2.44799762  0.19218746
  C  0.30652125  1.95944255 -0.23892159
  O -0.56335557  2.62665193 -0.81001288
  C  0.01185090  0.51481088 -0.00473879
  N -1.24942104  0.28465255 -0.41909577
  C -2.18620870 -0.63145763 -0.35594682
  C -2.09988369 -1.97736617  0.28058163
  C -3.43280178 -0.28559213 -0.90253119
  N -4.47934837 -0.05404132 -1.31878484
  C  1.03596338 -0.38453488  0.45422495
  O  2.07631295 -0.01842029  0.98130026
  O  0.80367867 -1.69197566  0.19441702
  C  1.82236604 -2.60041943  0.59071012
  H  2.70513681  3.87840023 -0.70647273
  H  1.00977737  4.34881630 -0.44698500
  H  2.14113080  4.27912977  0.92904655
  H  2.11054304  1.80398755  0.64258910
  H -1.53056514  1.22402506 -0.83185383
  H -1.10327871 -2.39005995  0.17487093
  H -2.82813538 -2.64817193 -0.17242288
  H -2.32836620 -1.90017260  1.34568401
  H  2.27280929 -2.27479511  1.53000390
  H  1.34717885 -3.57241876  0.70643418
  H  2.59576883 -2.64746920 -0.17857421
