38
opt_min/./Reactant_5731_0_opt.xyz
  C -3.03498200  2.93617500  1.27245400
  N -2.26706612  1.76382808  0.92468473
  C -0.93170965  1.79624678  0.79086188
  O -0.26027124  2.79513971  0.92255223
  C -0.24904871  0.41010661  0.51227311
  C -1.23309734 -0.68401020  0.15659980
  C -1.94280457 -1.32131864  1.17299440
  C -2.85470601 -2.31585419  0.87027307
  C -3.07124368 -2.68027191 -0.44871687
  C -2.36135819 -2.05627739 -1.45925816
  C -1.44282841 -1.06344484 -1.16133092
  N  0.82085848  0.49600941 -0.48844308
  C  0.70962280  1.56758232 -1.46811815
  C  2.03318909  0.36373973  0.25184732
  C  1.73066521  0.12207002  1.55007554
  C  2.59524210 -0.16106630  2.71480925
  O  0.38840265  0.09638489  1.75449296
  C  3.38856223  0.30413443 -0.26122783
  C  3.59193834  0.33178373 -1.75674115
  O  4.33545396  0.18716793  0.50036704
  H -3.65445216  3.25482239  0.43133430
  H -3.67385678  2.72915423  2.13097566
  H -2.33134710  3.72913444  1.52153133
  H -2.75601586  0.88833735  0.81306303
  H -1.75289533 -1.04151601  2.19864553
  H -3.39480806 -2.80860147  1.66510689
  H -3.78477023 -3.45495646 -0.68686449
  H -2.51833398 -2.34621933 -2.48784651
  H -0.87779872 -0.59608440 -1.95117943
  H  1.14496708  1.22961637 -2.40795198
  H  1.19642704  2.49101649 -1.14460578
  H -0.34473537  1.78248768 -1.63933353
  H  1.97579440 -0.35893518  3.58545271
  H  3.24979392  0.68778881  2.90453940
  H  3.23670038 -1.01507250  2.50241053
  H  4.62897422  0.08321107 -1.97004050
  H  2.93220031 -0.38711910 -2.23692174
  H  3.38158781  1.32342394 -2.14727920
