41
opt_min/./Reactant_3016_0_opt.xyz
  C  2.33844100  2.93845400  0.84626800
  N  1.97532871  1.77359180  0.08099335
  C  2.50179427  0.54454759  0.35410277
  O  3.34491220  0.38693349  1.21103781
  C  2.01238936 -0.54915026 -0.50998427
  N  0.79139665 -0.63808762 -1.09121180
  C -0.35425130  0.02334271 -0.99300252
  C -1.34659327 -0.23181500 -2.02906871
  C -2.71673508 -0.20120928 -1.74735450
  C -3.64381523 -0.44448683 -2.74062244
  C -3.22947745 -0.72533689 -4.03351857
  C -1.87615713 -0.76128483 -4.32646374
  C -0.94236801 -0.51404034 -3.33939171
  C -0.70367317  0.85019857  0.15920577
  C -1.49647150  1.99094415  0.00178911
  C -1.86090837  2.74888666  1.09721553
  C -1.44601943  2.38158439  2.36745441
  C -0.66523174  1.24858835  2.53568302
  C -0.29102148  0.49071523  1.44464158
  C  2.94227855 -1.60516592 -0.85447872
  O  4.08302108 -1.73565255 -0.49453377
  O  2.35445630 -2.49822217 -1.74182515
  C  3.16427850 -3.57379783 -2.18265784
  H  3.19329851  2.66960130  1.46428208
  H  2.60547444  3.76324770  0.18512663
  H  1.51098315  3.24999915  1.49089632
  H  1.34943438  1.90687809 -0.69405034
  H  0.78010487 -1.42074978 -1.75070536
  H -3.04465896 -0.01429598 -0.73599223
  H -4.69719142 -0.42206128 -2.50404214
  H -3.95862148 -0.91235455 -4.80698851
  H -1.54587568 -0.97453863 -5.33230774
  H  0.10926048 -0.50678877 -3.59113517
  H -1.80225337  2.28977105 -0.99081183
  H -2.46724870  3.63190163  0.96028075
  H -1.73065401  2.97696609  3.22188286
  H -0.34179764  0.95606208  3.52301922
  H  0.30677555 -0.39658736  1.58810047
  H  3.54512587 -3.35926464 -3.18379607
  H  2.54116551 -4.46669961 -2.20202012
  H  4.00473007 -3.70355019 -1.49788618
