39
opt_min/./Reactant_2480_0_opt.xyz
  C  4.49099591 -0.94133774  0.64471074
  N  3.62553767 -0.51964935 -0.43027979
  C  2.27588101 -0.65067420 -0.33186348
  O  1.74137652 -1.14875854  0.64859160
  C  1.54230905 -0.22036821 -1.52553553
  C  2.25358477  0.09585971 -2.67084864
  N  2.88912401  0.33919034 -3.60617702
  N  0.17717547 -0.31214014 -1.58080829
  C -0.41066159 -0.31359315 -2.91248738
  C -0.61317359 -0.32496590 -0.50717272
  C -0.28946326  0.41680826  0.70182397
  C -0.78361923  0.01059291  1.94424798
  C -0.55560982  0.76780585  3.07555925
  C  0.16197510  1.94925177  2.99637020
  C  0.65359847  2.36758923  1.76870634
  C  0.43891591  1.61034373  0.63750309
  C -1.87689705 -1.05719701 -0.55465122
  C -1.90791312 -2.35247748 -1.08339193
  C -3.07862530 -3.08421553 -1.07735710
  C -4.23977336 -2.54003407 -0.55101580
  C -4.22024860 -1.25914939 -0.02364659
  C -3.05130237 -0.52283154 -0.02147351
  H  5.50174039 -1.07254333  0.26778874
  H  4.49503373 -0.20452685  1.45340330
  H  4.11942602 -1.88398924  1.04812847
  H  4.03335081 -0.11158227 -1.25496183
  H -1.38635496 -0.79182031 -2.90273598
  H -0.53331838  0.72217439 -3.23978407
  H  0.24381916 -0.82311631 -3.61774886
  H -1.32057715 -0.92262895  2.01833106
  H -0.93363369  0.42962645  4.02953066
  H  0.34500280  2.53766071  3.88293059
  H  1.21199729  3.28980971  1.69572113
  H  0.82354773  1.95904947 -0.31138983
  H -0.99830719 -2.78903318 -1.47029398
  H -3.08366420 -4.08710400 -1.47812684
  H -5.15391929 -3.11433559 -0.54804353
  H -5.12284238 -0.83034814  0.38640090
  H -3.03925123  0.47866369  0.38267467
