30
opt_min/./Reactant_1834_0_opt.xyz
  C  5.14338400  0.11845200 -0.29781900
  N  3.98284699 -0.68239148 -0.00424139
  C  2.72952939 -0.16812273 -0.00209908
  O  2.48364973  1.01337824 -0.24388981
  C  1.64780608 -1.09446277  0.28175675
  N  0.45854562 -0.51885949  0.25177399
  C -0.81776815 -0.85594542  0.40062951
  C -1.32136404 -2.14754849  0.84448742
  C -0.32337532 -3.20501776  1.27056942
  O -2.51495961 -2.39299075  0.90092212
  C -1.77570649  0.24042978  0.16008157
  C -2.97650853  0.01729168 -0.51254236
  C -3.85400578  1.06079209 -0.74088968
  C -3.55209385  2.34046854 -0.30896201
  C -2.36265403  2.57427461  0.36098784
  C -1.48247474  1.53605576  0.59502228
  H  5.85850806  0.08049758  0.52636309
  H  5.63276373 -0.22503323 -1.21242682
  H  4.80217233  1.14301319 -0.43632366
  H  4.11693838 -1.66214907  0.18186102
  H  1.80687852 -2.12915709  0.50014812
  H  0.60417144  0.47449142 -0.00831871
  H  0.38847980 -2.80433630  1.98815464
  H -0.87350010 -4.02377034  1.72802683
  H  0.20673414 -3.59082708  0.40070432
  H -3.21608317 -0.97354413 -0.86001867
  H -4.77978220  0.87485247 -1.26531820
  H -4.24088673  3.15286488 -0.48865866
  H -2.12167228  3.56869238  0.70791224
  H -0.57544463  1.72982053  1.15261270
