10
opt_min/./Reactant_5269_1_opt.xyz
  O  2.88813889 -0.84774207  0.48997428
  C  2.68168265 -0.14623479 -0.38985723
  O  2.49208786  0.54765199 -1.27844254
  C -0.31412721 -0.29709849  0.46454091
  C -0.73309545  0.41968548 -0.39373024
  C -3.79770211  0.43156913  0.24993771
  O -3.66461761 -0.25930003  1.15126019
  O -3.94722777  1.13751441 -0.63823468
  H  0.04780747 -0.92552355  1.22418912
  H -1.09293098  1.05056175 -1.15242425
