14
opt_min/./Reactant_3884_0_opt.xyz
  C -1.58325918  2.07942917  0.76592074
  N  4.71963491  2.02351780  4.48836502
  C -11.00793140 -12.50725001 -5.74876024
  O  18.80577719  8.85048703  17.76992259
  C  17.85494563  26.47568819 -24.20017717
  N -18.62593274 -43.80790090 -28.92881724
  C -18.29268358 -37.91857452 -14.71193986
  C -8.14980563  5.83387832  0.28050367
  N -1.38380314  3.67964533  5.22593357
  H  23.16970121 -2.82231031 -15.83715798
  H  17.54169155  1.28240098  1.55421413
  H -19.56620448  0.01883186  5.77648310
  H  4.15593524 -23.68624177  19.55410313
  H  45.31993938  9.29116379  59.33219632
