33
opt_min/./Reactant_2225_0_opt.xyz
  C  5.79017552 -0.24123190 -0.35673814
  N  4.36226515 -0.44818730 -0.29628860
  C  3.53262217  0.57263728  0.06818922
  O  3.91787349  1.69778981  0.35879410
  C  2.16705218  0.25795892  0.11836105
  N  0.98447242  0.19358865  0.12485806
  C -0.29709577  0.09316719  0.16361311
  C -1.08496836  1.24009911  0.58166368
  C -2.44531470  1.32707257  0.27399074
  C -3.18267701  2.42587444  0.66741052
  C -2.58556040  3.46428867  1.36311523
  C -1.23116028  3.39913608  1.65421604
  C -0.48683652  2.30319391  1.26825927
  C -0.86640288 -1.20067260 -0.21699869
  C -1.96504613 -1.73325767  0.45976185
  C -2.48042568 -2.96289140  0.10085578
  C -1.90766387 -3.69100829 -0.92997803
  C -0.80583283 -3.18107702 -1.59754857
  C -0.28936642 -1.94998863 -1.24428910
  H  6.19162074 -0.04864248  0.64173906
  H  6.26721441 -1.12289868 -0.77350786
  H  6.01041182  0.62790467 -0.97880493
  H  3.98379940 -1.35332232 -0.51486920
  H -2.91797804  0.53971199 -0.29427273
  H -4.23404793  2.47682632  0.42270482
  H -3.16645423  4.32096125  1.66969817
  H -0.75280004  4.20772254  2.18600630
  H  0.56691987  2.26338172  1.50418643
  H -2.40064450 -1.18329286  1.28153784
  H -3.33087447 -3.36348495  0.63267915
  H -2.31325487 -4.65178806 -1.21028067
  H -0.35153916 -3.74363494 -2.39983642
  H  0.56303335 -1.54897477 -1.77631561
