36
opt_min/./Reactant_5560_1_opt.xyz
  C -0.51080802  0.36838728 -3.73269100
  N  0.24753280  0.66142913 -2.54155632
  C  1.42059988  0.02206452 -2.27351842
  O  1.94343332 -0.72396041 -3.07946680
  C  2.08126779  0.37624742 -1.00019551
  C  3.47450336  0.27691253 -1.01855542
  N  4.62470782  0.21195526 -1.01910322
  N  1.47610057  0.82560535  0.12871684
  C  2.35887156  1.46173595  1.09829651
  C  0.19650832  0.61507387  0.44945469
  C -0.48597827  1.49888189  1.43587889
  O -1.20571635  1.09186288  2.32308195
  N -0.25751786  2.83228863  1.24168680
  C -0.93666703  3.81890716  2.05284858
  C -0.60583014 -0.46886151 -0.10208132
  C -0.04536979 -1.71642875 -0.40139548
  C -0.83702649 -2.74733238 -0.86001714
  C -2.19926245 -2.55952450 -1.04358683
  C -2.76920625 -1.33500816 -0.73945336
  C -1.98379638 -0.29983681 -0.27082743
  H  0.16956724 -0.07190935 -4.45953300
  H -0.94218056  1.28355370 -4.13582378
  H -1.31122359 -0.34657683 -3.51904374
  H -0.16297863  1.29527922 -1.87731229
  H  3.13296520  0.74976745  1.39181417
  H  1.80539048  1.75521122  1.98560082
  H  2.85055436  2.32766864  0.65334327
  H  0.21270405  3.15645214  0.41225655
  H -0.47023052  4.78931480  1.90741633
  H -1.99810086  3.88016390  1.79793118
  H -0.86037070  3.52519065  3.09955144
  H  1.01059086 -1.88884991 -0.25505711
  H -0.38824586 -3.70406300 -1.07879052
  H -2.81074808 -3.36640643 -1.41786345
  H -3.82999801 -1.18150467 -0.86977558
  H -2.43871055  0.65132541 -0.03540353
