19
opt_min/./Reactant_3280_1_opt.xyz
  C -1.21223879  1.37215506 -0.69790777
  C -0.55633186  0.57399427  0.37426469
  C -0.64051783  1.07019727  1.78160343
  N  0.05385094 -0.55814993  0.09806070
  C  0.51418094 -1.40238677  1.18913704
  C  0.31872992 -1.02788517 -1.16619601
  C  0.71382670 -2.34976101 -1.36969262
  N  1.03309219 -3.43779312 -1.57889710
  C  0.31661707 -0.26330503 -2.33022085
  N  0.39676231  0.28873660 -3.34033507
  H -1.91799242  2.07165856 -0.26151324
  H -0.48512476  1.93635691 -1.28287815
  H -1.74091397  0.71913043 -1.39270974
  H -0.85843292  2.13270703  1.77913897
  H -1.44421074  0.56825234  2.32639356
  H  0.28586624  0.91530620  2.33000466
  H  0.70364764 -2.40642756  0.81335488
  H -0.23819685 -1.45737167  1.97220112
  H  1.44335178 -1.00915651  1.60484851
