23
opt_min/./Reactant_3517_1_opt.xyz
  C -2.21320623 -2.15251368 -0.34518651
  C -0.88783049 -1.48546925 -0.65373448
  O -0.08451901 -2.04730215 -1.37556567
  C -0.59300180 -0.18271441 -0.04369793
  O -1.45772565  0.61308461  0.52051781
  C -2.74814108  0.64210667  0.68236508
  C -3.29170082  1.74331748  1.33776648
  N -3.77959313  2.62920084  1.88997845
  C  0.77580634  0.34878189  0.00022225
  C  1.90044380 -0.45428320 -0.20760323
  C  3.16980045  0.08636961 -0.13928100
  C  3.35125186  1.43038097  0.14255530
  C  2.24400879  2.23610518  0.35839260
  C  0.97262228  1.70539983  0.28903704
  H -3.01548568 -1.69049419 -0.91755997
  H -2.44225306 -2.11251795  0.71892289
  H -2.14149134 -3.19068454 -0.65931819
  H -3.43884556 -0.10870606  0.33012551
  H  1.77962954 -1.50276848 -0.42250016
  H  4.02474758 -0.55201892 -0.30403031
  H  4.34573418  1.84689357  0.19361908
  H  2.36923480  3.28607673  0.57802350
  H  0.12214463  2.35174715  0.44878677
