25
opt_min/./Reactant_1006_0_opt.xyz
  C  2.81587400  1.37013800 -1.68245500
  C  1.36419060  1.60900603 -1.45931378
  O  0.75971455  0.82003022 -0.65239682
  C -0.47103150  0.68255780 -0.18895083
  C -1.55929377  1.62308725 -0.35599801
  C -1.24150488  3.02820923 -0.84292967
  O -2.71565852  1.33617150 -0.08067271
  C -0.64141401 -0.56899563  0.55938846
  C -1.61165419 -0.71478705  1.55321177
  C -1.73167702 -1.90132280  2.24990934
  C -0.88557085 -2.96529171  1.98385160
  C  0.08433625 -2.83156901  1.00407032
  C  0.20359838 -1.65087061  0.29859362
  H  3.42300537  2.13909759 -1.19957083
  H  3.04358951  1.39553888 -2.74704548
  H  3.10243953  0.40449818 -1.27251776
  H  0.88463308  2.41871307 -1.98675443
  H -1.14978508  3.04008101 -1.92845813
  H -0.33220253  3.41556489 -0.38858519
  H -2.08171466  3.66512533 -0.57463712
  H -2.27562170  0.10473524  1.77102636
  H -2.49027477 -1.99267137  3.01354966
  H -0.98129781 -3.89177197  2.53076175
  H  0.74801190 -3.65462697  0.78079003
  H  0.95618049 -1.57246147 -0.47393355
