22
opt_min/./Reactant_1824_0_opt.xyz
  C  2.88091825 -2.17048304 -0.67756476
  N  2.18227317 -0.92945440 -0.45380290
  C  0.83701877 -0.88697725 -0.29598695
  O  0.14258507 -1.89411559 -0.39199690
  C  0.26410415  0.44863203 -0.06510308
  O  1.12345111  1.45000739 -0.05613765
  C  0.92819676  2.72981263 -0.06901940
  C -0.22640766  3.47914157 -0.30348461
  N -1.06354450  4.20792138 -0.61348016
  C -1.15265971  0.67900826  0.28948216
  O -1.49327752  1.76240126  0.75547850
  N -1.98789168 -0.36128978  0.14214672
  C -3.37427876 -0.24021231  0.52916241
  H  2.18484210 -2.87331821 -1.13392582
  H  3.72719506 -2.00227905 -1.34195997
  H  3.23841681 -2.59837570  0.26372510
  H  2.72685033 -0.09407363 -0.30943351
  H  1.85637197  3.28932799  0.01896926
  H -1.61000887 -1.27123305 -0.10672493
  H -3.89555388 -1.16009240  0.28220497
  H -3.46219261 -0.04336596  1.60147965
  H -3.82934579  0.59874417 -0.00077099
