23
opt_min/./Reactant_1792_0_opt.xyz
  C -1.92530400  2.07756300 -0.43325800
  N -0.83881960  1.34163972 -0.47101152
  C -0.52384634  0.14881093  0.06620121
  C -1.48813130 -0.80569413  0.57202408
  C -2.92939629 -0.71195130  0.09720885
  O -1.16611060 -1.72498785  1.30888559
  C  0.90352893 -0.17804326  0.06952748
  C  1.86619029  0.83457290  0.15800998
  C  3.21519808  0.53966396  0.11346494
  C  3.64029842 -0.77166388 -0.01086574
  C  2.69918689 -1.78581194 -0.08091820
  C  1.34988913 -1.49677906 -0.04603408
  H -1.94973489  2.99692681 -0.98439036
  H -2.77164079  1.78713564  0.15227997
  H -0.04504134  1.77035411 -0.94740119
  H -3.02688376 -0.21911093 -0.86626596
  H -3.53425430 -0.19065042  0.83751192
  H -3.30674478 -1.73043840  0.02869630
  H  1.56625788  1.86446877  0.30804480
  H  3.93946252  1.33859147  0.18691476
  H  4.69493247 -1.00051540 -0.04336453
  H  3.02080336 -2.81349148 -0.16988263
  H  0.62810504 -2.29454831 -0.10472108
