29
opt_min/./Reactant_5485_1_opt.xyz
  C -3.69987784  1.85435860 -2.37297475
  N -2.82531411  1.20324880 -1.42142528
  C -3.21584196 -0.00161809 -0.87716122
  O -4.22817174 -0.56841636 -1.25349322
  C -2.30250662 -0.59047177  0.10039628
  C -2.80355569 -1.68689411  0.97066070
  N -1.04086065 -0.18117624  0.14187322
  C -0.02438461 -0.50048434  0.96611704
  C -0.19252916 -1.28534577  2.10840266
  N -0.22269424 -1.91508250  3.07337734
  C  1.31252270 -0.00034629  0.68971975
  C  2.27945808 -0.00877745  1.70585440
  C  3.54666631  0.48679270  1.48017943
  C  3.88449001  1.00844674  0.24135003
  C  2.94787217  1.00801646 -0.77847196
  C  1.67966642  0.50628694 -0.56430041
  H -4.09384615  1.08974454 -3.03993615
  H -3.13323510  2.58742532 -2.94233819
  H -4.54345068  2.34450152 -1.87777016
  H -2.25723201  1.83141287 -0.87424088
  H -3.79990668 -1.96456294  0.63652522
  H -2.85135310 -1.36926863  2.01308393
  H -2.14824039 -2.55582372  0.91652174
  H -0.76345292  0.47715063 -0.58414865
  H  2.01725117 -0.40360091  2.67514530
  H  4.27590519  0.46988905  2.27583672
  H  4.87387020  1.40404060  0.06756819
  H  3.20963062  1.39593982 -1.75198711
  H  0.99222481  0.47520237 -1.40016104
