35
opt_min/./Reactant_2343_0_opt.xyz
  C  4.51027700 -0.83770000 -0.39628900
  C  3.54431609  0.30234994 -0.14066971
  O  3.88117132  1.34391711  0.40543183
  N  2.29480652 -0.03904728 -0.50982631
  N  1.30124200  0.82640053 -0.48040926
  C  1.57309909  2.21281953 -0.83893513
  C  0.07036697  0.42405065 -0.25445424
  C -0.24666145 -0.99278058 -0.02551927
  C -1.23772179 -1.31700247  0.90421631
  C -1.58024054 -2.63681328  1.12848507
  C -0.95559878 -3.64970280  0.42086303
  C  0.01675554 -3.33573877 -0.51532812
  C  0.37635622 -2.01980971 -0.73566741
  C -1.06901722  1.34700053 -0.19807754
  C -2.22145834  1.04374381 -0.92652313
  C -3.32857630  1.86855790 -0.86466255
  C -3.31204981  2.99874037 -0.06309435
  C -2.18273427  3.29809281  0.68169851
  C -1.06845575  2.48281859  0.61453769
  H  4.49966774 -1.50118831  0.46561272
  H  5.51485888 -0.44300560 -0.51689562
  H  4.20614937 -1.40109417 -1.27203282
  H  2.01632405  2.72760636  0.01347641
  H  2.31265422  2.21502858 -1.63898140
  H  0.66475276  2.70928613 -1.16827355
  H -1.72529410 -0.52945840  1.45980160
  H -2.33906429 -2.87440530  1.85977922
  H -1.22472593 -4.68034436  0.59886688
  H  0.49916211 -4.12296599 -1.07561433
  H  1.13404051 -1.77828024 -1.46175687
  H -2.23441419  0.16142646 -1.54917534
  H -4.20903586  1.62696370 -1.44138394
  H -4.17941716  3.63957422 -0.01417752
  H -2.17187751  4.16888366  1.32001243
  H -0.20301867  2.70573958  1.22006216
