32
opt_min/./Reactant_5309_0_opt.xyz
  C -1.59782800  4.28995700  0.16584600
  O -0.71232986  3.18812160  0.28542904
  C -1.24416390  1.97207214 -0.00151961
  O -2.40528199  1.84908728 -0.33824195
  C -0.35328336  0.83169195  0.10358986
  C -1.02897923 -0.44651960 -0.25480574
  C -1.78178753 -1.12795535  0.69423865
  C -2.44098896 -2.29508636  0.35217104
  C -2.35664349 -2.78886062 -0.93834586
  C -1.61286568 -2.11058981 -1.88900717
  C -0.95248337 -0.94311241 -1.55085448
  N  0.92686316  0.81659226  0.47795774
  C  1.59950759  2.05525730  0.81713687
  C  1.61981827 -0.32834772  0.52823474
  C  2.97892996 -0.54091934  0.92742352
  C  3.38620587 -2.00034444  0.84126139
  O  3.78302234  0.30928770  1.29760384
  H -0.97365209  5.17687775  0.08278554
  H -2.22936069  4.17363738 -0.71699922
  H -2.23561876  4.35657779  1.05003640
  H -1.85168393 -0.73720388  1.69856446
  H -3.02625029 -2.81705600  1.09479864
  H -2.87442230 -3.69825559 -1.20485731
  H -1.55094269 -2.48834803 -2.89902028
  H -0.37701273 -0.40943707 -2.29322920
  H  1.59251002  2.72732760 -0.03921066
  H  2.62460488  1.83606916  1.11276678
  H  1.08247275  2.54758852  1.63907702
  H  1.06439325 -1.21286517  0.25708584
  H  2.73624829 -2.61363019  1.46079315
  H  4.41398098 -2.10631326  1.17725253
  H  3.30670829 -2.34503200 -0.18770819
