33
opt_min/./Reactant_2737_0_opt.xyz
  C -2.39840100  2.75002200  1.08079100
  C -1.00323881  2.26763496  0.72643552
  O -0.03728761  2.99691433  0.94606956
  C -0.87775368  0.94760301  0.17522724
  N  0.34392599  0.38596714 -0.01142422
  C  1.55422182  0.81995496  0.25937165
  C  2.73987810  0.06972546 -0.01665609
  C  3.97860260  0.63928045  0.31661095
  C  5.15709923 -0.03221577  0.07220736
  C  5.13922191 -1.28954196 -0.51165198
  C  3.92471380 -1.86919657 -0.84662537
  C  2.74098516 -1.20574327 -0.60486508
  C -1.99722793  0.08831919 -0.21634349
  C -3.06017494  0.54920270 -0.99206961
  C -4.07803266 -0.30145089 -1.37772496
  C -4.06036464 -1.63532446 -1.00443415
  C -3.00908074 -2.11115897 -0.23840221
  C -1.99141294 -1.26238786  0.15063946
  H -2.31532628  3.41041650  1.94515675
  H -3.07075636  1.92581123  1.30447782
  H -2.80827496  3.33593589  0.25827491
  H  0.29577612 -0.55047675 -0.41745099
  H  1.64480101  1.79595455  0.70889391
  H  3.99240208  1.61880372  0.77138269
  H  6.09992496  0.42425841  0.33698746
  H  6.06326044 -1.81417606 -0.70529209
  H  3.90456967 -2.84948412 -1.30203368
  H  1.81002839 -1.68688790 -0.87962282
  H -3.07120714  1.57652989 -1.32175642
  H -4.88874560  0.07838665 -1.98272685
  H -4.85715012 -2.29604709 -1.30766659
  H -2.98501335 -3.14926150  0.06245987
  H -1.19755162 -1.64269886  0.78232796
