20
opt_min/./Reactant_4854_0_opt.xyz
  C  0.15374379 -3.19693337  0.85670037
  O  0.02839544 -1.83547372  0.46301510
  C  1.08380670 -1.04431555  0.66238728
  O  2.14028503 -1.40420074  1.12605869
  C  0.83908963  0.35331481  0.25431180
  O  1.93562743  1.07716365  0.29025411
  C  2.14397996  2.33352548  0.13802788
  C  1.24441449  3.39592638 -0.00690093
  N  0.60597949  4.35346032  0.01448721
  C -0.39917713  0.89264095 -0.31409167
  O -0.39568306  1.88907229 -1.00866826
  O -1.48628108  0.18072443 -0.02821441
  C -2.70465050  0.62850146 -0.60958672
  H  1.20147700 -3.43920029  1.04382701
  H -0.24285488 -3.80756047  0.04703031
  H -0.43076389 -3.35729617  1.76376916
  H  3.19425391  2.60133742  0.21204436
  H -2.70734022  1.71747908 -0.68997416
  H -2.81985684  0.19486840 -1.60488416
  H -3.50247236  0.28420175  0.04386293
