22
opt_min/./Reactant_3568_1_opt.xyz
  C -2.22430000  1.49772800 -0.13935600
  C -2.24821889  0.15648926  0.54648362
  O -3.26472448 -0.30914911  1.04851958
  C -1.00072875 -0.57927497  0.63385870
  N -1.09303930 -1.70206732  1.34034043
  N -0.26647368 -2.61062264  1.65511771
  C  0.29191100 -0.13221894  0.09168363
  C  1.37311063  0.06144639  0.95092236
  C  2.59745685  0.46793916  0.45233344
  C  2.75956395  0.68167414 -0.90577021
  C  1.69347736  0.48232220 -1.76759418
  C  0.46795967  0.07427260 -1.27560499
  H -1.39022473  2.09197229  0.22691518
  H -2.10134338  1.36578544 -1.21115679
  H -3.16078261  2.01478283  0.04786250
  H -2.05983177 -1.86085466  1.67479424
  H  0.66866711 -2.42041522  1.28362803
  H  1.24398919 -0.08756885  2.01373212
  H  3.42643376  0.61991433  1.12743190
  H  3.71574239  1.00014399 -1.29242318
  H  1.81914722  0.63948531 -2.82855361
  H -0.35382185 -0.10696658 -1.95202954
