25
opt_min/./Reactant_5412_1_opt.xyz
  C  5.32748393 -0.08167526 -0.58712084
  N  31.19509072 -7.18461225 -46.92881238
  C  12.52356621 -25.70955414 -46.64240628
  O -12.89119571 -19.12345175 -29.88298818
  C  46.85502841  2.00715487 -6.17365236
  N -1.28392638  109.98262184  24.66201556
  C -26.91898006 -22.29320582  17.10910329
  C -9.70789905 -43.82837410  25.05094176
  O -10.01696538 -33.28750091  36.54546780
  O  7.15759964 -1.28293756 -22.66099868
  C  12.72796434  37.84165558 -2.64813169
  C -4.15991150  22.00268444 -3.68085608
  O -5.06591779  18.86688239 -2.06399261
  O -13.64443628  31.39375704  11.88984276
  C -6.18540618 -7.80416246 -18.10149248
  H  9.36557409 -12.08346504  11.31080869
  H -4.27851458 -10.22754310  4.49641310
  H  4.61338212 -3.38225194 -7.96794980
  H  34.74220772  32.32371719  12.75640216
  H -26.68402901  21.15760774 -20.72859156
  H -10.36831817 -10.15897805  13.97003363
  H  23.94831657  4.75135592 -20.50711924
  H -2.00798394 -1.86952504  4.00674852
  H -5.68898843 -1.29838724  1.61981570
  H -22.19160101  1.33544433  10.89959830
