9
opt_min/./Reactant_226_0_opt.xyz
  C -1.31432623  0.23779550 -1.37302477
  C -0.41348098 -0.02822340 -0.29102005
  N  0.30416547 -0.29846086  0.58475528
  N  0.96834001 -0.72716118  1.52772321
  C  1.95140291 -0.15535042  2.14792379
  N  2.82881765  0.26379194  2.76479197
  H -0.94183045 -0.17768398 -2.31159256
  H -1.44453811  1.31492016 -1.49489633
  H -2.29310866 -0.20202499 -1.16743300
