22
opt_min/./Reactant_1240_0_opt.xyz
  C -0.94892300 -2.59533100 -0.88949000
  N  0.39090691 -2.04688372 -0.94939305
  C  0.20584322 -0.70138571 -0.44974696
  C  1.23422450  0.21744823 -0.05034516
  O  0.96510882  1.35610065  0.34077913
  N  2.50724664 -0.25032583 -0.15205130
  C  3.64023130  0.50165304  0.31996388
  C -1.13096948 -0.44435795 -0.35562973
  O -1.88379456 -1.52499186 -0.71581354
  N -1.70741715  0.71810303 -0.02050700
  C -3.08136061  0.82070878  0.40155385
  H -1.02809989 -3.25081268 -0.00507210
  H -1.23171409 -3.16560077 -1.77859200
  H  0.74711198 -2.02429153 -1.90479707
  H  2.62339326 -1.23415683 -0.33513155
  H  3.28788464  1.51042727  0.53085430
  H  4.41786702  0.53985094 -0.44518562
  H  4.05885464  0.07017875  1.23331250
  H -1.02000555  1.38618867  0.32924648
  H -3.18450879  0.72243918  1.48741224
  H -3.65592828  0.03184558 -0.07944029
  H -3.47633169  1.78998536  0.09813437
