17
opt_min/./Reactant_776_1_opt.xyz
  N  5.23972187  2.16980125  2.14067163
  C  4.26482001  1.54457662  2.06714473
  C  3.15792102  0.81398177  1.96874157
  N  2.14265426  0.19926854  1.95604377
  C  1.03100608 -0.41494168  1.88206402
  C  0.05884178 -0.20431452  0.83993755
  C  0.26781190  0.71348045 -0.19525944
  C -0.68711070  0.88033565 -1.17731327
  C -1.86149836  0.14463480 -1.15006462
  C -2.07887418 -0.76625501 -0.12739311
  C -1.12912313 -0.94142502  0.85820416
  H  0.82958046 -1.14730024  2.64944123
  H  1.17951632  1.29303041 -0.22478495
  H -0.51393559  1.59146737 -1.97194634
  H -2.60355399  0.28042438 -1.92203740
  H -2.99158743 -1.34232286 -0.10039725
  H -1.30016854 -1.65273798  1.65445671
