21
opt_min/./Reactant_1944_0_opt.xyz
  C  4.81564423  0.82505189 -1.40073305
  N  3.47132161  0.32074966 -1.27022794
  C  2.56015365  0.93143040 -0.46740208
  O  2.77834631  1.90804531  0.22037790
  C  1.27105334  0.33042052 -0.49114019
  N  0.18378316 -0.10430278 -0.41974198
  C -1.02459682 -0.54719219 -0.31147265
  C -1.41252582 -1.65125186 -1.07238633
  N -1.78230084 -2.55409387 -1.68430573
  C -1.97173419  0.13101037  0.61886313
  O -1.63136513  1.05132769  1.33108449
  N -3.21646747 -0.40055541  0.60072463
  C -4.27957391  0.17984013  1.38726781
  H  5.02440930  1.12508796 -2.43036811
  H  4.90453768  1.69609779 -0.75363663
  H  5.54121915  0.06834387 -1.09703189
  H  3.20932783 -0.47004178 -1.83682889
  H -3.44766212 -1.11999294 -0.06770633
  H -4.96821524 -0.60145125  1.70012689
  H -4.82514023  0.93854363  0.81824380
  H -3.83094016  0.65618257  2.25719269
