32
opt_min/./Reactant_2172_1_opt.xyz
  C  3.69637348  1.98032901 -0.69905893
  N  2.44640736  1.30623860 -0.43211096
  C  2.38752720 -0.03272554 -0.28491511
  O  3.36409468 -0.74445520 -0.37019584
  C  0.96062577 -0.52611810  0.00504547
  C  0.93556827 -1.98522984  0.48431454
  C  1.52096494 -2.99542346 -0.46542147
  O  0.43026441 -2.29746162  1.53025211
  C  0.28244614  0.31776951  0.95881990
  C -0.59224739  0.95998442  1.46734781
  C -1.93502856  1.41046658  1.71809538
  C -2.81079252  0.39275637  0.97039971
  C -2.53841291  0.13849374 -0.52819549
  C -1.42202559 -0.76603466 -1.11803228
  C  0.06713149 -0.38182795 -1.25686096
  H  4.02086807  1.78286221 -1.72335023
  H  3.57172939  3.05002545 -0.55853108
  H  4.46735485  1.60857750 -0.02226335
  H  1.62263872  1.85671434 -0.24931477
  H  0.70410997 -3.51063805 -0.97031720
  H  2.07094599 -3.73638690  0.11025068
  H  2.18013785 -2.54206221 -1.19630246
  H -2.08094314  2.42037789  1.32362582
  H -2.18059132  1.41596333  2.78167352
  H -3.83936317  0.76730766  1.01732917
  H -2.78376670 -0.56197475  1.49805249
  H -3.44067794 -0.39774255 -0.84199109
  H -2.53848327  1.09187744 -1.06260744
  H -1.73974215 -0.86278536 -2.16247723
  H -1.50323350 -1.75724466 -0.66953597
  H  0.48361203 -1.03534562 -2.02938036
  H  0.12962169  0.64290265 -1.63164781
