31
opt_min/./Reactant_2691_0_opt.xyz
  C  3.90667300  1.49402800 -1.68478800
  N  2.58786515  1.15097723 -1.20049572
  C  2.38956651 -0.04975145 -0.58275710
  O  3.29010522 -0.85905492 -0.50406860
  C  1.02033292 -0.32123766 -0.07576347
  N  0.06134018  0.58760095 -0.22241048
  C -1.24596712  0.61901689  0.00222125
  C -2.13804779 -0.53822343  0.25885128
  C -1.99014606 -1.70042749 -0.69809521
  O -3.03046607 -0.48461491  1.06854781
  C -1.76859044  1.98133831 -0.18060961
  C -3.22770720  2.22715317 -0.01239742
  O -0.96361255  2.85869256 -0.48341502
  C  0.74276820 -1.49935607  0.76504722
  O -0.23794633 -1.56409733  1.48072636
  O  1.68248085 -2.43004685  0.70614795
  C  1.56047707 -3.54697063  1.57426182
  H  4.52906149  1.90860525 -0.88723537
  H  4.38321550  0.58613025 -2.05059974
  H  3.81608531  2.21779581 -2.48991964
  H  1.92618829  1.90755129 -1.15679854
  H  0.32497944  1.55848001 -0.50162334
  H -1.82649268 -2.60843081 -0.12378508
  H -1.17960809 -1.56631039 -1.40698867
  H -2.93208101 -1.81216306 -1.23204495
  H -3.53248004  1.92490442  0.98743266
  H -3.44800180  3.27849227 -0.17219079
  H -3.79764747  1.61896268 -0.71143692
  H  2.50079405 -3.65052348  2.11371661
  H  0.73415344 -3.39719816  2.27157732
  H  1.38682678 -4.43750080  0.96919762
