28
opt_min/./Reactant_1920_0_opt.xyz
  C -1.11631384 -1.38482498  1.11248319
  C -1.53255913 -1.10758757 -0.28226690
  C -2.98461467 -1.12822751 -0.63270225
  N -0.62780551 -0.87069740 -1.21883772
  C -1.03298026 -0.90923107 -2.61530161
  C  0.70607374 -0.64730941 -0.95724485
  C  1.62187380 -1.09289690 -1.90596565
  N  2.38489038 -1.49529436 -2.67437706
  C  1.19646675  0.13174788  0.15521328
  C  0.41322444  1.11523294  0.77468694
  C  0.93177419  1.88483972  1.79908871
  C  2.23146580  1.69827688  2.23414087
  C  3.02634962  0.74605853  1.61108670
  C  2.52157529 -0.02535800  0.58775121
  H -0.15519483 -1.90418519  1.11250733
  H -1.86423846 -1.99475595  1.61426967
  H -0.96880505 -0.47382685  1.70565169
  H -3.57458210 -1.35246613  0.25181473
  H -3.20984392 -1.87801134 -1.39165080
  H -3.31456564 -0.15848553 -1.01415077
  H -1.81939266 -0.17551734 -2.79797627
  H -1.39973252 -1.90028266 -2.88596427
  H -0.17894563 -0.66688384 -3.24462400
  H -0.58499914  1.31716532  0.41002709
  H  0.30875795  2.64022530  2.25870463
  H  2.62794635  2.29529201  3.04195962
  H  4.04887188  0.60309817  1.92968076
  H  3.14075136 -0.76532181  0.10167659
