24
opt_min/./Reactant_444_1_opt.xyz
  C  3.38286538 -0.28254093  0.41279068
  O  2.27137910 -0.92120781 -0.19591007
  C  1.20407748 -0.12437676 -0.51766890
  F  1.62897821  0.89345960 -1.38271241
  C  0.14291260 -0.88344402 -1.16165553
  C -0.95482091 -1.29684997 -1.41942157
  C -2.40743261 -1.33478949 -1.40689899
  F -2.97131872 -1.56632923 -2.62147925
  F -2.86658187 -2.34063740 -0.60722909
  C -2.85235265  0.03156412 -0.85706623
  C -2.13233756  0.43239025  0.44431258
  C -0.83432386  1.26469912  0.27759669
  C  0.48024649  0.56176951  0.67256950
  H  3.19882624 -0.09115741  1.47444854
  H  4.21060060 -0.98010420  0.31019710
  H  3.63128578  0.65085604 -0.09523711
  H -2.66018055  0.76882602 -1.63904744
  H -3.93146213 -0.02676518 -0.70013299
  H -1.93122764 -0.45699198  1.03992886
  H -2.84348313  1.03677464  1.00950321
  H -0.75525389  1.63543160 -0.74293712
  H -0.91735617  2.13961637  0.92441839
  H  1.17161229  1.28991779  1.09745725
  H  0.28795253 -0.21230688  1.41655757
