18
opt_min/./Reactant_156_0_opt.xyz
  C  2.81823500 -0.52256600 -0.84261100
  C  2.30997386  0.87424341 -0.53579875
  O  3.06359317  1.83859252 -0.46053414
  C  0.90870447  1.01083882 -0.30602275
  O  0.12015626 -0.04573862 -0.38804165
  C -1.15131435 -0.11947040 -0.22654008
  C -1.75248664 -1.47699308 -0.41332251
  C -1.98930577  1.06026530  0.14906857
  H  2.14919072 -1.04994187 -1.51492580
  H  2.89321971 -1.07838928  0.08904937
  H  3.80818665 -0.45405872 -1.28232526
  H  0.52009799  1.99075179 -0.07346284
  H -1.61396103 -1.83640485 -1.43216297
  H -1.28261406 -2.19570215  0.25764609
  H -2.81611174 -1.45168855 -0.20076200
  H -3.03066198  0.86858349 -0.08547588
  H -1.65952557  1.94764940 -0.38656460
  H -1.90756434  1.26676122  1.21785349
