24
opt_min/./Reactant_2921_1_opt.xyz
  C -1.84751986  0.85410307  3.89148305
  N -1.25152565  0.41352382  2.65391487
  C -1.87441021  0.59038919  1.46893618
  O -2.97017369  1.10430374  1.34802626
  C -1.11804351  0.09493521  0.27880236
  C -1.68880854  0.34321230 -1.05348888
  O -0.03039251 -0.55392022  0.52815614
  C  0.90109496 -0.93780339 -0.37006396
  C  1.64531935 -2.07291845 -0.03738354
  N  2.21568533 -3.04462361  0.19366927
  C  1.25814360 -0.12249107 -1.51769889
  O  0.84812937  1.00601105 -1.70558074
  O  2.18099525 -0.73729786 -2.28044717
  C  2.70839334  0.00255859 -3.37168407
  H -2.93122275  0.79280823  3.79242102
  H -1.58040212  1.89143957  4.10954877
  H -1.51192522  0.21687656  4.70676247
  H -0.34453646 -0.02449772  2.68398457
  H -1.39907785 -0.44487792 -1.74919537
  H -1.33816224  1.29350501 -1.46776100
  H -2.77209985  0.40368601 -0.95065248
  H  2.56879148  1.07239132 -3.20612628
  H  3.76745785 -0.23997830 -3.43792074
  H  2.19954906 -0.29322619 -4.29136034
