18
opt_min/./Reactant_83_1_opt.xyz
  N  3.23072898 -0.75337601 -3.09419401
  C  2.51305035  0.06076849 -2.69748310
  C  1.65148729  1.02797054 -2.20906234
  O  0.80940840  0.85352869 -1.21331640
  C  0.65476553 -0.22971640 -0.52114367
  C -0.30395684 -0.27265368  0.53928000
  C -0.46539919 -1.45263703  1.27921155
  C -1.38380255 -1.50940446  2.30625495
  C -2.15616594 -0.39945370  2.61646782
  C -2.00552403  0.77351286  1.89114863
  C -1.09039733  0.84271159  0.86208849
  H  1.62935493  2.00952167 -2.65462661
  H  1.25248027 -1.10485426 -0.75558457
  H  0.13749929 -2.31405512  1.03413178
  H -1.50214618 -2.42181973  2.87160359
  H -2.87349445 -0.44831045  3.42171369
  H -2.60771474  1.63621066  2.13462841
  H -0.97129666  1.75504481  0.29731867
