41
opt_min/./Reactant_2652_0_opt.xyz
  C  1.93885200  0.35595000  3.78090700
  N  1.66955220  0.64721591  2.39571502
  C  1.91690536 -0.24579065  1.40674179
  O  2.42717176 -1.32902504  1.62274523
  C  1.55386741  0.25780455  0.05384234
  N  0.42108003  0.90317122 -0.17089680
  C -0.72430725  1.13461786  0.50473234
  C -1.60908176  1.97721923 -0.26710468
  O -1.27127519  2.42385470 -1.35905371
  O -2.80889237  2.20579572  0.29366276
  C -3.72030602  3.00603696 -0.44157268
  C -1.11621869  0.49250864  1.75610421
  C -1.75067990  1.21067214  2.76953225
  C -2.13581503  0.58128996  3.93887666
  C -1.89625335 -0.77057159  4.11736316
  C -1.27891767 -1.49696417  3.11090725
  C -0.89274179 -0.87516239  1.94118025
  C  2.51295955  0.15074830 -1.03940291
  C  2.51586594  1.07342938 -2.09440941
  C  3.41639516  0.95436185 -3.13416246
  C  4.33606450 -0.08240517 -3.15360427
  C  4.35408361 -0.99235236 -2.10888571
  C  3.45945058 -0.87962851 -1.06327173
  H  1.00919100  0.33994996  4.35402332
  H  2.40447578 -0.62631024  3.82468564
  H  2.61570861  1.09773833  4.20714823
  H  1.30324193  1.55942541  2.18188578
  H  0.32765330  1.33439178 -1.10555940
  H -3.74263729  4.01231187 -0.01835216
  H -3.41516709  3.05748218 -1.48812842
  H -4.70276484  2.54578106 -0.35198613
  H -1.93243495  2.26577845  2.63935171
  H -2.62084791  1.15122656  4.71779735
  H -2.19235189 -1.25782990  5.03418468
  H -1.09989275 -2.55383056  3.23778864
  H -0.42840286 -1.45287757  1.15664889
  H  1.83641649  1.91523262 -2.10337341
  H  3.40093829  1.68030973 -3.93352699
  H  5.03402733 -0.17358182 -3.97231234
  H  5.06914569 -1.80094578 -2.10932069
  H  3.47932299 -1.59283262 -0.25543709
