29
opt_min/./Reactant_2847_1_opt.xyz
  C -3.34104531  2.24317540  0.40637523
  O -2.27750020  1.30790245  0.27005926
  C -2.30416961  0.48749438 -0.77637855
  O -3.16410078  0.47122145 -1.61530684
  C -1.06703576 -0.41720945 -0.78954543
  C -1.31198803 -1.66109721 -1.65084483
  C -0.63500696 -0.72464218  0.54616683
  C -0.06895580 -0.68168119  1.60655807
  C  1.12342983 -0.60578375  2.37686769
 Br  1.21009346 -1.93699717  3.85226530
 Br  1.25542870  1.18909327  3.20558231
  C  2.29243458 -0.83041894  1.42128830
  C  2.37554732  0.07233582  0.17715288
  C  1.52816489 -0.16539716 -1.09541082
  C  0.12690420  0.44814815 -1.29219918
  H -4.21756518  1.89945136 -0.14517271
  H -3.56067523  2.32167685  1.46909537
  H -3.02139978  3.21272040  0.02057729
  H -1.18915352 -2.56997916 -1.06701806
  H -2.32425614 -1.63521029 -2.04762692
  H -0.62161395 -1.69361637 -2.48942600
  H  2.26629229 -1.87658378  1.10060860
  H  3.21716678 -0.68525546  1.99140095
  H  2.31293315  1.12197658  0.46906346
  H  3.40117210 -0.10859132 -0.16122840
  H  1.51181180 -1.22838711 -1.33736683
  H  2.12853952  0.32909873 -1.86662989
  H -0.01319514  0.58557119 -2.36706871
  H  0.08729983  1.42759876 -0.81196022
