17
opt_min/./Reactant_552_1_opt.xyz
  N  2.28437400  0.97532300 -0.62010500
  N  2.22001456 -0.30905464 -0.51098632
  C  1.14679422 -1.05136449 -0.32410394
  C -0.20547608 -0.59015864 -0.20921296
  C -1.22721667 -1.53379761 -0.02786336
  C -2.54234886 -1.13712573  0.08513286
  C -2.87661241  0.20735926  0.02098724
  C -1.87546494  1.14897882 -0.15918949
  C -0.55401745  0.76559391 -0.27291927
  H  3.24217151  1.28443094 -0.77284619
  H  3.08280926 -0.86876105 -0.57259221
  H  1.32820825 -2.11351416 -0.25765596
  H -0.97021181 -2.58263745  0.02209177
  H -3.31633323 -1.87947945  0.22464571
  H -3.90713040  0.51524931  0.11051849
  H -2.13144673  2.19837984 -0.20938301
  H  0.22426110  1.49765405 -0.41077686
