17
opt_min/./Reactant_3853_1_opt.xyz
  C  2.72608962  1.16722235  0.71473508
  O  1.44249587  0.56557294  0.77392245
  C  0.74205466  0.58445919 -0.37502333
  O  1.14945817  1.07384933 -1.40401720
  C -0.57026495 -0.04887074 -0.24070902
  C -1.45904327 -0.15112552 -1.42963445
  O -0.87273205 -0.49167769  0.93993401
  C -1.92977550 -1.13548994  1.34651552
  C -3.04527201 -1.55789975  0.63299833
  N -3.99197415 -1.95759865  0.11061813
  H  2.64465103  2.20564238  0.38832221
  H  3.36483955  0.62924522  0.01161406
  H  3.13232633  1.11191950  1.72082404
  H -1.11553754  0.55691865 -2.18048192
  H -1.42724826 -1.15318969 -1.86347662
  H -2.49315066  0.06315008 -1.15777865
  H -1.91479643 -1.36498449  2.40548119
