21
opt_min/./Reactant_3557_1_opt.xyz
  C  0.38327996  0.89928756  1.84216025
  C  0.92031904  0.67869861  0.45402316
  C  2.06616759  1.37611337  0.12871703
  N  3.01423224  2.00457883 -0.09424100
  N  0.41111381 -0.24029581 -0.41364153
  C  1.32662053 -0.70369995 -1.45015855
  C -0.79766119 -0.78603397 -0.37565513
  C -1.08645598 -2.02699457 -1.16269196
  C -1.96068872 -0.16538669  0.32971214
  H  1.21625091  1.14603205  2.49940128
  H -0.32925576  1.72197349  1.90916473
  H -0.08661153 -0.00937317  2.21209009
  H  2.16244344 -0.01100734 -1.52082196
  H  0.82408579 -0.75638334 -2.41266596
  H  1.71696481 -1.69006983 -1.19576823
  H -2.02353187 -2.45636033 -0.82183356
  H -0.30491960 -2.77668699 -1.03886975
  H -1.18449698 -1.82733175 -2.23386587
  H -2.19811527 -0.67010595  1.26894101
  H -2.83729993 -0.25185745 -0.31207705
  H -1.79580578  0.88664868  0.52656676
