22
opt_min/./Reactant_4503_1_opt.xyz
  C  4.83210705  0.24582228 -0.65385028
  O  3.46018369 -0.12173204 -0.72588055
  C  2.58242179  0.73532555 -0.21288130
  O  2.82560958  1.80374215  0.30413369
  C  1.23486004  0.30145348 -0.32896805
  N  0.06805052  0.26674319 -0.17874617
  C -1.18280852 -0.04891618 -0.20007065
  C -2.15479686  0.86759540  0.40202272
  C -1.57037795  2.13328585  0.98495237
  O -3.34229473  0.63069424  0.45762885
  C -1.48731885 -1.35781227 -0.83832429
  C -2.92672843 -1.76583039 -0.87017892
  O -0.59150689 -2.03205563 -1.29920435
  H  5.29748624 -0.07741602 -1.58295431
  H  4.92879521  1.32602733 -0.52829921
  H  5.29665043 -0.26369978  0.19242900
  H -2.33366942  2.90811596  0.97910155
  H -1.30033116  1.93972572  2.02301032
  H -0.68634387  2.47344525  0.45420416
  H -3.00954324 -2.73046055 -1.36479567
  H -3.32154212 -1.82627311  0.14155360
  H -3.51762885 -1.01990025 -1.39696999
