17
opt_min/./Reactant_215_0_opt.xyz
  C -1.03346323 -0.23977770  1.13517431
  C -0.84262679  0.57726875 -0.10455446
  C -2.05908660  0.99112505 -0.88228218
  O  0.26911191  0.93679985 -0.63699469
  C  1.55035673  0.76735506 -0.37420378
  C  2.14607481 -0.01738662  0.76212536
  C  2.42134604  1.40909308 -1.24787565
  N  3.17627950  1.93679057 -1.94369064
  H -1.25114659 -1.28022411  0.87883070
  H -1.88481210  0.14103998  1.69636906
  H -0.16263428 -0.22326715  1.78087175
  H -2.91156307  1.11569400 -0.22135537
  H -1.86909144  1.92559694 -1.40524302
  H -2.31642357  0.23802482 -1.63009284
  H  3.21594944 -0.11070923  0.59335409
  H  1.72100776 -1.02015351  0.82552855
  H  2.00303049  0.49581649  1.71687046
