23
opt_min/./Reactant_4283_0_opt.xyz
  C  2.49747900  1.32344400  1.22774900
  N  1.28387408  0.64746410  0.83042415
  C  1.37657957 -0.51920843  0.08640943
  O  2.45985117 -0.91622160 -0.32376569
  C  0.15834903 -1.27893567 -0.08014958
  C  0.29343454 -2.76270622 -0.29848877
  O -1.10276450 -0.88197938 -0.02200903
  C -1.72090164  0.25567003 -0.09018996
  C -1.16352838  1.54406222 -0.60229613
  C -3.20429772  0.15315208  0.10084083
  H  3.02252333  0.79217789  2.02852337
  H  3.15660614  1.36495354  0.36246720
  H  2.25487957  2.33144267  1.55931460
  H  0.50334097  0.74236342  1.46211997
  H  1.25677685 -3.09886985  0.07173413
  H  0.23772506 -3.00602743 -1.36110244
  H -0.50714012 -3.29127788  0.21627903
  H -1.41201742  1.63907847 -1.66325950
  H -1.61700287  2.38689248 -0.08279927
  H -0.08397730  1.60183937 -0.51264096
  H -3.72703896  0.75133539 -0.64298383
  H -3.51977702 -0.88404320  0.01637252
  H -3.50177319  0.51665953  1.08690359
