30
opt_min/./Reactant_2544_0_opt.xyz
 Br -2.76251089  3.03583076 -0.10608227
  C -2.50130736  1.18057925  0.62163182
 Br -3.80531796  0.96393609  2.11575330
  C -1.16277915  0.97158656  1.05309475
  C -0.13846547  0.34762570  1.18081621
  C  0.80706489 -0.69756767  0.85731922
  C  2.10165237 -0.22728289  0.24537745
  C  2.23980625  1.05230038 -0.27289781
  C  3.42666858  1.44183469 -0.86885749
  C  4.48417074  0.55351944 -0.95809120
  C  4.35236762 -0.72628084 -0.44549524
  C  3.16762474 -1.11378136  0.15303887
  C -0.04594279 -1.49180796 -0.17065613
  C -1.40508705 -1.91540725  0.44589829
  C -2.69774228 -1.31976009 -0.14260848
  C -2.79096528  0.17642527 -0.49685653
  H  1.01594168 -1.31490034  1.73669518
  H  1.41594292  1.74834731 -0.20338277
  H  3.52400039  2.44181868 -1.26446919
  H  5.40971101  0.85740022 -1.42404938
  H  5.17479365 -1.42330517 -0.51002819
  H  3.07035363 -2.11185945  0.55758123
  H  0.50705632 -2.37412044 -0.49471409
  H -0.19968288 -0.84959763 -1.03784994
  H -1.45660516 -3.00110097  0.33945800
  H -1.38003643 -1.69738598  1.51313669
  H -3.49563326 -1.54365877  0.57006722
  H -2.93917528 -1.85368112 -1.06513710
  H -3.80844497  0.35342557 -0.85929507
  H -2.10949323  0.41294408 -1.31844924
