27
opt_min/./Reactant_3093_1_opt.xyz
  C -3.30291200 -0.06091900 -0.73694900
  N -2.07897457 -0.74658232 -0.39630963
  C -1.80034021 -1.07968193  0.88962270
  O -2.55851859 -0.85065519  1.81321927
  C -0.57626446 -1.88154679  1.10136984
  O  0.58125946 -1.85503078  0.52951362
  C  1.11360790 -1.08186602 -0.38037890
  C  2.47489752 -1.43153490 -0.85710436
  O  3.17987112 -0.64153539 -1.45051919
  N  2.86207828 -2.69267254 -0.54032222
  C  4.17484550 -3.18943711 -0.86619016
  C  0.56799655  0.23829862 -0.79616825
  O  0.51297279  0.66658842 -1.91595106
  O  0.19802182  0.93330135  0.29618785
  C -0.23067389  2.26496095  0.06003738
  H -3.63900252 -0.38164573 -1.71994458
  H -3.16706479  1.02362481 -0.73646470
  H -4.05100935 -0.30958522  0.01536889
  H -1.44810318 -0.97386488 -1.14744596
  H -0.62818433 -2.59574790  1.91192782
  H  2.25348171 -3.28856979 -0.00428043
  H  4.68991371 -2.40284094 -1.41507005
  H  4.10319413 -4.08070750 -1.49204439
  H  4.73779054 -3.42991737  0.03759203
  H -0.47616646  2.67448852  1.03598898
  H  0.56679428  2.83847047 -0.41473043
  H -1.10509863  2.27529622 -0.59329808
