36
opt_min/./Reactant_5945_1_opt.xyz
  C  3.58744100 -0.42432100  2.18218800
  C  3.70504730  0.38842366  0.89729210
  O  4.79225525  0.83080761  0.54273446
  C  2.50860841  0.61673363  0.13738756
  C  2.60347569  1.40096353 -1.12670752
  N  1.35873192  0.03005580  0.51874291
  C  0.10725930  0.14175057  0.06333250
  C -0.35068882  1.31721290 -0.66600778
  C -0.03127460  2.60210843 -0.21627045
  C -0.51266841  3.71761547 -0.87480682
  C -1.31813183  3.57696491 -1.99259854
  C -1.65068719  2.30824125 -2.44252613
  C -1.17845141  1.19070050 -1.78491251
  C -0.82499972 -0.90684803  0.42137628
  C -0.38001906 -2.20788603  0.70291244
  C -1.26947131 -3.19832671  1.06668197
  C -2.62594935 -2.92886739  1.14771659
  C -3.08419044 -1.65197989  0.85945445
  C -2.20122879 -0.65471292  0.50337118
  H  4.56952632 -0.46422852  2.64601888
  H  2.89201709  0.03965515  2.87926636
  H  3.26818194 -1.44632793  1.97665994
  H  1.98519899  0.94999102 -1.90207384
  H  2.28398889  2.43795276 -1.00633110
  H  3.64716024  1.40556923 -1.43318729
  H  1.47399541 -0.68432619  1.23404926
  H  0.56631910  2.72057577  0.67633759
  H -0.25932255  4.70330479 -0.51278705
  H -1.68969489  4.45076476 -2.50616963
  H -2.28284055  2.19133291 -3.31048758
  H -1.43340604  0.20312325 -2.14217257
  H  0.66742955 -2.45695684  0.59767793
  H -0.90349656 -4.19264950  1.27843182
  H -3.32024050 -3.70748330  1.42421016
  H -4.14047745 -1.43373159  0.91815165
  H -2.56529187  0.34179206  0.30281618
