33
opt_min/./Reactant_2510_0_opt.xyz
  C  2.31511823  3.00250931  2.08758055
  O  1.42286460  2.17021829  1.35542008
  C  1.88916828  1.00823917  0.91485358
  O  3.00369822  0.59986397  1.09180159
  C  0.78911281  0.22605758  0.19070805
  C  1.43975287 -0.60858306 -0.91206752
  O  1.36156233 -0.35299604 -2.08184956
  O  2.09187604 -1.64177690 -0.39618970
  C  2.83344860 -2.46835755 -1.28508507
  C -0.25805774  1.06516797 -0.33817976
  C -1.34677713  1.51431692 -0.56574401
  C -2.79596959  1.46943873 -0.51901916
  F -3.32235273  2.48886997  0.26129437
  C -3.36874594  1.55233490 -1.85545468
  N -3.84425220  1.59629382 -2.89216679
  C -3.13707054  0.10275456  0.14564614
  C -2.20158988 -1.05585182 -0.26168298
  C -1.09522045 -1.53464874  0.70365836
  C  0.03162718 -0.63042441  1.24087512
  H  2.77358742  3.72511462  1.41069460
  H  1.72006548  3.51965233  2.83759465
  H  3.09220324  2.39740173  2.55830819
  H  3.89362027 -2.23840492 -1.16882339
  H  2.64253799 -3.50297681 -1.00437898
  H  2.52352860 -2.28512954 -2.31563981
  H -3.12741522  0.24860550  1.22607103
  H -4.15603358 -0.16319988 -0.14037966
  H -1.77485430 -0.85143698 -1.24437699
  H -2.83895387 -1.93656746 -0.38794669
  H -0.61498371 -2.36540265  0.18014656
  H -1.58204592 -1.94399623  1.59252876
  H  0.75283165 -1.30165263  1.71587735
  H -0.35650386  0.05230933  1.99965126
