29
opt_min/./Reactant_4689_1_opt.xyz
  C  2.84280900 -3.62102400  0.62243200
  N  1.90890824 -2.58078357  0.27575482
  C  2.28983571 -1.30238360  0.10300510
  O  3.46010651 -0.93979520  0.21045132
  C  1.17991235 -0.35897556 -0.21192255
  O  0.02246131 -0.95905731 -0.17972175
  C -1.25946975 -0.78536016 -0.24073233
  C -1.98374638  0.49634547 -0.45717974
  C -1.93725165 -2.06494875 -0.00133969
  C -3.44040527 -2.06006767 -0.02297928
  O -1.28099446 -3.07427872  0.21862782
  C  1.41554707  1.05479843 -0.60235069
  O  0.54901654  1.73811174 -1.14070699
  N  2.64885519  1.51042075 -0.33166719
  C  3.08743506  2.81510593 -0.75353131
  H  2.79254600 -4.42923478 -0.10771063
  H  2.62061352 -4.02315660  1.61276032
  H  3.84265160 -3.19062878  0.62393474
  H  0.93136341 -2.83885172  0.20529899
  H -2.79632996  0.36277645 -1.16700275
  H -1.29459693  1.25020727 -0.83730044
  H -2.40964416  0.85478423  0.48028590
  H -3.80631141 -3.05265119  0.22252444
  H -3.82386120 -1.34051509  0.69637717
  H -3.79918843 -1.77806674 -1.00939156
  H  3.33263364  0.83048721 -0.00337736
  H  2.24609237  3.32249662 -1.22279338
  H  3.90757060  2.73312821 -1.46801321
  H  3.42445075  3.39412403  0.10768457
