28
opt_min/./Reactant_5649_1_opt.xyz
  O -1.16383400  2.94919000  0.73815100
  C -0.62606257  1.90401500  0.47721964
  O  0.79305995  1.78187294  0.43474266
  C  1.08618339  0.53302108  0.12605057
  C  2.41680377  0.03177254 -0.00856580
  C  3.51007732  0.88590939  0.19113500
  C  4.79241088  0.39681701  0.05992530
  C  5.00779176 -0.93407495 -0.26819383
  C  3.92782998 -1.78351720 -0.46686194
  C  2.63869870 -1.31182910 -0.33985817
  O  0.01096786 -0.19078542 -0.04185915
  C -1.07831890  0.59127953  0.15945503
  C -2.41160603  0.07490068  0.04466770
  C -2.63772108 -1.26658477 -0.28214166
  C -3.92795063 -1.74368825 -0.38768256
  C -5.00805173 -0.90190448 -0.17181168
  C -4.78866490  0.42885354  0.15242755
  C -3.50508206  0.92232283  0.26203842
  H  3.32869355  1.91782133  0.44567053
  H  5.63380297  1.05571527  0.21399623
  H  6.01447080 -1.30960036 -0.36913171
  H  4.09617373 -2.81890499 -0.72213449
  H  1.79411560 -1.96563820 -0.49265361
  H -1.79548782 -1.92113920 -0.45001932
  H -4.09657916 -2.78078328 -0.64039167
  H -6.01456684 -1.28247542 -0.25619842
  H -5.62831301  1.08730926  0.32123860
  H -3.32517337  1.95495483  0.51355371
