33
opt_min/./Reactant_2956_1_opt.xyz
  C -2.64506888  0.96151725  2.71110629
  O -1.36303459  1.14479873  2.14483037
  C -0.87588730  0.10195036  1.34785316
  O -0.90163498 -1.07045310  2.13716386
  C -0.09124352 -2.14889671  1.74093648
  C  0.44019171  0.48631731  0.86377279
  C  1.31358231  0.77661666  0.09601403
  C  2.08863059  0.86338655 -1.10626530
 Br  2.01136705  2.72596491 -1.78273243
  C  3.53592867  0.38408323 -0.94118888
  C  4.51437666  0.82492252 -1.98582577
  O  3.80925883 -0.35818172 -0.03566609
  C  1.35539124 -0.06212423 -2.10066789
  C -0.17288790  0.10232976 -2.19509870
  C -1.09722594 -0.68568197 -1.23379920
  C -1.70167761 -0.02424768  0.02286487
  H -3.43046515  0.97687307  1.94880394
  H -2.78151976  1.80523363  3.38437717
  H -2.69787124  0.02837630  3.27423654
  H  0.91681205 -1.81991778  1.47194551
  H -0.03823074 -2.80752160  2.60659971
  H -0.53294560 -2.69906402  0.90350125
  H  4.73562081  1.88361544 -1.85909626
  H  5.43507947  0.25678165 -1.87907289
  H  4.10236621  0.69057756 -2.98361892
  H  1.77317614  0.10940342 -3.09791150
  H  1.58925539 -1.09480280 -1.81810889
  H -0.44942142  1.15776886 -2.19335348
  H -0.40937566 -0.28968173 -3.18827349
  H -0.64634439 -1.64708124 -1.00339600
  H -1.98612988 -0.89262507 -1.84048758
  H -2.60622409 -0.57920153  0.28288842
  H -1.99842611  0.99506038 -0.24186322
