26
opt_min/./Reactant_2818_1_opt.xyz
  C  3.63783461 -0.28782928  0.22222572
  O  2.34047015  0.02586233 -0.27292216
  C  1.71458304  1.03931862  0.31585195
  O  2.15390889  1.68430571  1.22534592
  C  0.32973039  1.28995607 -0.31429212
  F  0.42615708  2.47710053 -1.01794623
  C -0.71115668  1.34635010  0.69877379
  C -1.78138865  1.03087261  1.14835438
  C -2.95846478  0.25000074  1.32289953
 Br -4.57498303  1.37239475  1.59123935
 Br -2.80957346 -0.97142503  2.87850297
  C -3.10766058 -0.54457591  0.01483462
  C -1.98829015 -1.54887212 -0.31166357
  C -0.51552072 -1.11283739 -0.45676002
  C -0.19861274  0.18203396 -1.24664388
  H  4.36382030  0.44044400 -0.14370304
  H  3.87631916 -1.27972980 -0.15299832
  H  3.64036219 -0.27307068  1.31344895
  H -3.21245126  0.18737957 -0.79057305
  H -4.04102173 -1.11399811  0.06629830
  H -2.29809908 -2.02370616 -1.24587636
  H -2.00552463 -2.32462106  0.45832098
  H  0.01341713 -1.91140663 -0.97917344
  H -0.07153930 -1.03284186  0.53606589
  H -1.10708818  0.54895102 -1.72798264
  H  0.52757189 -0.02635600 -2.03132140
