36
opt_min/./Reactant_2790_0_opt.xyz
  C  1.76194200  1.63173300 -3.43963100
  N  1.64696115  0.99899853 -2.14721009
  C  0.42731108  0.68479637 -1.63844466
  O -0.59880702  0.83106979 -2.29034023
  C  0.39510048  0.26512455 -0.22970336
  O -0.73446173  0.16409500  0.41971933
  C -1.96640670  0.05572856  0.00697841
  C -2.40944082 -0.34882791 -1.36668742
  O -3.33236665  0.11905889 -1.96552180
  O -1.73964965 -1.46709570 -1.71883088
  C -2.07387935 -2.01114334 -2.98716927
  C -2.98357069  0.18208679  1.05575331
  O -4.14767060 -0.10886892  0.94212066
  O -2.44173169  0.66476624  2.19797476
  C -3.34182344  0.80720884  3.28602942
  C  1.57223635  0.21603123  0.64443717
  C  2.76207662 -0.39582577  0.24025800
  C  3.84418988 -0.45401918  1.09944676
  C  3.75824444  0.08521741  2.37240087
  C  2.57223745  0.66680108  2.79336437
  C  1.48640152  0.72836954  1.94296569
  H  1.75968713  2.72211406 -3.35800949
  H  0.90441263  1.33022130 -4.03855109
  H  2.68372966  1.30740411 -3.91930122
  H  2.43461587  1.07402388 -1.52328820
  H -3.14177177 -1.88620153 -3.17410754
  H -1.80620834 -3.06507910 -2.95463185
  H -1.50979889 -1.49587713 -3.76684526
  H -3.98934522  1.67236137  3.12765564
  H -3.96514585 -0.08355384  3.38263740
  H -2.73000405  0.94915552  4.17359690
  H  2.82178133 -0.86815835 -0.72913670
  H  4.75631501 -0.93340938  0.77654682
  H  4.60714934  0.04116767  3.03752669
  H  2.49571883  1.07518330  3.78989873
  H  0.56157545  1.18058030  2.26732669
