22
opt_min/./Reactant_750_0_opt.xyz
  C -3.13774296 -2.40983806 -1.16612100
  C -2.05889960 -1.57302737 -0.75660218
  N -1.17080526 -0.90743067 -0.41518080
  C -0.15284658 -0.13273815 -0.13816893
  C  0.53916334  0.44534496 -1.31667021
  O  0.16147726  0.21899598 -2.45664135
  N  1.59274831  1.22564677 -1.00925954
  C  2.38277593  1.88453474 -2.01467078
  C  0.18473109  0.10211802  1.22831711
  O  1.10476574  0.79294423  1.63641620
  O -0.66229732 -0.55842578  2.07287289
  C -0.43093635 -0.41457428  3.46363083
  H -3.92406283 -1.82457317 -1.64554538
  H -2.78412274 -3.17694099 -1.85747065
  H -3.55134617 -2.90528572 -0.28586862
  H  1.83561295  1.32967098 -0.03079167
  H  1.93791105  1.66427360 -2.98446313
  H  3.41342443  1.52132019 -1.99868042
  H  2.38512331  2.96497956 -1.85185662
  H  0.40482811  0.26822226  3.62969515
  H -1.33757063 -0.01721329  3.92259552
  H -0.20317328 -1.39768770  3.87921362
