32
opt_min/./Reactant_2519_1_opt.xyz
  F  0.25379700 -0.42905800 -2.76636000
  C  0.37958230 -1.24298302 -1.69931271
  F -0.77040837 -1.92410695 -1.59505700
  F  1.31077220 -2.14294087 -2.03542940
  C  0.74063962 -0.46184912 -0.45463862
  C -0.22369962  0.14055972  0.24636217
  C -1.65611762  0.18979778 -0.11560641
  C -2.04855594  0.92955626 -1.22602332
  C -3.38597402  1.00546577 -1.56765044
  C -4.33264197  0.33942871 -0.80822688
  C -3.94402134 -0.39994200  0.29390834
  C -2.60914734 -0.47485215  0.64837802
  C  0.12705325  0.90828952  1.50431341
  F -0.90160801  1.00380940  2.35599908
  F  1.13381712  0.37528562  2.21228890
  F  0.48897166  2.17331345  1.21343442
  C  2.18864867 -0.38423406 -0.16402093
  C  2.83804550  0.83994417 -0.29926424
  C  4.19593292  0.92487328 -0.05079812
  C  4.90671106 -0.19665893  0.33430197
  C  4.26012254 -1.41366813  0.46982819
  C  2.90322803 -1.51321799  0.21660794
  H -1.30146626  1.44889663 -1.80729713
  H -3.68207711  1.58549586 -2.42818029
  H -5.37732152  0.39818968 -1.07978723
  H -4.67999660 -0.92397739  0.88537047
  H -2.29389622 -1.05634776  1.50088930
  H  2.28633500  1.71469270 -0.60623468
  H  4.69973488  1.87535781 -0.15879652
  H  5.96620960 -0.12847940  0.53047506
  H  4.80996475 -2.29205406  0.77332164
  H  2.39459448 -2.45771710  0.32903410
