39
opt_min/./Reactant_2573_1_opt.xyz
  N -0.49170498  2.51424401  2.30079000
  C -0.16675366  1.46903335  1.93764240
  C  0.20550710  0.17315053  1.57691108
  N -0.31158661 -0.40623651  0.46775175
  C -1.03252040  0.08926107 -0.53630845
  C -1.16734287  1.53715712 -0.72062780
  C -0.03829478  2.35420898 -0.77022121
  C -0.17039206  3.71209683 -0.98282477
  C -1.42594655  4.27416426 -1.13955932
  C -2.55228583  3.46966348 -1.09540397
  C -2.42725943  2.10880186 -0.89473479
  C -1.64222754 -0.82938868 -1.46865409
  C -1.90618814 -2.16622699 -1.12994086
  C -2.46822325 -3.03064735 -2.04707777
  C -2.78997412 -2.59265011 -3.32161940
  C -2.54679175 -1.27252522 -3.66815715
  C -1.98120871 -0.40170855 -2.76146852
  C  1.09051507 -0.57378344  2.44202662
  C  1.64240506 -1.80923073  2.07393375
  C  2.46921449 -2.49793613  2.93908683
  C  2.78191396 -1.97663847  4.18273870
  C  2.26045720 -0.74607732  4.55349583
  C  1.42885694 -0.05339259  3.70061978
  H -0.13084442 -1.40614484  0.41038293
  H  0.94457527  1.91834979 -0.65947084
  H  0.71019896  4.33568440 -1.02387540
  H -1.52517837  5.33800461 -1.29478378
  H -3.53364478  3.90451248 -1.21531968
  H -3.30496708  1.48047750 -0.85483739
  H -1.71304516 -2.52799524 -0.12872408
  H -2.66660139 -4.05403427 -1.76270642
  H -3.23193186 -3.27169615 -4.03457156
  H -2.79706023 -0.92225345 -4.65876327
  H -1.77830092  0.61891173 -3.04669533
  H  1.45255655 -2.23763357  1.09784869
  H  2.88065513 -3.44967135  2.63425680
  H  3.43136803 -2.51866131  4.85313630
  H  2.50547791 -0.32653838  5.51801684
  H  1.01881954  0.90072965  3.99581566
