36
opt_min/./Reactant_1135_1_opt.xyz
  C  2.29604900  3.24838900 -0.58277400
  C  0.84426802  2.87680490 -0.32411276
  O  0.01173085  3.77854357 -0.20903370
  C  0.57020677  1.47671538 -0.23609607
  C  1.69479414  0.51371902 -0.27683763
  C  1.85189378 -0.34111398 -1.36632602
  C  2.91255071 -1.22542461 -1.41844443
  C  3.83058340 -1.27355552 -0.38184883
  C  3.68027280 -0.43347040  0.70840194
  C  2.61998038  0.45284894  0.76210093
  N -0.67842336  0.94473016 -0.11465966
  C -1.82509197  1.82779635 -0.19897201
  C -0.86411792 -0.33695155  0.15922699
  C -2.08086057 -1.09749794  0.06072291
  C -3.07035623 -0.86622152 -0.90678750
  C -4.19132361 -1.66829199 -0.97516740
  C -4.35936257 -2.72272821 -0.09139880
  C -3.37455115 -2.98690620  0.84772589
  C -2.24768392 -2.19526180  0.91717197
  H  2.31260008  4.21357007 -1.08327054
  H  2.81651072  2.50871924 -1.18229795
  H  2.81406918  3.35715288  0.36860269
  H  1.13849784 -0.30333096 -2.17777440
  H  3.02605749 -1.87727621 -2.27222203
  H  4.65956790 -1.96398502 -0.42471577
  H  4.39103641 -0.47010153  1.52108587
  H  2.49993957  1.10488355  1.61508000
  H -2.72532293  1.29722286  0.09622772
  H -1.66229696  2.67720741  0.46459799
  H -1.92858281  2.23092246 -1.20580006
  H  0.01389319 -0.88910645  0.46395793
  H -2.93689622 -0.08438515 -1.63912456
  H -4.93912207 -1.47595267 -1.73088480
  H -5.24143800 -3.34224535 -0.14557661
  H -3.48636802 -3.81834405  1.52830097
  H -1.48231819 -2.40650284  1.64963870
