23
opt_min/./Reactant_527_1_opt.xyz
  C  1.34548702  3.70430599  0.25429707
  O  1.21252515  2.48307720  0.96346769
  C  0.78571746  1.42982426  0.22645745
  O  0.52331634  1.51407083 -0.95737936
  C  0.76160468  0.24104223  1.03365320
  N  0.53215587 -0.98583541  0.56540796
  C  1.00422796 -2.07304194  1.41168519
  C -0.07053949 -1.28487340 -0.58563196
  C -0.02563762 -2.59572830 -1.07550842
  N -0.03228110 -3.66945567 -1.49075472
  C -0.96397351 -0.38929850 -1.39097880
  C -1.99895322  0.36799936 -0.58628570
  O -0.98841496 -0.44334229 -2.59237903
  H  2.09813493  3.60979048 -0.53156546
  H  1.65169329  4.44684441  0.98659376
  H  0.39583396  3.98446748 -0.20627953
  H  1.15382029  0.32564352  2.03259192
  H  2.02375184 -1.87571198  1.73871154
  H  0.36020400 -2.15301084  2.28890856
  H  0.97621956 -3.01484596  0.86785874
  H -1.90891282  1.42950092 -0.80733931
  H -2.98044643  0.04509386 -0.93017636
  H -1.91174817  0.20806036  0.48389987
