27
opt_min/./Reactant_2475_1_opt.xyz
  C  1.31962135  1.48040712 -1.53255203
  O  1.73191956  0.17343072 -1.19662042
  C  1.15935748 -0.40722356 -0.04315301
  C  2.35243959 -0.90957912  0.80088665
  F  1.95716625 -1.43581082  1.97320506
  F  3.04677566 -1.86299467  0.17094510
  F  3.20701831  0.07688823  1.09037651
  C  0.29989915  0.44984198  0.74640790
  C -0.71242762  0.85926669  1.24417236
  C -2.11214814  1.02385343  1.50401105
 Cl -2.51550030  0.28378512  3.09219955
 Cl -2.61102131  2.73970118  1.53976819
  C -2.82679789  0.27202731  0.36947081
  C -2.28650547 -1.14948010  0.12009980
  C -1.15513336 -1.29624835 -0.92652333
  C  0.25289232 -1.62516120 -0.39947800
  H  1.88701927  1.73533375 -2.42533626
  H  1.55228313  2.19270835 -0.73446968
  H  0.24862010  1.52843706 -1.75028311
  H -3.88712566  0.22917661  0.62069588
  H -2.71609898  0.86757212 -0.53895051
  H -3.13910957 -1.72371859 -0.24887398
  H -1.98219605 -1.60570680  1.06160149
  H -1.41923461 -2.15052876 -1.55548182
  H -1.12781985 -0.42766924 -1.58271337
  H  0.80263671 -2.18142748 -1.16186847
  H  0.16118653 -2.25287980  0.48858164
