29
opt_min/./Reactant_4582_1_opt.xyz
  C  5.65060101 -0.43670501  0.46369803
  N  4.20854325 -0.39518867  0.41001041
  C  3.49320440 -1.44045497 -0.09938090
  O  3.97664818 -2.46870339 -0.53165676
  C  2.09263016 -1.20993361 -0.08532732
  N  0.92732238 -1.04577081 -0.09596351
  C -0.33996598 -0.84027626 -0.13307044
  C -1.21420018 -1.87752503 -0.66063964
  O -0.85057680 -2.95228296 -1.07879104
  O -2.50384678 -1.46786940 -0.61328444
  C -3.48155058 -2.37617556 -1.09598943
  C -0.87136166  0.44617294  0.38047011
  C -0.87352843  0.71613537  1.74292971
  C -1.38558550  1.91289731  2.21151428
  C -1.89900672  2.84444873  1.32475510
  C -1.89815131  2.57806313 -0.03393551
  C -1.38376504  1.38462360 -0.50757963
  H  6.00211391 -0.79317790  1.43573388
  H  5.99525451 -1.12932615 -0.30301523
  H  6.05848950  0.55434922  0.27479391
  H  3.73401132  0.41780749  0.76625017
  H -3.01512754 -3.33447434 -1.33209927
  H -3.94123156 -1.95742823 -1.99195583
  H -4.23562889 -2.50370172 -0.31969775
  H -0.47719616 -0.01439094  2.43401942
  H -1.38921311  2.11830554  3.27192968
  H -2.30100071  3.77647034  1.69542186
  H -2.29802075  3.30287263 -0.72821534
  H -1.38291563  1.17104453 -1.56609675
