7
opt_min/./Reactant_585_0_opt.xyz
  C -0.91213842 -0.01450645 -0.14099857
  N  44.41415219 -36.56202553 -43.73142856
  N  181.80107359  1.67551171  89.48873550
  N  68.77705326 -20.03491708  92.48194487
  H  28.05566561 -33.75788473  71.36311806
  H  28.38315351  20.57642860  86.45111648
  H  59.06488137 -35.29185100  27.51980756
