29
opt_min/./Reactant_2230_0_opt.xyz
  C -2.46049400 -3.21320400  1.14495800
  N -1.67718176 -2.01742324  0.96547025
  C -0.96122813 -1.80300808 -0.15459409
  O -0.89094073 -2.58774808 -1.08418391
  C -0.17662971 -0.52839794 -0.18531951
  O  0.52003127 -0.43318578 -1.30367758
  C  1.47163755  0.33573211 -1.69049155
  C  1.86827453  0.21138908 -3.12592199
  C  2.29907200  1.23882236 -0.85590336
  O  2.87164516  2.20777462 -1.29028908
  O  2.44058386  0.76972718  0.39280972
  C  3.29175671  1.49783082  1.26668091
  C -0.36090258  0.54680025  0.77050715
  O -0.89180162  0.42651021  1.86113678
  O  0.00145832  1.74997653  0.27414515
  C -0.28365923  2.87921651  1.08511779
  H -2.17751098 -3.91783700  0.36417119
  H -3.52956070 -3.00012952  1.05885258
  H -2.26338401 -3.64433333  2.12656661
  H -1.67826309 -1.30145618  1.68022086
  H  1.10251839 -0.32865612 -3.67478418
  H  2.81477040 -0.32262964 -3.22158245
  H  2.01022106  1.20637253 -3.54433202
  H  3.78248090  0.77155131  1.91159183
  H  2.69460980  2.18684860  1.86755802
  H  4.02657380  2.06273670  0.69010116
  H -0.03225045  2.66994463  2.12691631
  H  0.32194753  3.69365229  0.69297177
  H -1.34477053  3.12888746  1.02058122
