31
opt_min/./Reactant_1888_0_opt.xyz
  C -2.75283295  1.11966017  0.18813330
  C -2.46062675  0.00823554 -0.78088512
  O -3.18906374 -0.29127118 -1.68407554
  C -1.15416165 -0.77438182 -0.53727211
  C -1.54110512 -2.24952694 -0.28312596
  C -0.78283755 -2.90640052  0.83548489
  O -2.36017683 -2.81049212 -0.95241498
  C -0.32343278 -0.18921948  0.46542010
  C  0.59210194  0.34431232  1.03025513
  C  1.63238164  1.34656417  1.11262234
  F  2.89752897  0.78309846  1.18796069
  C  1.41694676  2.22351180  2.25589171
  N  1.20128157  2.90812097  3.14422273
  C  1.50995520  2.15239378 -0.20658094
  C  1.51821909  1.37477082 -1.54245125
  C  0.30842960  0.66788174 -2.21554833
  C -0.26380657 -0.70499964 -1.80694642
  H -3.54396015  1.74917090 -0.21126892
  H -3.09338969  0.68635192  1.12825676
  H -1.86419562  1.70925489  0.39502215
  H -0.76771416 -2.27734427  1.72179086
  H -1.22858989 -3.87103105  1.06400344
  H  0.24766528 -3.05856869  0.51636690
  H  2.38651453  2.80747275 -0.23555226
  H  0.62550249  2.79104916 -0.14515330
  H  2.37451668  0.69663777 -1.55187273
  H  1.74336815  2.16926761 -2.26242738
  H -0.50540018  1.38383868 -2.34658363
  H  0.70444944  0.45868653 -3.21477177
  H  0.56464664 -1.41029834 -1.70200834
  H -0.88751149 -1.04997009 -2.63681994
