40
opt_min/./Reactant_2587_0_opt.xyz
  C -3.56550980  1.98930211  0.43745160
  C -2.39232409  1.11617941  0.08264578
  O -1.63326173  1.38137978 -0.81336430
  C -2.22931275 -0.13598027  0.95607189
  C -3.48431707 -1.01609314  0.86122294
  C -3.84508781 -1.41492189 -0.54532324
  O -4.09030058 -1.38927594  1.83030755
  C -1.12715839 -0.95688547  0.38504696
  C  0.01501915 -1.27879504  0.12206904
  C  1.46055782 -1.14612214  0.40107404
  F  1.96772834 -2.36165177  0.82595062
  C  2.21764095 -0.66482549 -0.81638081
  C  1.64683655  0.29077571 -1.65041131
  C  2.35510365  0.76514321 -2.73927382
  C  3.63043037  0.29370375 -3.00371665
  C  4.19873014 -0.65543322 -2.17300406
  C  3.49740752 -1.13197212 -1.07923355
  C  1.69904386 -0.10152596  1.62969270
  C  0.28037465  0.23825387  2.05817430
  C -0.70173964  1.01541273  2.92392629
  C -2.02785083  0.31100564  2.47163428
  H -3.24566468  2.72544754  1.17425245
  H -4.38884003  1.41325799  0.85048376
  H -3.88951328  2.53111292 -0.44867745
  H -3.71777621 -2.49236274 -0.64594448
  H -4.89881585 -1.19854623 -0.71634518
  H -3.23361571 -0.91196180 -1.28809479
  H  0.65198271  0.65845590 -1.45117668
  H  1.90743770  1.50542546 -3.38545858
  H  4.18063677  0.66412986 -3.85618289
  H  5.19290231 -1.02689717 -2.37409749
  H  3.93865769 -1.87483097 -0.43174869
  H  2.27713879 -0.63721872  2.38175669
  H  2.27452475  0.74597039  1.26093560
  H -0.07691956 -0.77233243  2.26132430
  H -0.06654771  0.61823462  1.10064023
  H -0.71912075  2.08383279  2.70862909
  H -0.58644919  0.87550926  3.99934119
  H -2.12987204 -0.60782027  3.05261257
  H -2.88611375  0.93655706  2.71659053
