30
opt_min/./Reactant_1607_0_opt.xyz
  C  2.92159342  0.58731775 -2.77410091
  N  2.12542714  0.03805627 -1.70447226
  C  2.44925734 -1.14396751 -1.15827409
  O  3.33732608 -1.86090927 -1.59241741
  C  1.61649029 -1.67694074 -0.04507667
  C  2.10042044 -2.91003962  0.44773697
  N  2.45659363 -3.90398828  0.90093362
  N  0.43124109 -1.33197559  0.46499996
  C -0.34119713 -0.22055990  0.45789516
  C  0.28691139  1.10944365  0.63499293
  O  1.50746603  1.24631748  0.57447478
  N -0.55014995  2.11868597  0.91401479
  C -0.06936603  3.44981400  1.18029645
  C -1.78792585 -0.41536409  0.57413330
  O -2.59012896  0.47449252  0.84918216
  N -2.24805768 -1.66341227  0.27553997
  C -3.66925085 -1.93428990  0.33356189
  H  3.16455818 -0.20472539 -3.48271888
  H  3.85840312  0.99532050 -2.38579268
  H  2.36144894  1.37508822 -3.27057865
  H  1.42842650  0.62182987 -1.26996423
  H -0.02022073 -2.09817929  0.97900742
  H -1.53297906  1.90097926  1.07443531
  H  0.94870638  3.53152352  0.80124743
  H -0.06094662  3.65813497  2.25354438
  H -0.71272263  4.17514039  0.68389413
  H -1.66405067 -2.36883096 -0.13967473
  H -4.01855378 -1.85113438  1.36435023
  H -4.21774808 -1.20403058 -0.26449917
  H -3.86098586 -2.93502115 -0.04050412
