35
opt_min/./Reactant_3189_0_opt.xyz
  C  5.15674980  0.00666903  1.02458728
  N  3.78312832 -0.26744210  0.69134657
  C  3.42072897 -1.37623228 -0.00892644
  O  4.21740888 -2.21473978 -0.38578000
  C  1.97193993 -1.48750022 -0.26068406
  C  1.48761923 -2.60688972 -0.93467757
  N  1.08972978 -3.51402166 -1.52394619
  O  1.21377281 -0.46083312  0.12751131
  C -0.08043440 -0.31394593  0.08902054
  C -0.55536769  1.01950545  0.41357161
  C -1.88036732  1.23091503  0.81235846
  C -2.31855107  2.50111288  1.12679951
  C -1.45126535  3.58122674  1.05528752
  C -0.13639766  3.38413406  0.66174760
  C  0.31066970  2.11882063  0.34192169
  C -1.02355942 -1.38220993 -0.23113933
  C -2.02666388 -1.16926341 -1.17961062
  C -2.92981257 -2.17107700 -1.47344219
  C -2.85726216 -3.39041053 -0.81798473
  C -1.87943747 -3.60290834  0.13913584
  C -0.96360261 -2.61078164  0.43112254
  H  5.47265533  0.96662102  0.61152281
  H  5.75843452 -0.78997836  0.58976905
  H  5.30117863  0.01616795  2.10708013
  H  3.08099449  0.38277805  1.00163257
  H -2.55306879  0.38994360  0.88474314
  H -3.34216232  2.65082452  1.43545727
  H -1.79955108  4.57200726  1.30193348
  H  0.54048293  4.22285130  0.59663611
  H  1.32772175  1.97375778  0.00675248
  H -2.07477144 -0.22106845 -1.69434957
  H -3.69078894 -2.00069966 -2.21940423
  H -3.56319188 -4.17168825 -1.05447876
  H -1.82264314 -4.54794239  0.65603789
  H -0.21647458 -2.78205724  1.19225165
