13
opt_min/./Reactant_3478_1_opt.xyz
  C  2.17386077  0.13308509 -0.39055764
  N  0.81947819  0.24158137  0.09423788
  C -0.22798476 -0.18479676 -0.63520718
  O -0.14724168 -0.67177730 -1.74062545
  C -1.55076541 -0.02613352  0.06271748
  C -1.60205491  0.50722956  1.35359440
  N -1.55828119  0.94984948  2.41271243
  N -2.61087996 -0.40738811 -0.52966147
  N -3.51203314 -0.71843897 -1.12074431
  H  2.15185355 -0.38063913 -1.35049654
  H  2.78004158 -0.43748728  0.31721558
  H  2.61307687  1.12348896 -0.52299825
  H  0.67827050  0.59637498  1.02828904
