23
opt_min/./Reactant_2215_0_opt.xyz
  C -1.93682149 -0.26061192 -1.70330917
  N -1.28130070  0.03840832 -0.44100950
  C -1.69042404  1.11317194  0.23508878
  C -2.61971791  2.00642644 -0.26059286
  N -3.39228889  2.77411347 -0.64276337
  C -0.36241614 -0.83445399 -0.00741021
  C -0.18446510 -2.03160998 -0.69815756
  N -0.00798457 -3.03555575 -1.23653254
  C  0.49374636 -0.62746843  1.16622059
  C  1.12326303  0.59807490  1.40760062
  C  1.95623841  0.75020166  2.49794339
  C  2.17999309 -0.31251055  3.36069099
  C  1.58191733 -1.53613790  3.11259976
  C  0.74839797 -1.69870942  2.02190782
  H -1.21918654 -0.66143742 -2.41725182
  H -2.39412240  0.64115543 -2.10607471
  H -2.71788299 -1.00714592 -1.54567897
  H -1.29864155  1.28856750  1.22444956
  H  0.98756563  1.41955011  0.71873955
  H  2.43815557  1.70031932  2.67239258
  H  2.82627676 -0.18883889  4.21553338
  H  1.76482506 -2.37115195  3.77222134
  H  0.28340956 -2.65409901  1.82643019
