33
opt_min/./Reactant_4959_1_opt.xyz
  C -0.03399268  3.05330196 -0.36232226
  O  0.61033091  1.80064206 -0.21778452
  C  0.38256324  0.89833947 -1.21172837
  O -0.29338670  1.17367304 -2.17573083
  C  1.12737280 -0.33484301 -0.98438985
  C  1.48079981 -1.23134504 -2.07180097
  C  1.11874832 -0.79555893 -3.46542763
  O  2.01106963 -2.32057217 -1.88676850
  N  1.43748288 -0.67581175  0.30860562
  C  2.70141745 -1.33610015  0.55406737
  C  0.62847351 -0.44117279  1.33317966
  C  1.08784828 -0.57551669  2.65220711
  N  1.41631015 -0.65558054  3.75211781
  C -0.78027096 -0.05582511  1.20050435
  C -1.59954644 -0.66180047  0.24599137
  C -2.93288600 -0.31710549  0.16085873
  C -3.46725345  0.63622696  1.01541554
  C -2.66398094  1.22670936  1.97621837
  C -1.32919334  0.87799896  2.07741358
  H  0.46788729  3.73422395  0.32135754
  H -1.09134147  2.96472248 -0.10047719
  H  0.04842457  3.40615122 -1.39208526
  H  1.49135277 -1.53817133 -4.16720906
  H  1.55008405  0.17777181 -3.68581568
  H  0.04010560 -0.70224978 -3.56697584
  H  2.70140814 -2.29243980  0.02255553
  H  3.51523226 -0.73088644  0.15469632
  H  2.84656731 -1.50159302  1.61934376
  H -1.19433233 -1.41200933 -0.41752036
  H -3.55897578 -0.79186911 -0.57929071
  H -4.50742749  0.91233853  0.93211636
  H -3.07805097  1.96226625  2.64972109
  H -0.70267674  1.34272477  2.82470717
