26
opt_min/./Reactant_5884_1_opt.xyz
  C  3.20758139 -0.75448121 -1.88892762
  N  2.28011193 -0.34877597 -0.85820514
  C  1.00376315 -0.78457833 -0.83047622
  O  0.50069552 -1.46772486 -1.69732483
  C  0.20718465 -0.30401331  0.35537009
  O  0.51066193 -0.60647334  1.57900286
  C  1.48447416 -1.38028064  2.05757625
  C  1.54734557 -1.51608673  3.45329758
  N  1.63287415 -1.60242595  4.59660214
  C  2.47108261 -2.05841884  1.33588147
  N  3.30248444 -2.64875647  0.79934933
  C -0.98885890  0.47836252  0.15094288
  C -1.31422632  0.95555285 -1.12678726
  C -2.46294744  1.69644857 -1.31427154
  C -3.29723790  1.98244183 -0.24364434
  C -2.98089364  1.52063413  1.02564233
  C -1.83785202  0.77545464  1.22768731
  H  2.63820011 -1.27489249 -2.65625691
  H  3.69850832  0.11737945 -2.31984551
  H  3.95392659 -1.43269092 -1.47240667
  H  2.65255670  0.22046670 -0.11373077
  H -0.67075806  0.73223189 -1.96233684
  H -2.70994566  2.05640277 -2.30114717
  H -4.19419232  2.56258873 -0.39792371
  H -3.62962906  1.73851499  1.86013012
  H -1.59992079  0.41141286  2.21560592
