30
opt_min/./Reactant_1802_0_opt.xyz
  C  3.77573800  0.47104100  0.85889700
  N  2.47972522  0.53590164  0.23115911
  C  2.30236415  0.36865991 -1.09212459
  O  3.19388850  0.10918815 -1.87116416
  C  0.82776274  0.49211263 -1.54187336
  N  0.08090881 -0.75822836 -1.41344197
  C  0.87953581 -1.96856363 -1.40513144
  C -0.82444640 -0.53041897 -0.31823350
  C -1.81364911 -1.37452920  0.25949654
  C -2.03453266 -2.76415519 -0.27676896
  O -2.51475709 -0.93915252  1.18498187
  C -0.76633149  0.80953342 -0.01280554
  O  0.14996542  1.47294553 -0.76862488
  N -1.45388894  1.46920530  0.92313054
  C -1.54667777  2.90713818  0.96528492
  H  4.04427734  1.43464934  1.29515658
  H  4.49764129  0.20599219  0.08828611
  H  3.78389975 -0.29129768  1.64002117
  H  1.69282580  0.80609423  0.80056383
  H  0.82915537  0.81994714 -2.59564189
  H  1.64257305 -1.87878430 -2.17699554
  H  0.24303864 -2.81120988 -1.65600722
  H  1.37444366 -2.15317782 -0.44250827
  H -1.21729403 -3.42269342  0.00848289
  H -2.95772337 -3.15145754  0.14815124
  H -2.10941953 -2.74084077 -1.36137256
  H -2.19983130  0.88977290  1.32394589
  H -1.68686007  3.22050655  1.99903217
  H -0.62547718  3.33570882  0.57634862
  H -2.38621940  3.27330797  0.36632173
