16
opt_min/./Reactant_1225_1_opt.xyz
  C -2.77531400  0.29959200  0.72527500
  N -1.42664811  0.20907269  0.22908396
  O -1.35024547 -0.72209141 -0.70738454
  C -0.26598270 -1.07310343 -1.30118781
  C  1.11808065 -0.65372070 -1.03144511
  O  2.04450511 -1.09008410 -1.69664208
  N  1.27090760  0.20287842  0.00216087
  C  2.58552853  0.65716032  0.39025613
  H -3.12533783  1.32746250  0.60350853
  H -3.44512892 -0.39048603  0.21396520
  H -2.77461440  0.07616517  1.79819396
  H -0.42181110 -1.81828045 -2.06805382
  H  0.46488044  0.55115138  0.50854359
  H  3.30279150 -0.14500493  0.21292173
  H  2.57969897  0.92953881  1.44395463
  H  2.89444564  1.52554947 -0.19962726
