18
opt_min/./Reactant_1277_1_opt.xyz
  C  2.73388100 -0.12135900  0.46716800
  C  1.64473565 -0.45187682 -0.52765962
  O  1.87608212 -0.79250084 -1.66511102
  C  0.27228234 -0.31290248 -0.02652597
  C -0.24423756  0.25053173  1.06819429
  C -1.75891270  0.11012542  0.90915079
  C -2.11111761  1.08792615 -0.22846662
  C -1.61124092  0.52656427 -1.31589820
  C -0.96828689 -0.77715434 -0.82546755
  O -1.84180252 -1.12955776  0.23180588
  H  3.64026905 -0.65295132  0.19263591
  H  2.44775146 -0.36109861  1.48294587
  H  2.93839340  0.94668493  0.40307734
  H  0.24355508  0.75424179  1.87881400
  H -2.36981971  0.12924092  1.80779203
  H -2.62894795  2.01340721 -0.09492508
  H -1.60389495  0.87125182 -2.32782100
  H -0.82288012 -1.58140523 -1.53922128
