24
opt_min/./Reactant_464_1_opt.xyz
  C  0.44023000  2.47132300 -0.58537300
  O -0.01956989  1.32244137 -1.27681813
  C -0.64795637  0.39406549 -0.45343911
  C -2.10004708  0.50898754 -0.23321205
  C -2.78251115  1.61995421 -0.99547986
  O -2.70272505 -0.22945789  0.51391524
  C  0.10536940 -0.59365359  0.10324001
  O -0.44086091 -1.51371328  0.89565649
  C  0.38750220 -2.50302502  1.47132956
  C  1.60047449 -0.61506050 -0.15673376
  C  1.98634929 -0.86506533 -1.58053545
  O  2.38421641 -0.41172314  0.73667619
  H  0.80147062  3.15720792 -1.35127430
  H  1.25996101  2.21441853  0.09461437
  H -0.35682824  2.94866972 -0.01148047
  H -2.24644617  1.86179763 -1.90779409
  H -3.80283062  1.31868007 -1.22248382
  H -2.82973759  2.50675024 -0.36408090
  H -0.29452377 -3.18753792  1.97409036
  H  0.95953899 -3.04438255  0.71205769
  H  1.07661461 -2.07148024  2.20100356
  H  1.43000815 -1.70379412 -1.99175166
  H  3.05796253 -1.03570390 -1.65429109
  H  1.71592750  0.01819511 -2.15859655
