35
opt_min/./Reactant_3149_1_opt.xyz
  N  1.65182665  2.50302274  3.54238300
  C  1.51522049  2.06885479  2.49583396
  C  1.32562659  1.48546330  1.17889815
  C  1.08609565  2.55567546  0.21713212
  N  0.89107597  3.36239535 -0.56655101
  C  0.09498425  0.64449971  1.14443717
  C -0.65450517 -0.19437149  0.68544028
  C -0.94296341 -1.28553724 -0.26851965
  C -2.09360045 -0.88576282 -1.17309116
  C -1.97977576  0.32316184 -1.85518176
  C -2.98431685  0.75107102 -2.70141553
  C -4.11954246 -0.02166643 -2.87745947
  C -4.23917143 -1.22153055 -2.20158211
  C -3.23415907 -1.65561564 -1.35139521
  C -1.20312278 -2.54658128  0.55768822
  F -0.15617154 -2.81007450  1.36428830
  F -1.37515870 -3.64699074 -0.19300504
  F -2.27034568 -2.45834107  1.36278069
  C  0.38810304 -1.58103160 -1.17039551
  C  1.41272627 -0.62972613 -0.57307619
  C  2.82321174 -0.05893366 -0.54080228
  C  2.71706089  0.77475129  0.78668550
  H -1.10463373  0.94018960 -1.71673840
  H -2.87921524  1.69066523 -3.22226734
  H -4.90713433  0.31298034 -3.53588309
  H -5.12087144 -1.83086987 -2.33009549
  H -3.36287722 -2.59740277 -0.84454383
  H  0.13839262 -1.39161103 -2.21122646
  H  0.65721564 -2.62938489 -1.04752981
  H  1.35788467 -0.96944496  0.46263521
  H  0.88853773  0.30781496 -0.75065245
  H  3.61391932 -0.79938120 -0.41846822
  H  3.05894921  0.57593808 -1.39444225
  H  3.45097734  1.58511676  0.77982455
  H  2.94706629  0.11411599  1.62528459
