35
opt_min/./Reactant_5215_1_opt.xyz
  C  5.15674980  0.00666903  1.02458728
  N  3.78312831 -0.26744211  0.69134657
  C  3.42072897 -1.37623225 -0.00892649
  O  4.21740888 -2.21473971 -0.38578011
  C  1.97193992 -1.48750018 -0.26068413
  C  1.48761924 -2.60688964 -0.93467769
  N  1.08972980 -3.51402155 -1.52394635
  O  1.21377280 -0.46083311  0.12751129
  C -0.08043442 -0.31394593  0.08902050
  C -0.55536772  1.01950545  0.41357156
  C -1.88036733  1.23091502  0.81235846
  C -2.31855109  2.50111287  1.12679948
  C -1.45126539  3.58122674  1.05528745
  C -0.13639771  3.38413406  0.66174751
  C  0.31066966  2.11882064  0.34192161
  C -1.02355944 -1.38220993 -0.23113935
  C -2.02666397 -1.16926340 -1.17961055
  C -2.92981268 -2.17107698 -1.47344210
  C -2.85726223 -3.39041053 -0.81798466
  C -1.87943747 -3.60290837  0.13913583
  C -0.96360258 -2.61078167  0.43112248
  H  5.47265533  0.96662104  0.61152285
  H  5.75843452 -0.78997834  0.58976901
  H  5.30117864  0.01616790  2.10708013
  H  3.08099448  0.38277802  1.00163259
  H -2.55306879  0.38994357  0.88474317
  H -3.34216234  2.65082451  1.43545725
  H -1.79955113  4.57200726  1.30193339
  H  0.54048286  4.22285132  0.59663596
  H  1.32772170  1.97375780  0.00675236
  H -2.07477158 -0.22106843 -1.69434947
  H -3.69078910 -2.00069962 -2.21940408
  H -3.56319195 -4.17168825 -1.05447867
  H -1.82264311 -4.54794243  0.65603784
  H -0.21647449 -2.78205730  1.19225153
