27
opt_min/./Reactant_1322_0_opt.xyz
  C -2.73012518  2.40828040 -2.52505131
  O -2.22329313  1.29148094 -1.81287224
  C -3.07121556  0.25077977 -1.62042972
  O -4.21163290  0.22292223 -2.01720301
  C -2.41562209 -0.81838079 -0.87422002
  C -3.16479434 -1.94895923 -0.54235756
  N -3.81370338 -2.85163956 -0.23863836
  O -1.14792832 -0.57371149 -0.54500868
  C -0.24271312 -1.25183617  0.06676864
  C -0.44484635 -2.63688840  0.58380537
  C  1.02432132 -0.56363610  0.23185949
  C  2.06358898 -1.11469062  0.99175926
  C  3.25803112 -0.43755439  1.13794477
  C  3.44617790  0.79589527  0.53445966
  C  2.42316303  1.35520344 -0.21734457
  C  1.22583524  0.68903804 -0.36834764
  H -3.77265778  2.23151308 -2.79632143
  H -2.12799957  2.54839681 -3.42359106
  H -2.65374628  3.28812720 -1.88509598
  H -1.34200801 -3.08159406  0.16337425
  H -0.54764000 -2.63101844  1.66968341
  H  0.40846747 -3.26129982  0.32663114
  H  1.93577776 -2.06791855  1.47906514
  H  4.04856057 -0.87527969  1.72896778
  H  4.38306932  1.31877525  0.65089784
  H  2.56324598  2.31681522 -0.68792188
  H  0.43140286  1.12599807 -0.95393398
