26
opt_min/./Reactant_2230_1_opt.xyz
  C -2.20930087  0.04429025 -1.28409530
  C -1.30211153 -0.06896096 -0.05821267
  C -2.14260395 -0.14493182  1.21949926
  C -0.38241991  1.04924173  0.00106983
  C  0.68287708  1.60060369  0.07148266
  C  2.11377671  1.73953849  0.00638674
  F  2.52800786  2.78757895 -0.78000434
 Cl  2.81621853  2.02846545  1.63586348
  C  2.62306163  0.42624982 -0.60368135
  C  2.30030627 -0.86685066  0.17277801
  C  0.90792114 -1.20234566  0.74871599
  C -0.32822831 -1.27673949 -0.17840310
  H -2.84794827 -0.83461436 -1.35771801
  H -1.61680075  0.12078992 -2.19422594
  H -2.83868615  0.92724345 -1.20834342
  H -2.82330876  0.70116780  1.27200382
  H -1.50641086 -0.12811831  2.10135712
  H -2.72648662 -1.06412065  1.23161567
  H  2.21932969  0.37717545 -1.61882057
  H  3.71323486  0.47590242 -0.67856236
  H  2.96623801 -0.88195272  1.04069257
  H  2.59956882 -1.68420937 -0.48972651
  H  0.69894257 -0.53968970  1.58681963
  H  1.04040510 -2.20004874  1.17850375
  H -0.00204750 -1.38097701 -1.21333237
  H -0.88539774 -2.18106908  0.07347870
