16
opt_min/./Reactant_1743_0_opt.xyz
  C  2.15590801  1.20639799  0.93675798
  O  0.95406435  0.65881839  0.41060237
  C  0.60803608 -0.53822054  0.89050343
  O  1.25898090 -1.14593476  1.70541201
  C -0.64544802 -1.07488474  0.32183154
  N -0.99840412 -2.21807819  0.77761153
  N -1.34123737 -3.21380374  1.15215574
  C -1.54707925 -0.46640942 -0.69279275
  C -1.14906632  0.86040053 -1.27056828
  O -2.55777259 -1.03627523 -1.03117175
  H  2.92616091  0.43854619  1.01124267
  H  2.46113920  1.98567299  0.24441858
  H  1.97786844  1.62832247  1.92712235
  H -1.89526221  1.14963385 -2.00250581
  H -1.08838317  1.61725814 -0.49612499
  H -0.17290794  0.79667444 -1.73970434
