42
opt_min/./Reactant_2681_0_opt.xyz
  C  3.40165492  1.74749969 -2.95148511
  N  2.70764046  1.21042637 -1.80368752
  C  1.53332987  0.54405633 -1.93459743
  O  1.03035932  0.32866696 -3.00849027
  C  0.91012987  0.03265008 -0.61375424
  C  1.63226702 -1.29315303 -0.28386921
  O  1.12808551 -2.37132674 -0.47051004
  N  2.87825353 -1.14748894  0.22742096
  C  3.71572897 -2.28937218  0.51109976
  C -0.50014133 -0.23149779 -0.83624481
  C -1.67927427 -0.22706218 -0.61990126
  C -2.89413722  0.21119939  0.05688037
  C -3.65372954 -0.95384829  0.70735340
  C -5.03197814 -0.69011142  1.24473973
  O -3.10325361 -2.00929350  0.87117562
  C -3.69527226  1.12547550 -0.88982417
  F -3.34016357  0.96917600 -2.16681885
  F -5.02677487  0.94531268 -0.86793875
  F -3.52151230  2.43321413 -0.61459790
  C -2.24683209  1.03969199  1.24108529
  C -1.18207594  0.21746934  2.00405020
  C  0.28938910  0.65691962  1.87782410
  C  0.89589011  1.08265649  0.52561819
  H  3.05062756  1.21242011 -3.83192186
  H  3.18856213  2.81214727 -3.08066112
  H  4.47555809  1.60627342 -2.83609094
  H  3.05959481  1.47471387 -0.89969087
  H  3.28469537 -0.23815948  0.36128995
  H  4.23079059 -2.14945850  1.46107875
  H  4.45161544 -2.44341293 -0.28224737
  H  3.07354511 -3.16666306  0.56756673
  H -5.22777445 -1.38842679  2.05469552
  H -5.16032595  0.33335082  1.58628509
  H -5.76264988 -0.87492608  0.45821804
  H -1.76810911  1.90452477  0.78317493
  H -3.02831466  1.38377126  1.91858937
  H -1.25799921 -0.81984676  1.67643548
  H -1.47256479  0.24147424  3.05582889
  H  0.44408962  1.50368198  2.55447852
  H  0.88563804 -0.16796652  2.27679890
  H  0.37825390  1.96941845  0.15174409
  H  1.91461596  1.40621097  0.76269840
