26
opt_min/./Reactant_1233_0_opt.xyz
  C -0.73355061 -1.34713483  3.53902514
  N -0.19237038 -0.63697815  2.40908887
  C -0.76318495 -0.70525805  1.20156489
  O -1.79750787 -1.32489877  0.97267810
  C -0.03501048 -0.03283303  0.09220926
  C  1.26212301  0.56857115  0.26914244
  O  1.91876757  0.54307287  1.29777850
  O  1.67575959  1.26939783 -0.81296183
  C  2.89722175  1.97417340 -0.65097469
  N -0.60561613 -0.13069954 -1.13612344
  C  0.19713072 -0.37442832 -2.32101239
  C -1.93008676 -0.12459067 -1.28307573
  C -2.56070935 -0.53792098 -2.46652042
  N -3.10874400 -0.86282817 -3.42302707
  C -2.81337962  0.42079012 -0.32429042
  N -3.56138215  0.96037761  0.35742203
  H -0.19751256 -2.28364895  3.71466096
  H -0.65398216 -0.72193255  4.42709005
  H -1.77881521 -1.57149301  3.33349369
  H  0.72892511 -0.21354951  2.47589571
  H  3.06953150  2.49212925 -1.59062911
  H  2.81855533  2.68690983  0.17163511
  H  3.71256422  1.28062490 -0.43674204
  H  0.39949603  0.56080845 -2.84328231
  H -0.34479656 -1.03920112 -2.99443553
  H  1.13966573 -0.83594141 -2.03725843
