15
opt_min/./Reactant_1108_0_opt.xyz
  C -2.12074246  1.27950392 -0.93872692
  N -0.90620225  0.60284152 -0.54887006
  C -0.89052068 -0.73161476 -0.36505000
  O -1.85333246 -1.45881737 -0.48733268
  C  0.44666508 -1.30617480  0.02452521
  C  0.49547096 -2.70327860  0.23576466
  N  0.52300068 -3.83642922  0.40681173
  O  1.57662860 -0.69801039  0.16941876
  N  1.69178679  0.61906421  0.02896626
  C  2.86361931  1.16512172  0.20416568
  N  3.82619088  1.79013829  0.29990716
  H -2.11597064  1.49617065 -2.01083063
  H -2.21414683  2.21312885 -0.38500930
  H -2.96598594  0.62689681 -0.71965456
  H -0.06630993  1.16448861 -0.43719702
