21
opt_min/./Reactant_3976_0_opt.xyz
  C -1.52383900 -1.77306700 -0.48350100
  N -1.36259912 -0.37326249 -0.17558329
  C -2.50476673  0.45139007  0.06952032
  C  0.01835342 -0.10929300 -0.12608326
  C  0.66148915 -1.27993253 -0.38907013
  C  2.10427706 -1.59570120 -0.45785382
  O -0.22503374 -2.29605710 -0.61567323
  C  0.71870182  1.12585648  0.17287689
  C -0.07207076  2.34794651  0.57599754
  O  1.93806287  1.16976720  0.10855854
  H -2.08331255 -1.92201340 -1.43174424
  H -2.06080751 -2.32197335  0.31420916
  H -2.65767106  0.64853830  1.13904488
  H -3.38121283 -0.07550021 -0.30738917
  H -2.42828271  1.40265258 -0.45865221
  H  2.23154312 -2.64975494 -0.68736372
  H  2.58639964 -1.35228510  0.48818323
  H  2.58395382 -0.98087980 -1.21836474
  H -0.58014425  2.75697442 -0.29476661
  H  0.62315292  3.09363390  0.95520275
  H -0.80313116  2.10608443  1.34016742
