24
opt_min/./Reactant_2416_1_opt.xyz
  C  3.60610100  0.71727300 -0.84855800
  N  2.36982329  0.08564012 -0.46243692
  C  1.21291721  0.78717701 -0.33139473
  O  1.17750067  1.98707547 -0.56165552
  C  0.05848373 -0.01530361  0.07501710
  C -1.27782241  0.19896849  0.07707233
  O -2.14135836  1.15937516 -0.19541369
  C -1.70326248  2.49025646 -0.44119744
  C -1.89973876 -1.14922468  0.51190189
  C -1.65720834 -2.09185963 -0.66442179
  C -0.35351499 -2.31892161 -0.64453356
  C  0.16184560 -1.49444688  0.53515740
  O -0.92825029 -1.58772566  1.43652615
  H  4.35436143  0.62409317 -0.05822419
  H  3.39202428  1.77080727 -1.01867997
  H  3.99694902  0.27161214 -1.76524331
  H  2.38372686 -0.90725145 -0.30891895
  H -2.52741542  2.98058413 -0.95535940
  H -0.79631169  2.51749388 -1.03991839
  H -1.50794208  2.99433012  0.50838432
  H -2.89842592 -1.09502619  0.93230004
  H -2.42087745 -2.42913426 -1.33394949
  H  0.26878653 -2.90162370 -1.29243197
  H  1.08176014 -1.80828347  1.01944093
