44
opt_min/./Reactant_2482_0_opt.xyz
  C -4.24338464  2.85043458 -1.40299762
  N -3.31007868  2.05177987 -0.64099244
  C -2.81812250  0.90236284 -1.13567627
  O -3.04134539  0.49885083 -2.25149921
  C -1.83987224  0.18079430 -0.16847953
  C -2.36240750  0.23066111  1.26840188
  O -3.46791485 -0.16879777  1.56682972
  N -1.49177495  0.75071973  2.15856902
  C -1.79088424  0.86679142  3.56514116
  C -0.52875648  0.75636331 -0.36463121
  C  0.64352092  0.66893744 -0.61642146
  C  1.92749311  0.30000890 -1.15939634
  C  2.97043787  0.08025264 -0.03833216
  O  3.76478607  0.93474132  0.27715126
  N  2.89447767 -1.12291776  0.55709740
  C  3.77858513 -1.48553099  1.63998140
  C  2.45678698  1.43000178 -2.06178757
  F  3.66037502  1.14264468 -2.57301813
  F  2.54900681  2.59989631 -1.43123773
  F  1.64948465  1.64750402 -3.11643116
  C  1.61259291 -0.94190911 -2.03933060
  C  0.68832033 -2.08235901 -1.50889234
  C -0.32436915 -1.96569760 -0.34062954
  C -1.68390502 -1.30027623 -0.62355666
  H -5.24654743  2.41735479 -1.37763720
  H -3.91070635  2.87754934 -2.44010731
  H -4.27243170  3.85879612 -0.99856049
  H -3.18290346  2.27743201  0.33197465
  H -0.59113210  1.07035190  1.83184505
  H -1.62759921  1.88914095  3.90701519
  H -2.83590718  0.59352635  3.70393206
  H -1.16670483  0.19059135  4.15331056
  H  2.23434316 -1.80897117  0.23569013
  H  3.28536371 -1.35860021  2.60659384
  H  4.09573665 -2.52081253  1.52966054
  H  4.64703329 -0.82895982  1.60378668
  H  2.56162390 -1.38947543 -2.34462146
  H  1.14240902 -0.55528535 -2.94577013
  H  1.33292279 -2.92934015 -1.25154219
  H  0.09478674 -2.40034971 -2.36802882
  H -0.55078428 -3.00471709 -0.08295630
  H  0.12605662 -1.52066249  0.54950465
  H -2.46335813 -1.86006953 -0.09896859
  H -1.91635640 -1.33389662 -1.68976860
