29
opt_min/./Reactant_1384_0_opt.xyz
  C  4.88285500 -0.03101600 -0.06296600
  O  3.54141873 -0.32874512  0.29000042
  C  2.60081499  0.50484711 -0.19384534
  O  2.87690019  1.45711272 -0.89624944
  C  1.30083389  0.05571570  0.28021739
  N  0.11458388  0.55126821 -0.00867633
  C  0.04433599  1.65419290 -0.95543274
  C -1.03627779  0.12424338  0.57575949
  C -2.35809524  0.38936085 -0.00069304
  O -3.40122176  0.39491495  0.60421296
  O -2.32449455  0.56738544 -1.34970754
  C -3.58728609  0.73204797 -1.97746139
  C -0.98253841 -0.57569652  1.87038432
  O  0.02871404 -0.70883753  2.53379247
  O -2.17186716 -1.03000961  2.26344554
  C -2.25131640 -1.66106520  3.53308737
  H  5.50940120 -0.63309932  0.58942953
  H  5.08743237  1.03224880  0.07687876
  H  5.06517070 -0.28881646 -1.10854014
  H  1.36154537 -0.78282389  0.95429012
  H -0.68351058  2.38843162 -0.61645163
  H -0.25867325  1.29050241 -1.93461729
  H  1.02442412  2.11643076 -1.04041589
  H -4.32130165  0.05397848 -1.53921615
  H -3.93971287  1.75851879 -1.85433048
  H -3.43473356  0.50991832 -3.03096615
  H -1.27633632 -1.64637373  4.02369073
  H -2.98575697 -1.12173824  4.13096780
  H -2.58313053 -2.68874905  3.38199998
