26
opt_min/./Reactant_5151_0_opt.xyz
  C  4.56708882 -0.60580221  1.60895586
  C  3.56821973 -1.75778631  1.61507840
  O  3.81124742 -2.87587439  2.01818218
  C  2.37089322 -1.29278418  1.07079719
  N  1.39492472 -0.77919928  0.64974759
  C  0.52513034  0.05291133  0.17910120
  C  1.04628334  1.40068056 -0.05386087
  C  0.17831818  2.36240567 -0.82424028
  O  2.16359744  1.70881477  0.32892450
  C -0.82095538 -0.44233655 -0.11211884
  C -1.95599465  0.31398810  0.17929434
  C -3.21627188 -0.18492229 -0.09077304
  C -3.36515661 -1.44485028 -0.64609655
  C -2.24421561 -2.21177846 -0.91935620
  C -0.98149367 -1.71833783 -0.65289460
  H  5.38374751 -0.86346406  0.93735957
  H  4.10978656  0.32784016  1.29066751
  H  4.97108723 -0.49955495  2.61367894
  H -0.34155534  3.01580292 -0.12490495
  H  0.82232567  2.98963265 -1.43718169
  H -0.54761429  1.84720297 -1.44565438
  H -1.84785055  1.28171309  0.64354891
  H -4.08693171  0.41069250  0.14141511
  H -4.34989645 -1.83302386 -0.85826275
  H -2.35690015 -3.19840078 -1.34355697
  H -0.11133881 -2.32024915 -0.87309364
