43
opt_min/./Reactant_2153_0_opt.xyz
  C -2.38851780 -0.04120235  2.16076747
  O -2.66349468  1.00247920  1.26090889
  C -1.79133386  1.12868535  0.15395608
  O -1.98406622  2.40127766 -0.40678882
  C -3.32313673  2.79233829 -0.63220206
  C -0.37446197  1.00735603  0.45338997
  C  0.75910613  0.64177491  0.31237795
  C  1.94351039  0.06115720 -0.27338664
  C  3.15510317  0.99731052 -0.22294800
  C  2.92047453  2.29383167  0.49761066
  O  4.20073883  0.72390573 -0.75559173
  C  2.22159036 -1.30749453  0.33996072
  C  3.50600547 -1.79944176  0.52743740
  C  3.70602464 -3.05432994  1.07733374
  C  2.62925998 -3.84243590  1.44053438
  C  1.34442584 -3.36244930  1.25337163
  C  1.14362894 -2.10736746  0.70898470
  C  1.57797757 -0.06611837 -1.78337748
  C  0.24594623 -0.71043968 -2.21246656
  C -1.11974722  0.02014000 -2.13993485
  C -2.01317915 -0.01096536 -0.88548655
  H -1.32325347 -0.08038395  2.41267104
  H -2.96731771  0.17786406  3.05649012
  H -2.70020061 -1.01377721  1.76367568
  H -3.79197344  2.19423930 -1.42030841
  H -3.91355668  2.71449827  0.28224302
  H -3.26642734  3.83018163 -0.94953253
  H  2.10726361  2.83304647  0.01458382
  H  3.82489432  2.89707508  0.48805355
  H  2.61519233  2.09509411  1.52326472
  H  4.36367924 -1.21211395  0.23971597
  H  4.71373171 -3.41576836  1.22066945
  H  2.78873236 -4.82287661  1.86429431
  H  0.49313134 -3.96572361  1.53301823
  H  0.13956982 -1.73195362  0.58664778
  H  1.63000623  0.92939576 -2.23164561
  H  2.37307533 -0.66967190 -2.23043473
  H  0.39366869 -0.84567688 -3.28981714
  H  0.15478218 -1.70959765 -1.78306162
  H -1.71610611 -0.49799405 -2.89772914
  H -1.00445277  1.05314311 -2.47379713
  H -1.91921657 -0.97624911 -0.38668892
  H -3.05138955  0.08342498 -1.21586611
