44
opt_min/./Reactant_3182_1_opt.xyz
  C -0.87603800 -1.55042200  3.46644400
  N -0.92315220 -0.53305288  2.44781342
  C -1.61632591 -0.69711581  1.28881076
  O -2.28232214 -1.69050927  1.06199423
  C -1.54756037  0.47626981  0.37867381
  O -0.42599651  1.10931466  0.08191514
  C  0.82879785  0.74598071  0.24664070
  C  1.80327794  1.77097677 -0.04391674
  C  3.14976785  1.45485009 -0.27736750
  C  4.06454847  2.44848380 -0.55642725
  C  3.66737518  3.77568958 -0.61952700
  C  2.33705252  4.10186692 -0.40419129
  C  1.41548050  3.11779854 -0.11661702
  C  1.23388923 -0.61046909  0.62832320
  C  0.69696275 -1.71931541 -0.02873936
  C  1.10192077 -2.99483793  0.30994928
  C  2.04491972 -3.18760808  1.30701736
  C  2.59240971 -2.09387712  1.95789599
  C  2.19292602 -0.81427475  1.62284201
  C -2.74835865  1.03668310 -0.19155211
  C -4.02112313  0.58245650  0.18124365
  C -5.15262723  1.14078480 -0.37570673
  C -5.05267993  2.16667800 -1.30330107
  C -3.80052351  2.62734453 -1.68004581
  C -2.66174603  2.06998733 -1.13941268
  H  0.15770476 -1.82315940  3.68610549
  H -1.36465542 -1.20980081  4.38172442
  H -1.40539303 -2.41841981  3.07699822
  H -0.43401583  0.32902449  2.62723012
  H  3.46543155  0.42301991 -0.25790086
  H  5.09731884  2.18664701 -0.73475933
  H  4.38817951  4.54923798 -0.83771717
  H  2.01932773  5.13316357 -0.45461653
  H  0.38349827  3.38095068  0.06307895
  H -0.02968707 -1.57943692 -0.81606781
  H  0.67850859 -3.84258033 -0.20656809
  H  2.35379518 -4.18697402  1.57439393
  H  3.33041125 -2.23889379  2.73365772
  H  2.61118052  0.03877604  2.13825000
  H -4.11375757 -0.21645013  0.89822578
  H -6.12590018  0.77587233 -0.08176451
  H -5.94350213  2.60036380 -1.73305571
  H -3.71350048  3.42176950 -2.40737974
  H -1.68953921  2.42257973 -1.44967493
