8
opt_min/./Reactant_96_0_opt.xyz
  C -1.21795876  0.37099720  0.55275945
  O -0.37443879 -0.77563338  0.55181880
  C  0.74402882 -0.64350781 -0.10031537
  C  1.76408579 -0.53915804 -0.71540439
  F  2.88739317 -0.45117549 -1.35637217
  H -2.14831639  0.05224469  1.01225953
  H -0.77228514  1.18286340  1.13231024
  H -1.40240120  0.72949412 -0.46209618
