35
opt_min/./Reactant_1905_1_opt.xyz
  C  1.67251298  1.61730834  1.36899361
  C  0.77519152  0.60922925  0.63734564
  C  1.56143335 -0.25627150 -0.33506945
  C  2.81266646 -0.74882909  0.01745930
  C  3.50004529 -1.60529479 -0.82358258
  C  2.94685918 -1.99050795 -2.03291902
  C  1.70395562 -1.50481874 -2.39377553
  C  1.01761165 -0.64820282 -1.55267303
  C -0.29028502  1.30481276 -0.04022354
  C -1.37842536  1.62978487 -0.41895553
  C -2.79740195  1.47749425 -0.67577326
  C -3.55093305  2.29503270  0.25957516
  N -4.12107282  2.92168433  1.02480290
  C -3.15040482  1.83688889 -2.03548914
  N -3.40865186  2.09606550 -3.11712397
  C -3.06746509 -0.03697989 -0.43562156
  C -2.58912194 -0.64324805  0.89832243
  C -1.15021545 -1.16210923  1.15612427
  C  0.00873664 -0.27412219  1.65243826
  H  2.30718013  1.12524883  2.10202640
  H  2.30308815  2.14220852  0.65363444
  H  1.05571899  2.34970701  1.88854940
  H  3.26565684 -0.46879869  0.95685857
  H  4.47243598 -1.97324865 -0.53127649
  H  3.47950162 -2.66429558 -2.68618030
  H  1.26146379 -1.79490364 -3.33693271
  H  0.05401973 -0.26429067 -1.85355451
  H -2.64190316 -0.60509563 -1.26694394
  H -4.15393178 -0.17649591 -0.46794581
  H -3.18362846 -1.56346317  0.95570776
  H -2.90213887 -0.00460982  1.72873736
  H -0.82038699 -1.76842373  0.30842926
  H -1.30178680 -1.84546780  2.00017665
  H  0.74399121 -0.96271410  2.08323554
  H -0.35967658  0.35093856  2.47008200
