11
opt_min/./Reactant_10_1_opt.xyz
  C -1.41712900 -1.00240099  0.85652601
  C -0.68413028  0.21271881  0.36177011
  C -1.37375841  1.34944626 -0.07044082
  N -1.94890743  2.27985327 -0.42487605
  N  0.59781417  0.22710140  0.32130096
  C  1.78247663  0.22818528  0.28885403
  C  3.11253362  0.21864128  0.23289918
  N  4.27211487  0.20061671  0.19546397
  H -2.47428252 -0.77142590  0.95089179
  H -1.02905571 -1.31354756  1.82545313
  H -1.30040582 -1.83209207  0.15764894
