44
opt_min/./Reactant_5957_1_opt.xyz
  C -0.58494800 -1.67832400  2.88844100
  O -0.42824361 -0.82243115  1.77473448
  C -1.54678707 -0.60183632  1.02383708
  O -2.61389343 -1.11561368  1.30140734
  C -1.33102789  0.36202168 -0.02514937
  N -0.13392514  0.93123173 -0.31341293
  C  1.14468143  0.67178387 -0.03615900
  C  2.03989856  1.83410547 -0.15882098
  C  3.19960744  1.79192348 -0.93183659
  C  4.01415275  2.90406998 -1.02507176
  C  3.68404507  4.07055841 -0.35336811
  C  2.53075984  4.12425017  0.41248268
  C  1.71058311  3.01592903  0.50676713
  C  1.71034189 -0.62649968  0.23180300
  C  1.07816254 -1.80352770 -0.19352686
  C  1.66981599 -3.03295844  0.00969690
  C  2.89570368 -3.12663417  0.64859587
  C  3.53816542 -1.97080889  1.06595364
  C  2.95855861 -0.73612883  0.85899987
  C -2.49089119  0.88799858 -0.74906865
  C -3.52180564  0.03518834 -1.14834404
  C -4.62026719  0.52399622 -1.82883056
  C -4.71755567  1.87190636 -2.13039879
  C -3.70410238  2.73106355 -1.73695597
  C -2.60490343  2.24840996 -1.05572424
  H  0.40187115 -2.08298723  3.10641128
  H -0.95780611 -1.11601873  3.74838821
  H -1.29043646 -2.47734087  2.65322030
  H -0.26336816  1.79504087 -0.83985996
  H  3.45071740  0.87997532 -1.45305567
  H  4.90906187  2.86409958 -1.62853168
  H  4.32566800  4.93569473 -0.42783905
  H  2.27641528  5.03252318  0.93860157
  H  0.81339957  3.04881995  1.10902459
  H  0.13505030 -1.74525027 -0.71542209
  H  1.16555684 -3.92589127 -0.33074735
  H  3.35060425 -4.09073767  0.82063321
  H  4.49542546 -2.03254640  1.56303566
  H  3.45987533  0.15643558  1.20273693
  H -3.45569475 -1.01417741 -0.91378625
  H -5.40569553 -0.15329110 -2.13028903
  H -5.57577442  2.25520897 -2.66141106
  H -3.77632730  3.78728707 -1.95437104
  H -1.84545539  2.95065209 -0.73269660
