31
opt_min/./Reactant_1697_1_opt.xyz
  C  3.56600600 -2.05368600 -0.42115500
  N  2.15401343 -1.76619885 -0.45853349
  C  1.67471639 -0.50395756 -0.53913631
  O  2.44068185  0.45554716 -0.56332101
  C  0.21012559 -0.39464475 -0.61422936
  C -0.60079262  0.68688032 -0.51402151
  C -0.43672134  2.07975099 -0.01855541
  O -1.42100608  2.76361727  0.22650297
  N  0.81984462  2.51238976  0.16293353
  C  1.07355852  3.85449165  0.62933381
  C -2.01315148  0.20605495 -0.74656385
  C -2.38644538 -0.61437363  0.50616855
  C -1.46957071 -1.84660742  0.38956361
  C -0.69944485 -1.57512189 -0.92220194
  C -1.77748132 -0.90097100 -1.77261609
  H  3.87530709 -2.37366975  0.57708512
  H  4.09714167 -1.13954981 -0.68107037
  H  3.81105116 -2.83792090 -1.13807059
  H  1.52027302 -2.54288642 -0.37550655
  H  1.60077873  1.92913570 -0.13294620
  H  2.13810050  3.97411383  0.80548823
  H  0.73636619  4.59024155 -0.10625894
  H  0.51778219  4.03427102  1.55161450
  H -2.71371759  0.99848322 -0.99340457
  H -3.43858864 -0.89219336  0.47077042
  H -2.21150321 -0.04285299  1.41535729
  H -2.04603091 -2.76831996  0.31111682
  H -0.79534914 -1.93794654  1.24126641
  H -0.23526649 -2.45361341 -1.36840585
  H -2.64837773 -1.53162019 -1.93851622
  H -1.39425253 -0.52806135 -2.72048770
