15
opt_min/./Reactant_93_0_opt.xyz
  C -2.16980300  0.88070600 -0.42481400
  N -1.15914967  0.15411770 -0.07027664
  C -1.41330055 -1.15908627  0.51390548
  N  0.05268560  0.62504438 -0.18736790
  C  1.14642373 -0.17508202 -0.19287732
  C  2.41498397  0.64274904 -0.11297016
  O  1.15036788 -1.39302265 -0.29852564
  H -3.17409445  0.53356599 -0.27660872
  H -1.99263309  1.84386987 -0.86665796
  H -1.08019849 -1.93142075 -0.18139234
  H -0.83072923 -1.27037413  1.42831327
  H -2.47300746 -1.27758567  0.73065031
  H  2.62996087  0.85109661  0.93473751
  H  3.24136193  0.07658732 -0.53609414
  H  2.29417024  1.58837587 -0.63192551
