29
opt_min/./Reactant_1584_0_opt.xyz
  C -0.31019900 -0.45619400  1.31998100
  N -0.22233477 -1.16502041  0.02258548
  N -1.27557671 -1.34668632 -0.65501036
  C -2.52541383 -0.95031461 -0.20356631
  C -3.30493809 -1.82459656  0.55406307
  C -4.58967652 -1.46946369  0.91830830
  C -5.11490613 -0.24710181  0.53510836
  C -4.34905101  0.61947604 -0.22629886
  C -3.06256159  0.27510295 -0.59589576
  N  0.87547519 -1.63968461 -0.39730165
  C  2.10872481 -1.32150754  0.12414044
  C  2.57347772 -0.00185555  0.15239242
  C  3.85747282  0.27232006  0.57866695
  C  4.69704302 -0.75258095  0.98613343
  C  4.24481672 -2.06138515  0.95241614
  C  2.96424782 -2.34872481  0.52434147
  H -0.84718969 -1.09385166  2.02446359
  H -0.87010236  0.46984104  1.19148812
  H  0.68917654 -0.24594328  1.69506412
  H -2.89644725 -2.78266654  0.84271030
  H -5.18750571 -2.15142893  1.50534949
  H -6.11929611  0.02784317  0.82258379
  H -4.75656226  1.57126776 -0.53453245
  H -2.46854873  0.94699291 -1.19913403
  H  1.92677212  0.79909404 -0.17893254
  H  4.20742211  1.29452247  0.59395577
  H  5.69831673 -0.52784854  1.32230668
  H  4.89481429 -2.86589118  1.26343362
  H  2.60718782 -3.36685716  0.49117573
