22
opt_min/./Reactant_5052_1_opt.xyz
  C  4.83210705  0.24582228 -0.65385028
  O  3.46018364 -0.12173191 -0.72588050
  C  2.58242184  0.73532574 -0.21288120
  O  2.82560976  1.80374228  0.30413380
  C  1.23486006  0.30145376 -0.32896790
  N  0.06805054  0.26674329 -0.17874612
  C -1.18280852 -0.04891613 -0.20007062
  C -2.15479692  0.86759540  0.40202273
  C -1.57037813  2.13328589  0.98495240
  O -3.34229480  0.63069417  0.45762884
  C -1.48731879 -1.35781223 -0.83832425
  C -2.92672832 -1.76583043 -0.87017894
  O -0.59150679 -2.03205553 -1.29920433
  H  5.29748618 -0.07741602 -1.58295435
  H  4.92879530  1.32602730 -0.52829918
  H  5.29665043 -0.26369985  0.19242896
  H -2.33366961  2.90811599  0.97910140
  H -1.30033155  1.93972583  2.02301041
  H -0.68634396  2.47344529  0.45420435
  H -3.00954307 -2.73046057 -1.36479571
  H -3.32154204 -1.82627319  0.14155356
  H -3.51762877 -1.01990031 -1.39697001
