31
opt_min/./Reactant_990_1_opt.xyz
  C  5.19255664  1.59219648 -0.04948625
  N  4.22632916  0.56635566 -0.35108589
  C  2.90748438  0.74433376 -0.19247262
  O  2.38554971  1.77994727  0.21522453
  C  2.02488593 -0.40098499 -0.54427028
  C  2.61330227 -1.57074153 -1.02569287
  N  3.37546958 -2.35450844 -1.39834889
  N  0.74673911 -0.08365805 -0.35596053
  C -0.42584818 -0.69819806 -0.47263886
  C -0.46878436 -2.10748856 -0.82385101
  C -1.79686835 -2.81952695 -0.75340632
  O  0.55288793 -2.70896662 -1.12107363
  C -1.60792566  0.10697787 -0.14211039
  C -1.59844688  0.90891709  1.00176970
  C -2.69507542  1.68737226  1.32152772
  C -3.81328511  1.68592014  0.50472968
  C -3.82661265  0.90432272 -0.63901708
  C -2.73522192  0.12054538 -0.96191159
  H  4.65013589  2.47785336  0.27755574
  H  5.86417013  1.26560546  0.74667848
  H  5.78059128  1.83057059 -0.93656155
  H  4.55644618 -0.32307239 -0.69698789
  H  0.72437289  0.90447966 -0.02880679
  H -2.27752209 -2.77779900 -1.72956584
  H -2.45669092 -2.37799465 -0.01304203
  H -1.61498530 -3.86614825 -0.52146748
  H -0.73984369  0.90472468  1.65841305
  H -2.67633028  2.29471266  2.21396534
  H -4.66929874  2.29304560  0.75676858
  H -4.69015451  0.90988611 -1.28722535
  H -2.74331754 -0.46405732 -1.86896957
