20
opt_min/./Reactant_1402_1_opt.xyz
  F -0.89090188 -2.95138901 -0.17193277
  C -0.53610171 -1.75153712 -0.71044052
  F -0.73962218 -1.88719375 -2.04942617
  C  0.82345319 -1.35726770 -0.39197869
  C  1.62615114 -0.55903768  0.01619022
  C  2.12942110  0.62337834  0.65064713
 Br  2.73771605  1.93103848 -0.70837004
  C  0.92623216  1.16467079  1.43985760
  C -0.28798857  1.64325292  0.62041424
  C -0.91189727  0.78387866 -0.49749263
  C -1.41943588 -0.62412530 -0.13083129
  H  2.99705998  0.45582193  1.29090720
  H  0.62017282  0.36856279  2.12396437
  H  1.25700444  2.01385493  2.04365509
  H -1.07109999  1.86643993  1.34997978
  H -0.01528520  2.58994832  0.14694224
  H -0.21590177  0.70804430 -1.33362720
  H -1.76371181  1.36484180 -0.85729578
  H -1.44095979 -0.76433701  0.95096649
  H -2.42861138 -0.77982779 -0.51714402
