27
opt_min/./Reactant_905_0_opt.xyz
  C -2.95712000  1.89555200 -0.48048400
  N -2.53799668  0.53137637 -0.25651882
  C -1.45852281  0.04188871 -0.92130586
  O -0.96276965  0.57583721 -1.89333657
  C -1.06316764 -1.33865016 -0.51995986
  C -2.10504814 -2.40008191 -0.37890299
  N  0.20932260 -1.68836258 -0.50634534
  C  1.31099921 -0.91820377 -0.38023287
  C  2.62405162 -1.57540856 -0.67678149
  C  1.20884807  0.36564079  0.23012261
  O  0.18208123  0.84394192  0.69752626
  O  2.41414023  0.99116283  0.33342203
  C  2.41600152  2.25876180  0.96123873
  H -2.35096293  2.60021349  0.09447001
  H -2.82966990  2.11505272 -1.53905989
  H -4.00496751  2.00135403 -0.20374506
  H -2.69930913  0.17088170  0.67093183
  H -2.47484529 -2.45514081  0.64799394
  H -1.69748681 -3.37812284 -0.63711860
  H -2.95502099 -2.19008334 -1.02459381
  H  0.40227483 -2.69080410 -0.56285335
  H  2.82600864 -2.39536063  0.01846016
  H  2.63403804 -1.97618664 -1.69029461
  H  3.42056965 -0.84583176 -0.58733913
  H  2.83598385  2.16692274  1.96577371
  H  3.03486078  2.92528901  0.36106052
  H  1.39549719  2.64171427  1.02512253
