16

C 4.890421917 -0.805921648 1.122356023
C 2.441727579 -0.046589686 0.104486340
C 0.185040508 -1.546694667 -0.368005927
C -1.980902009 -0.074865318 -0.090948626
C -4.662132475 -0.860966006 -0.521494037
C -1.138428654 2.337405494 0.485440274
N 1.390817093 2.404471496 0.564011817
H 6.483613503 0.260188510 0.377796107
H 5.195613328 -2.836383123 1.084272203
H 2.698732637 -0.093027003 -2.048465500
H 0.289010537 -3.490348983 -0.984534914
H -5.966896863 0.663461148 -0.052976601
H -5.155292299 -2.487318337 0.646843161
H -4.990047654 -1.386763687 -2.490302800
H -2.251223003 4.040788333 0.675051991
H 2.438129899 3.818944124 1.268975848

