11

C -2.510328436 1.336853847 0.546141735
O -1.702120200 -0.829835093 -0.772062650
C 0.666641784 -1.691637927 0.021763163
C 2.820842922 -0.100891930 -0.998320391
O 4.927267608 -0.157358931 -0.169751566
H -2.717077532 0.944896151 2.571260065
H -1.193730922 2.922757156 0.314900919
H -4.338109394 1.878443949 -0.226349411
H 0.911265319 -3.601451160 -0.732668210
H 0.824020746 -1.804826569 2.087391893
H 2.311328105 1.103050505 -2.642305547

