11

C -2.324162218 1.261128760 0.719295129
O -2.076652428 -0.918178712 -0.324142757
C 1.236515040 -2.297513167 -0.131003544
C 2.317289208 -0.137535137 -1.113279499
O 2.276813769 1.874628592 0.247891136
H -2.740765910 1.327823072 2.751255080
H 0.120410760 2.180848828 0.758352480
H -3.113420431 2.763873821 -0.464381978
H 1.027100901 -3.965356664 -1.293350216
H 1.185877428 -2.568105791 1.893501703
H 2.665863667 0.043796633 -3.138432997

