16

C -3.984243173 -0.486818583 -0.235276080
C -1.143170582 -0.922045148 -0.103074318
C 0.348894295 1.548018836 0.022444164
C 3.185407393 1.177378309 -0.015085041
O 3.832175570 -0.006435897 -2.328549821
C -0.049458706 -3.681503700 3.802187544
N -0.551559145 -2.460635215 2.045019717
H -4.443177279 0.602220605 -1.923765799
H -4.638597561 0.555800541 1.419373046
H -4.995621685 -2.278745182 -0.315538191
H -0.517805216 -1.974887237 -1.764006690
H -0.197461130 2.697529392 -1.604349096
H -0.184539353 2.585023149 1.728384124
H 3.766364894 0.016163111 1.598969121
H 4.117407770 3.020455373 0.153537734
H 5.555970229 -0.551572468 -2.254863882

