14

N -2.735430892 4.943574924 -3.368585161
C -2.029630146 3.521004177 -1.890038496
C -1.153306392 1.722303439 -0.050918028
C 3.793159415 -0.946171017 1.476950261
C 1.941683729 -2.089339331 0.244490234
C -0.272409425 -0.837384435 -0.937057095
C -2.715515352 -0.607102467 0.469426659
H -0.186473280 2.565280216 1.540852201
H 3.857659132 1.089863165 1.698638361
H 5.333697676 -2.012541429 2.298338241
H 1.984527127 -4.132911537 0.037319502
H -0.469220282 -1.166387001 -2.950936166
H -4.462735207 -0.822620364 -0.567325432
H -2.757875131 -1.239980042 2.412972694

