18

C -2.145827176 -3.682829381 0.674302167
C -2.513477683 -0.843461114 0.406329440
C -0.165902987 0.531068618 -0.520416156
C -0.658356148 3.332158573 -0.953321987
O 1.753037377 0.144715983 1.307830186
C 4.217535797 0.539371300 0.423102385
H -1.640716649 -4.540639941 -1.135862916
H -0.638577102 -4.099173255 2.015329152
H -3.870605626 -4.594175051 1.343403033
H -3.062623553 -0.023130777 2.224335224
H -4.053910988 -0.446436005 -0.914032199
H 0.451490720 -0.336967912 -2.311300968
H -2.123107206 3.599218940 -2.381305797
H 1.033968695 4.311702569 -1.606600667
H -1.285367332 4.218577452 0.801600676
H 5.506172960 0.009080417 1.938840503
H 4.620246714 -0.638424753 -1.237763072
H 4.576020225 2.519344338 -0.074468967

