18

C -2.027535763 -3.702546178 0.157579310
C -2.083176481 -0.862274132 0.485840688
C -0.646878953 0.732787301 -1.096059199
C -1.444744283 3.351931514 -1.750081600
O 1.774325104 1.434538609 1.579288229
C 4.187498355 0.376121526 1.398461640
H -3.418698524 -4.356786503 -1.225968119
H -0.172480916 -4.346767023 -0.481317080
H -2.428068563 -4.671250574 1.933523381
H -0.123630003 -0.020412803 1.960777748
H -3.849011594 -0.064849656 1.172675820
H 0.722664321 -0.136661176 -2.359315356
H -2.752536768 3.242858280 -3.350160747
H 0.147823467 4.537521799 -2.283916626
H -2.437563454 4.226524128 -0.172321385
H 5.085610537 0.300791562 3.260281838
H 4.143317767 -1.561291365 0.634553157
H 5.394313325 1.521234897 0.165611572

