11

C -3.422443602 -0.883589335 0.240768853
N -0.968162063 0.154438510 -0.351597964
C 4.124529675 4.036893078 0.150558487
N 3.803703312 1.863828165 -0.071122262
C 3.213838720 -0.675358864 -0.336455437
N 0.944407941 -1.465015677 -0.425134407
H -3.759611769 -2.521992392 -0.957183661
H -3.593923511 -1.457439803 2.221581704
H -4.852861059 0.539302173 -0.170635183
H -0.590793185 1.923532890 0.274303592
H 4.769124365 -1.984845773 -0.479378523

