16

C 3.404554113 1.575565166 0.534420898
O 1.060221866 0.796239769 1.510987441
C -0.470433070 -0.504428922 -0.224961029
C 0.309675656 -3.191634098 -0.780960483
C -3.037224897 0.184357523 -0.100068897
O -2.987082432 2.073711183 -3.142810094
H 4.616594100 -0.029775281 0.039605749
H 3.164537069 2.760523771 -1.150218618
H 4.341034029 2.670451015 2.005458754
H -0.997801585 0.984215891 -2.372204555
H 2.160273490 -3.272679273 -1.687492888
H -1.033486720 -4.077580847 -2.070122139
H 0.401872540 -4.319162717 0.949318999
H -4.488750065 -1.101611706 -0.743071134
H -3.630362514 1.654081075 1.194471411
H -3.001677675 3.880325490 -2.893716884

