15

O 0.782956714 -2.260778592 -3.229218898
C 0.558619105 -1.105475988 -0.876485552
C -1.900087606 -1.810664500 0.522782244
C -2.436211336 1.009483419 1.079880630
C -0.017262440 1.769950256 -0.396567814
C 2.340113415 1.711319311 1.206079923
C 2.852539261 -0.721296859 0.781181467
H -3.253701358 -2.610100381 -0.807999251
H -1.702299535 -3.085429694 2.127608043
H -4.179088544 1.692126043 0.223683820
H -2.428170230 1.547256653 3.068582842
H 2.330572641 -1.709709926 -3.997450261
H -0.183874226 3.133853586 -1.926196799
H 3.144408972 3.092363761 2.487796210
H 4.238345272 -2.027525483 1.539853405

