15

O 1.083340889 -2.477423069 -3.163680267
C 0.738907273 -1.624237972 -0.828939268
C -1.818144471 -1.885010956 0.527616258
C -2.326544123 0.985340448 0.609133015
C 0.152439558 1.835477662 -0.673014621
C 2.428027575 1.598523335 1.005534382
C 2.874545783 -0.866187906 0.909587828
H -3.146958515 -2.914756339 -0.659074225
H -1.660484733 -2.818899339 2.356867084
H -3.960214039 1.488861451 -0.538126915
H -2.599100758 1.764121037 2.497915467
H 0.658292785 -0.112500234 -2.812999708
H 0.062578659 3.396841404 -2.017208372
H 3.344352976 3.060313420 2.108296024
H 4.174229680 -2.096383512 1.900073396

