26

C    -3.04387  -1.58854   1.84254
N    -2.03323  -0.57343   1.62741
C    -1.95354   0.09286   0.44799
O    -2.75849  -0.13651  -0.46862
C    -0.89631   1.11027   0.32012
C    -0.55342   1.90880  -0.85200
C    -1.38070   1.76811  -2.10516
O     0.41138   2.68471  -0.82026
N     0.04876   1.14754   1.24859
C     1.00939   1.23471   1.98377
C     2.10493  -0.68580   0.20101
O     3.14927  -0.49744   0.97784
C     4.16786  -1.40671   0.45393
C     1.23292  -0.93153  -0.55635
Cl    0.19435  -1.54358  -1.72715
H    -2.97207  -1.94368   2.87891
H    -2.91326  -2.44354   1.16403
H    -4.05657  -1.18147   1.68206
H    -1.34210  -0.41611   2.35253
H    -1.32953   0.73313  -2.49357
H    -2.43258   1.96798  -1.88906
H    -0.99371   2.46478  -2.85788
H     1.71918   1.42934   2.64175
H     5.02740  -1.31122   1.02862
H     3.73855  -2.44562   0.47374
H     4.32618  -1.14387  -0.62582
26

C    -3.04409  -1.58819   1.84283
N    -2.03347  -0.57301   1.62764
C    -1.95246   0.09125   0.44771
O    -2.75708  -0.13668  -0.46921
C    -0.88863   1.10254   0.31811
C    -0.55146   1.90727  -0.85335
C    -1.37991   1.76708  -2.10533
O     0.41032   2.68572  -0.81969
N     0.04604   1.15281   1.25475
C     1.01938   1.21371   1.96198
C     2.09210  -0.66670   0.21664
O     3.14859  -0.49808   0.97793
C     4.16119  -1.40787   0.44925
C     1.22339  -0.91969  -0.54983
Cl    0.20134  -1.54431  -1.72480
H    -2.97219  -1.94352   2.87900
H    -2.91320  -2.44341   1.16410
H    -4.05660  -1.18137   1.68203
H    -1.34167  -0.41632   2.35221
H    -1.32956   0.73284  -2.49372
H    -2.43227   1.96769  -1.88862
H    -0.99374   2.46456  -2.85797
H     1.72196   1.42360   2.63580
H     5.02606  -1.31240   1.02655
H     3.73642  -2.44594   0.47221
H     4.32391  -1.14409  -0.62725
26

C    -3.04431  -1.58784   1.84312
N    -2.03371  -0.57259   1.62787
C    -1.95138   0.08964   0.44742
O    -2.75567  -0.13686  -0.46979
C    -0.88095   1.09481   0.31609
C    -0.54949   1.90573  -0.85471
C    -1.37913   1.76605  -2.10550
O     0.40926   2.68674  -0.81912
N     0.04332   1.15807   1.26090
C     1.02938   1.19271   1.94019
C     2.07926  -0.64760   0.23226
O     3.14791  -0.49873   0.97801
C     4.15452  -1.40904   0.44457
C     1.21385  -0.90784  -0.54330
Cl    0.20832  -1.54504  -1.72245
H    -2.97230  -1.94336   2.87910
H    -2.91314  -2.44328   1.16418
H    -4.05664  -1.18127   1.68199
H    -1.34124  -0.41652   2.35188
H    -1.32958   0.73254  -2.49386
H    -2.43195   1.96740  -1.88817
H    -0.99376   2.46434  -2.85807
H     1.72474   1.41785   2.62985
H     5.02473  -1.31357   1.02449
H     3.73428  -2.44626   0.47068
H     4.32165  -1.14431  -0.62869
26

C    -3.04453  -1.58749   1.84341
N    -2.03395  -0.57217   1.62811
C    -1.95030   0.08804   0.44714
O    -2.75426  -0.13703  -0.47038
C    -0.87326   1.08708   0.31408
C    -0.54753   1.90420  -0.85606
C    -1.37834   1.76502  -2.10567
O     0.40820   2.68776  -0.81856
N     0.04060   1.16334   1.26706
C     1.03938   1.17171   1.91840
C     2.06643  -0.62851   0.24789
O     3.14723  -0.49937   0.97810
C     4.14786  -1.41021   0.43989
C     1.20432  -0.89600  -0.53677
Cl    0.21530  -1.54577  -1.72009
H    -2.97242  -1.94321   2.87920
H    -2.91307  -2.44315   1.16426
H    -4.05667  -1.18117   1.68196
H    -1.34081  -0.41673   2.35156
H    -1.32961   0.73225  -2.49400
H    -2.43163   1.96711  -1.88773
H    -0.99379   2.46412  -2.85816
H     1.72752   1.41210   2.62390
H     5.02339  -1.31475   1.02242
H     3.73214  -2.44657   0.46914
H     4.31939  -1.14453  -0.63012
26

C    -3.04475  -1.58713   1.84370
N    -2.03419  -0.57174   1.62834
C    -1.94922   0.08643   0.44685
O    -2.75285  -0.13721  -0.47096
C    -0.86558   1.07935   0.31207
C    -0.54556   1.90267  -0.85741
C    -1.37756   1.76399  -2.10584
O     0.40715   2.68877  -0.81799
N     0.03788   1.16860   1.27322
C     1.04938   1.15071   1.89662
C     2.05360  -0.60941   0.26352
O     3.14656  -0.50001   0.97819
C     4.14119  -1.41137   0.43521
C     1.19478  -0.88416  -0.53025
Cl    0.22229  -1.54651  -1.71774
H    -2.97254  -1.94305   2.87930
H    -2.91301  -2.44302   1.16433
H    -4.05671  -1.18107   1.68192
H    -1.34038  -0.41693   2.35123
H    -1.32964   0.73195  -2.49415
H    -2.43131   1.96681  -1.88729
H    -0.99381   2.46390  -2.85826
H     1.73030   1.40636   2.61795
H     5.02205  -1.31592   1.02036
H     3.73000  -2.44689   0.46761
H     4.31712  -1.14475  -0.63156
26

C    -3.04497  -1.58678   1.84399
N    -2.03443  -0.57132   1.62857
C    -1.94814   0.08482   0.44656
O    -2.75144  -0.13738  -0.47155
C    -0.85790   1.07162   0.31005
C    -0.54360   1.90113  -0.85876
C    -1.37677   1.76296  -2.10601
O     0.40609   2.68979  -0.81743
N     0.03517   1.17387   1.27938
C     1.05937   1.12971   1.87483
C     2.04077  -0.59031   0.27915
O     3.14588  -0.50065   0.97828
C     4.13452  -1.41254   0.43053
C     1.18525  -0.87232  -0.52372
Cl    0.22927  -1.54724  -1.71539
H    -2.97265  -1.94289   2.87940
H    -2.91294  -2.44289   1.16441
H    -4.05675  -1.18097   1.68189
H    -1.33995  -0.41714   2.35090
H    -1.32967   0.73166  -2.49429
H    -2.43099   1.96652  -1.88684
H    -0.99384   2.46368  -2.85836
H     1.73308   1.40061   2.61200
H     5.02072  -1.31710   1.01829
H     3.72786  -2.44721   0.46608
H     4.31486  -1.14497  -0.63300
26

C    -3.04519  -1.58643   1.84428
N    -2.03467  -0.57090   1.62880
C    -1.94706   0.08321   0.44628
O    -2.75003  -0.13756  -0.47213
C    -0.85022   1.06389   0.30804
C    -0.54163   1.89960  -0.86012
C    -1.37599   1.76193  -2.10618
O     0.40503   2.69080  -0.81686
N     0.03245   1.17913   1.28553
C     1.06937   1.10871   1.85304
C     2.02794  -0.57122   0.29477
O     3.14520  -0.50130   0.97836
C     4.12786  -1.41370   0.42585
C     1.17571  -0.86047  -0.51720
Cl    0.23626  -1.54797  -1.71303
H    -2.97277  -1.94273   2.87950
H    -2.91288  -2.44276   1.16448
H    -4.05678  -1.18087   1.68185
H    -1.33952  -0.41735   2.35058
H    -1.32970   0.73136  -2.49443
H    -2.43067   1.96623  -1.88640
H    -0.99386   2.46345  -2.85845
H     1.73586   1.39486   2.60605
H     5.01938  -1.31827   1.01622
H     3.72572  -2.44752   0.46455
H     4.31260  -1.14519  -0.63443
26

C    -3.04542  -1.58608   1.84457
N    -2.03491  -0.57048   1.62904
C    -1.94598   0.08160   0.44599
O    -2.74862  -0.13773  -0.47272
C    -0.84254   1.05616   0.30603
C    -0.53967   1.89807  -0.86147
C    -1.37520   1.76091  -2.10634
O     0.40397   2.69182  -0.81630
N     0.02973   1.18440   1.29169
C     1.07937   1.08771   1.83125
C     2.01510  -0.55212   0.31040
O     3.14452  -0.50194   0.97845
C     4.12119  -1.41487   0.42117
C     1.16618  -0.84863  -0.51067
Cl    0.24324  -1.54870  -1.71068
H    -2.97288  -1.94258   2.87960
H    -2.91281  -2.44263   1.16456
H    -4.05682  -1.18077   1.68182
H    -1.33909  -0.41755   2.35025
H    -1.32973   0.73107  -2.49458
H    -2.43035   1.96594  -1.88596
H    -0.99389   2.46323  -2.85855
H     1.73864   1.38911   2.60011
H     5.01804  -1.31945   1.01416
H     3.72358  -2.44784   0.46302
H     4.31033  -1.14541  -0.63587
26

C    -3.04564  -1.58572   1.84486
N    -2.03515  -0.57005   1.62927
C    -1.94490   0.08000   0.44571
O    -2.74721  -0.13790  -0.47330
C    -0.83486   1.04843   0.30402
C    -0.53770   1.89653  -0.86282
C    -1.37442   1.75988  -2.10651
O     0.40291   2.69284  -0.81573
N     0.02701   1.18966   1.29785
C     1.08936   1.06671   1.80946
C     2.00227  -0.53302   0.32603
O     3.14384  -0.50258   0.97854
C     4.11453  -1.41604   0.41649
C     1.15665  -0.83679  -0.50414
Cl    0.25022  -1.54943  -1.70833
H    -2.97300  -1.94242   2.87970
H    -2.91275  -2.44250   1.16463
H    -4.05685  -1.18067   1.68178
H    -1.33866  -0.41776   2.34993
H    -1.32976   0.73078  -2.49472
H    -2.43003   1.96564  -1.88552
H    -0.99391   2.46301  -2.85864
H     1.74142   1.38337   2.59416
H     5.01671  -1.32062   1.01209
H     3.72144  -2.44816   0.46149
H     4.30807  -1.14563  -0.63731
26

C    -3.04586  -1.58537   1.84515
N    -2.03539  -0.56963   1.62950
C    -1.94382   0.07839   0.44542
O    -2.74580  -0.13808  -0.47389
C    -0.82718   1.04070   0.30200
C    -0.53574   1.89500  -0.86418
C    -1.37363   1.75885  -2.10668
O     0.40185   2.69385  -0.81516
N     0.02429   1.19493   1.30400
C     1.09936   1.04571   1.78767
C     1.98944  -0.51392   0.34166
O     3.14317  -0.50322   0.97863
C     4.10786  -1.41720   0.41181
C     1.14711  -0.82494  -0.49762
Cl    0.25721  -1.55017  -1.70598
H    -2.97311  -1.94226   2.87980
H    -2.91268  -2.44237   1.16471
H    -4.05689  -1.18057   1.68175
H    -1.33823  -0.41796   2.34960
H    -1.32978   0.73048  -2.49486
H    -2.42971   1.96535  -1.88507
H    -0.99394   2.46279  -2.85874
H     1.74420   1.37762   2.58821
H     5.01537  -1.32180   1.01002
H     3.71930  -2.44847   0.45996
H     4.30581  -1.14585  -0.63874
26

C    -3.04608  -1.58502   1.84544
N    -2.03563  -0.56921   1.62973
C    -1.94274   0.07678   0.44513
O    -2.74439  -0.13825  -0.47447
C    -0.81950   1.03297   0.29999
C    -0.53378   1.89347  -0.86553
C    -1.37285   1.75782  -2.10685
O     0.40079   2.69487  -0.81460
N     0.02157   1.20020   1.31016
C     1.10936   1.02472   1.76589
C     1.97661  -0.49483   0.35729
O     3.14249  -0.50387   0.97871
C     4.10119  -1.41837   0.40713
C     1.13758  -0.81310  -0.49109
Cl    0.26419  -1.55090  -1.70362
H    -2.97323  -1.94211   2.87989
H    -2.91262  -2.44224   1.16479
H    -4.05693  -1.18047   1.68171
H    -1.33781  -0.41817   2.34927
H    -1.32981   0.73019  -2.49501
H    -2.42939   1.96506  -1.88463
H    -0.99397   2.46257  -2.85884
H     1.74698   1.37187   2.58226
H     5.01403  -1.32297   1.00796
H     3.71716  -2.44879   0.45843
H     4.30354  -1.14607  -0.64018
26

C    -3.04630  -1.58467   1.84573
N    -2.03587  -0.56879   1.62997
C    -1.94166   0.07517   0.44485
O    -2.74298  -0.13843  -0.47506
C    -0.81181   1.02524   0.29798
C    -0.53181   1.89193  -0.86688
C    -1.37206   1.75679  -2.10702
O     0.39974   2.69588  -0.81403
N     0.01885   1.20546   1.31632
C     1.11936   1.00372   1.74410
C     1.96378  -0.47573   0.37291
O     3.14181  -0.50451   0.97880
C     4.09453  -1.41953   0.40246
C     1.12804  -0.80126  -0.48456
Cl    0.27118  -1.55163  -1.70127
H    -2.97334  -1.94195   2.87999
H    -2.91255  -2.44211   1.16486
H    -4.05696  -1.18037   1.68168
H    -1.33738  -0.41837   2.34895
H    -1.32984   0.72989  -2.49515
H    -2.42907   1.96477  -1.88419
H    -0.99399   2.46235  -2.85893
H     1.74976   1.36612   2.57631
H     5.01270  -1.32415   1.00589
H     3.71502  -2.44911   0.45690
H     4.30128  -1.14629  -0.64161
26

C    -3.04652  -1.58431   1.84602
N    -2.03611  -0.56837   1.63020
C    -1.94058   0.07356   0.44456
O    -2.74158  -0.13860  -0.47564
C    -0.80413   1.01751   0.29596
C    -0.52985   1.89040  -0.86824
C    -1.37128   1.75576  -2.10719
O     0.39868   2.69690  -0.81347
N     0.01613   1.21073   1.32247
C     1.12935   0.98272   1.72231
C     1.95094  -0.45663   0.38854
O     3.14113  -0.50515   0.97889
C     4.08786  -1.42070   0.39778
C     1.11851  -0.78941  -0.47804
Cl    0.27816  -1.55236  -1.69892
H    -2.97346  -1.94179   2.88009
H    -2.91249  -2.44198   1.16494
H    -4.05700  -1.18027   1.68164
H    -1.33695  -0.41858   2.34862
H    -1.32987   0.72960  -2.49529
H    -2.42875   1.96447  -1.88374
H    -0.99402   2.46213  -2.85903
H     1.75254   1.36038   2.57036
H     5.01136  -1.32532   1.00382
H     3.71289  -2.44942   0.45537
H     4.29902  -1.14651  -0.64305
26

C    -3.04674  -1.58396   1.84631
N    -2.03635  -0.56794   1.63043
C    -1.93950   0.07196   0.44428
O    -2.74017  -0.13878  -0.47623
C    -0.79645   1.00978   0.29395
C    -0.52788   1.88886  -0.86959
C    -1.37049   1.75473  -2.10736
O     0.39762   2.69792  -0.81290
N     0.01341   1.21599   1.32863
C     1.13935   0.96172   1.70052
C     1.93811  -0.43754   0.40417
O     3.14045  -0.50579   0.97898
C     4.08119  -1.42186   0.39310
C     1.10898  -0.77757  -0.47151
Cl    0.28514  -1.55309  -1.69657
H    -2.97358  -1.94163   2.88019
H    -2.91242  -2.44185   1.16501
H    -4.05704  -1.18017   1.68161
H    -1.33652  -0.41878   2.34830
H    -1.32990   0.72930  -2.49544
H    -2.42843   1.96418  -1.88330
H    -0.99404   2.46191  -2.85912
H     1.75532   1.35463   2.56441
H     5.01002  -1.32649   1.00176
H     3.71075  -2.44974   0.45383
H     4.29675  -1.14673  -0.64449
26

C    -3.04696  -1.58361   1.84660
N    -2.03659  -0.56752   1.63067
C    -1.93842   0.07035   0.44399
O    -2.73876  -0.13895  -0.47682
C    -0.78877   1.00206   0.29194
C    -0.52592   1.88733  -0.87094
C    -1.36971   1.75370  -2.10753
O     0.39656   2.69893  -0.81233
N     0.01069   1.22126   1.33479
C     1.14935   0.94072   1.67873
C     1.92528  -0.41844   0.41980
O     3.13978  -0.50643   0.97906
C     4.07453  -1.42303   0.38842
C     1.09944  -0.76573  -0.46498
Cl    0.29213  -1.55383  -1.69421
H    -2.97369  -1.94148   2.88029
H    -2.91236  -2.44172   1.16509
H    -4.05707  -1.18007   1.68157
H    -1.33609  -0.41899   2.34797
H    -1.32993   0.72901  -2.49558
H    -2.42811   1.96389  -1.88286
H    -0.99407   2.46169  -2.85922
H     1.75811   1.34888   2.55846
H     5.00869  -1.32767   0.99969
H     3.70861  -2.45006   0.45230
H     4.29449  -1.14695  -0.64592
26

C    -3.04718  -1.58326   1.84689
N    -2.03683  -0.56710   1.63090
C    -1.93734   0.06874   0.44370
O    -2.73735  -0.13913  -0.47740
C    -0.78109   0.99433   0.28993
C    -0.52395   1.88580  -0.87229
C    -1.36892   1.75268  -2.10770
O     0.39550   2.69995  -0.81177
N     0.00798   1.22652   1.34094
C     1.15935   0.91972   1.65694
C     1.91245  -0.39934   0.43542
O     3.13910  -0.50708   0.97915
C     4.06786  -1.42420   0.38374
C     1.08991  -0.75389  -0.45846
Cl    0.29911  -1.55456  -1.69186
H    -2.97381  -1.94132   2.88039
H    -2.91230  -2.44159   1.16516
H    -4.05711  -1.17996   1.68154
H    -1.33566  -0.41920   2.34764
H    -1.32995   0.72871  -2.49572
H    -2.42779   1.96360  -1.88242
H    -0.99409   2.46147  -2.85931
H     1.76089   1.34313   2.55251
H     5.00735  -1.32884   0.99762
H     3.70647  -2.45037   0.45077
H     4.29223  -1.14717  -0.64736
26

C    -3.04740  -1.58290   1.84718
N    -2.03707  -0.56668   1.63113
C    -1.93626   0.06713   0.44342
O    -2.73594  -0.13930  -0.47799
C    -0.77341   0.98660   0.28791
C    -0.52199   1.88426  -0.87365
C    -1.36814   1.75165  -2.10787
O     0.39444   2.70096  -0.81120
N     0.00526   1.23179   1.34710
C     1.16934   0.89872   1.63516
C     1.89962  -0.38024   0.45105
O     3.13842  -0.50772   0.97924
C     4.06119  -1.42536   0.37906
C     1.08037  -0.74204  -0.45193
Cl    0.30610  -1.55529  -1.68951
H    -2.97392  -1.94116   2.88049
H    -2.91223  -2.44146   1.16524
H    -4.05714  -1.17986   1.68151
H    -1.33523  -0.41940   2.34732
H    -1.32998   0.72842  -2.49587
H    -2.42747   1.96331  -1.88197
H    -0.99412   2.46124  -2.85941
H     1.76367   1.33739   2.54656
H     5.00601  -1.33002   0.99556
H     3.70433  -2.45069   0.44924
H     4.28996  -1.14739  -0.64879
26

C    -3.04762  -1.58255   1.84747
N    -2.03731  -0.56625   1.63136
C    -1.93518   0.06552   0.44313
O    -2.73453  -0.13948  -0.47857
C    -0.76573   0.97887   0.28590
C    -0.52002   1.88273  -0.87500
C    -1.36735   1.75062  -2.10804
O     0.39339   2.70198  -0.81064
N     0.00254   1.23705   1.35326
C     1.17934   0.87772   1.61337
C     1.88679  -0.36115   0.46668
O     3.13774  -0.50836   0.97933
C     4.05453  -1.42653   0.37438
C     1.07084  -0.73020  -0.44540
Cl    0.31308  -1.55602  -1.68715
H    -2.97404  -1.94101   2.88059
H    -2.91217  -2.44133   1.16532
H    -4.05718  -1.17976   1.68147
H    -1.33480  -0.41961   2.34699
H    -1.33001   0.72812  -2.49601
H    -2.42715   1.96301  -1.88153
H    -0.99414   2.46102  -2.85951
H     1.76645   1.33164   2.54061
H     5.00467  -1.33119   0.99349
H     3.70219  -2.45101   0.44771
H     4.28770  -1.14761  -0.65023
26

C    -3.04784  -1.58220   1.84776
N    -2.03755  -0.56583   1.63160
C    -1.93410   0.06392   0.44285
O    -2.73312  -0.13965  -0.47916
C    -0.75804   0.97114   0.28389
C    -0.51806   1.88120  -0.87635
C    -1.36657   1.74959  -2.10820
O     0.39233   2.70299  -0.81007
N    -0.00018   1.24232   1.35941
C     1.18934   0.85672   1.59158
C     1.87395  -0.34205   0.48231
O     3.13706  -0.50900   0.97942
C     4.04786  -1.42769   0.36970
C     1.06130  -0.71836  -0.43888
Cl    0.32006  -1.55675  -1.68480
H    -2.97415  -1.94085   2.88069
H    -2.91210  -2.44120   1.16539
H    -4.05722  -1.17966   1.68144
H    -1.33437  -0.41981   2.34667
H    -1.33004   0.72783  -2.49615
H    -2.42683   1.96272  -1.88109
H    -0.99417   2.46080  -2.85960
H     1.76923   1.32589   2.53467
H     5.00334  -1.33237   0.99142
H     3.70005  -2.45132   0.44618
H     4.28543  -1.14783  -0.65167
26

C    -3.04806  -1.58185   1.84805
N    -2.03779  -0.56541   1.63183
C    -1.93302   0.06231   0.44256
O    -2.73171  -0.13982  -0.47974
C    -0.75036   0.96341   0.28187
C    -0.51609   1.87966  -0.87771
C    -1.36578   1.74856  -2.10837
O     0.39127   2.70401  -0.80950
N    -0.00290   1.24758   1.36557
C     1.19933   0.83572   1.56979
C     1.86112  -0.32295   0.49793
O     3.13639  -0.50965   0.97950
C     4.04120  -1.42886   0.36502
C     1.05177  -0.70651  -0.43235
Cl    0.32705  -1.55749  -1.68245
H    -2.97427  -1.94069   2.88078
H    -2.91204  -2.44107   1.16547
H    -4.05725  -1.17956   1.68140
H    -1.33394  -0.42002   2.34634
H    -1.33007   0.72753  -2.49630
H    -2.42651   1.96243  -1.88064
H    -0.99419   2.46058  -2.85970
H     1.77201   1.32014   2.52872
H     5.00200  -1.33354   0.98936
H     3.69791  -2.45164   0.44465
H     4.28317  -1.14805  -0.65310
26

C    -3.04828  -1.58149   1.84834
N    -2.03803  -0.56499   1.63206
C    -1.93194   0.06070   0.44227
O    -2.73030  -0.14000  -0.48033
C    -0.74268   0.95568   0.27986
C    -0.51413   1.87813  -0.87906
C    -1.36500   1.74753  -2.10854
O     0.39021   2.70503  -0.80894
N    -0.00562   1.25285   1.37173
C     1.20933   0.81472   1.54800
C     1.84829  -0.30386   0.51356
O     3.13571  -0.51029   0.97959
C     4.03453  -1.43002   0.36034
C     1.04224  -0.69467  -0.42582
Cl    0.33403  -1.55822  -1.68010
H    -2.97439  -1.94053   2.88088
H    -2.91197  -2.44095   1.16554
H    -4.05729  -1.17946   1.68137
H    -1.33351  -0.42022   2.34602
H    -1.33010   0.72724  -2.49644
H    -2.42619   1.96214  -1.88020
H    -0.99422   2.46036  -2.85979
H     1.77479   1.31440   2.52277
H     5.00066  -1.33472   0.98729
H     3.69577  -2.45195   0.44312
H     4.28091  -1.14827  -0.65454
26

C    -3.04806  -1.58185   1.84805
N    -2.03779  -0.56541   1.63183
C    -1.93302   0.06231   0.44256
O    -2.73171  -0.13982  -0.47974
C    -0.75036   0.96341   0.28187
C    -0.51609   1.87966  -0.87771
C    -1.36578   1.74856  -2.10837
O     0.39127   2.70401  -0.80950
N    -0.00290   1.24758   1.36557
C     1.19933   0.83572   1.56979
C     1.86112  -0.32295   0.49793
O     3.13639  -0.50965   0.97950
C     4.04120  -1.42886   0.36502
C     1.05177  -0.70651  -0.43235
Cl    0.32705  -1.55749  -1.68245
H    -2.97427  -1.94069   2.88078
H    -2.91204  -2.44107   1.16547
H    -4.05725  -1.17956   1.68140
H    -1.33394  -0.42002   2.34634
H    -1.33007   0.72753  -2.49630
H    -2.42651   1.96243  -1.88064
H    -0.99419   2.46058  -2.85970
H     1.77201   1.32014   2.52872
H     5.00200  -1.33354   0.98936
H     3.69791  -2.45164   0.44465
H     4.28317  -1.14805  -0.65310
26

C    -3.04784  -1.58220   1.84776
N    -2.03755  -0.56583   1.63160
C    -1.93410   0.06392   0.44285
O    -2.73312  -0.13965  -0.47916
C    -0.75804   0.97114   0.28389
C    -0.51806   1.88120  -0.87635
C    -1.36657   1.74959  -2.10820
O     0.39233   2.70299  -0.81007
N    -0.00018   1.24232   1.35941
C     1.18934   0.85672   1.59158
C     1.87395  -0.34205   0.48231
O     3.13706  -0.50900   0.97942
C     4.04786  -1.42769   0.36970
C     1.06130  -0.71836  -0.43888
Cl    0.32006  -1.55675  -1.68480
H    -2.97415  -1.94085   2.88069
H    -2.91210  -2.44120   1.16539
H    -4.05722  -1.17966   1.68144
H    -1.33437  -0.41981   2.34667
H    -1.33004   0.72783  -2.49615
H    -2.42683   1.96272  -1.88109
H    -0.99417   2.46080  -2.85960
H     1.76923   1.32589   2.53467
H     5.00334  -1.33237   0.99142
H     3.70005  -2.45132   0.44618
H     4.28543  -1.14783  -0.65167
26

C    -3.04762  -1.58255   1.84747
N    -2.03731  -0.56625   1.63136
C    -1.93518   0.06552   0.44313
O    -2.73453  -0.13948  -0.47857
C    -0.76573   0.97887   0.28590
C    -0.52002   1.88273  -0.87500
C    -1.36735   1.75062  -2.10804
O     0.39339   2.70198  -0.81064
N     0.00254   1.23705   1.35326
C     1.17934   0.87772   1.61337
C     1.88679  -0.36115   0.46668
O     3.13774  -0.50836   0.97933
C     4.05453  -1.42653   0.37438
C     1.07084  -0.73020  -0.44540
Cl    0.31308  -1.55602  -1.68715
H    -2.97404  -1.94101   2.88059
H    -2.91217  -2.44133   1.16532
H    -4.05718  -1.17976   1.68147
H    -1.33480  -0.41961   2.34699
H    -1.33001   0.72812  -2.49601
H    -2.42715   1.96301  -1.88153
H    -0.99414   2.46102  -2.85951
H     1.76645   1.33164   2.54061
H     5.00467  -1.33119   0.99349
H     3.70219  -2.45101   0.44771
H     4.28770  -1.14761  -0.65023
26

C    -3.04740  -1.58290   1.84718
N    -2.03707  -0.56668   1.63113
C    -1.93626   0.06713   0.44342
O    -2.73594  -0.13930  -0.47799
C    -0.77341   0.98660   0.28791
C    -0.52199   1.88426  -0.87365
C    -1.36814   1.75165  -2.10787
O     0.39444   2.70096  -0.81120
N     0.00526   1.23179   1.34710
C     1.16934   0.89872   1.63516
C     1.89962  -0.38024   0.45105
O     3.13842  -0.50772   0.97924
C     4.06119  -1.42536   0.37906
C     1.08037  -0.74204  -0.45193
Cl    0.30610  -1.55529  -1.68951
H    -2.97392  -1.94116   2.88049
H    -2.91223  -2.44146   1.16524
H    -4.05714  -1.17986   1.68151
H    -1.33523  -0.41940   2.34732
H    -1.32998   0.72842  -2.49587
H    -2.42747   1.96331  -1.88197
H    -0.99412   2.46124  -2.85941
H     1.76367   1.33739   2.54656
H     5.00601  -1.33002   0.99556
H     3.70433  -2.45069   0.44924
H     4.28996  -1.14739  -0.64879
26

C    -3.04718  -1.58326   1.84689
N    -2.03683  -0.56710   1.63090
C    -1.93734   0.06874   0.44370
O    -2.73735  -0.13913  -0.47740
C    -0.78109   0.99433   0.28993
C    -0.52395   1.88580  -0.87229
C    -1.36892   1.75268  -2.10770
O     0.39550   2.69995  -0.81177
N     0.00798   1.22652   1.34094
C     1.15935   0.91972   1.65694
C     1.91245  -0.39934   0.43542
O     3.13910  -0.50708   0.97915
C     4.06786  -1.42420   0.38374
C     1.08991  -0.75389  -0.45846
Cl    0.29911  -1.55456  -1.69186
H    -2.97381  -1.94132   2.88039
H    -2.91230  -2.44159   1.16516
H    -4.05711  -1.17996   1.68154
H    -1.33566  -0.41920   2.34764
H    -1.32995   0.72871  -2.49572
H    -2.42779   1.96360  -1.88242
H    -0.99409   2.46147  -2.85931
H     1.76089   1.34313   2.55251
H     5.00735  -1.32884   0.99762
H     3.70647  -2.45037   0.45077
H     4.29223  -1.14717  -0.64736
26

C    -3.04696  -1.58361   1.84660
N    -2.03659  -0.56752   1.63067
C    -1.93842   0.07035   0.44399
O    -2.73876  -0.13895  -0.47682
C    -0.78877   1.00206   0.29194
C    -0.52592   1.88733  -0.87094
C    -1.36971   1.75370  -2.10753
O     0.39656   2.69893  -0.81233
N     0.01069   1.22126   1.33479
C     1.14935   0.94072   1.67873
C     1.92528  -0.41844   0.41980
O     3.13978  -0.50643   0.97906
C     4.07453  -1.42303   0.38842
C     1.09944  -0.76573  -0.46498
Cl    0.29213  -1.55383  -1.69421
H    -2.97369  -1.94148   2.88029
H    -2.91236  -2.44172   1.16509
H    -4.05707  -1.18007   1.68157
H    -1.33609  -0.41899   2.34797
H    -1.32993   0.72901  -2.49558
H    -2.42811   1.96389  -1.88286
H    -0.99407   2.46169  -2.85922
H     1.75811   1.34888   2.55846
H     5.00869  -1.32767   0.99969
H     3.70861  -2.45006   0.45230
H     4.29449  -1.14695  -0.64592
26

C    -3.04674  -1.58396   1.84631
N    -2.03635  -0.56794   1.63043
C    -1.93950   0.07196   0.44428
O    -2.74017  -0.13878  -0.47623
C    -0.79645   1.00978   0.29395
C    -0.52788   1.88886  -0.86959
C    -1.37049   1.75473  -2.10736
O     0.39762   2.69792  -0.81290
N     0.01341   1.21599   1.32863
C     1.13935   0.96172   1.70052
C     1.93811  -0.43754   0.40417
O     3.14045  -0.50579   0.97898
C     4.08119  -1.42186   0.39310
C     1.10898  -0.77757  -0.47151
Cl    0.28514  -1.55309  -1.69657
H    -2.97358  -1.94163   2.88019
H    -2.91242  -2.44185   1.16501
H    -4.05704  -1.18017   1.68161
H    -1.33652  -0.41878   2.34830
H    -1.32990   0.72930  -2.49544
H    -2.42843   1.96418  -1.88330
H    -0.99404   2.46191  -2.85912
H     1.75532   1.35463   2.56441
H     5.01002  -1.32649   1.00176
H     3.71075  -2.44974   0.45383
H     4.29675  -1.14673  -0.64449
26

C    -3.04652  -1.58431   1.84602
N    -2.03611  -0.56837   1.63020
C    -1.94058   0.07356   0.44456
O    -2.74158  -0.13860  -0.47564
C    -0.80413   1.01751   0.29596
C    -0.52985   1.89040  -0.86824
C    -1.37128   1.75576  -2.10719
O     0.39868   2.69690  -0.81347
N     0.01613   1.21073   1.32247
C     1.12935   0.98272   1.72231
C     1.95094  -0.45663   0.38854
O     3.14113  -0.50515   0.97889
C     4.08786  -1.42070   0.39778
C     1.11851  -0.78941  -0.47804
Cl    0.27816  -1.55236  -1.69892
H    -2.97346  -1.94179   2.88009
H    -2.91249  -2.44198   1.16494
H    -4.05700  -1.18027   1.68164
H    -1.33695  -0.41858   2.34862
H    -1.32987   0.72960  -2.49529
H    -2.42875   1.96447  -1.88374
H    -0.99402   2.46213  -2.85903
H     1.75254   1.36038   2.57036
H     5.01136  -1.32532   1.00382
H     3.71289  -2.44942   0.45537
H     4.29902  -1.14651  -0.64305
26

C    -3.04630  -1.58467   1.84573
N    -2.03587  -0.56879   1.62997
C    -1.94166   0.07517   0.44485
O    -2.74298  -0.13843  -0.47506
C    -0.81181   1.02524   0.29798
C    -0.53181   1.89193  -0.86688
C    -1.37206   1.75679  -2.10702
O     0.39974   2.69588  -0.81403
N     0.01885   1.20546   1.31632
C     1.11936   1.00372   1.74410
C     1.96378  -0.47573   0.37291
O     3.14181  -0.50451   0.97880
C     4.09453  -1.41953   0.40246
C     1.12804  -0.80126  -0.48456
Cl    0.27118  -1.55163  -1.70127
H    -2.97334  -1.94195   2.87999
H    -2.91255  -2.44211   1.16486
H    -4.05696  -1.18037   1.68168
H    -1.33738  -0.41837   2.34895
H    -1.32984   0.72989  -2.49515
H    -2.42907   1.96477  -1.88419
H    -0.99399   2.46235  -2.85893
H     1.74976   1.36612   2.57631
H     5.01270  -1.32415   1.00589
H     3.71502  -2.44911   0.45690
H     4.30128  -1.14629  -0.64161
26

C    -3.04608  -1.58502   1.84544
N    -2.03563  -0.56921   1.62973
C    -1.94274   0.07678   0.44513
O    -2.74439  -0.13825  -0.47447
C    -0.81950   1.03297   0.29999
C    -0.53378   1.89347  -0.86553
C    -1.37285   1.75782  -2.10685
O     0.40079   2.69487  -0.81460
N     0.02157   1.20020   1.31016
C     1.10936   1.02472   1.76589
C     1.97661  -0.49483   0.35729
O     3.14249  -0.50387   0.97871
C     4.10119  -1.41837   0.40713
C     1.13758  -0.81310  -0.49109
Cl    0.26419  -1.55090  -1.70362
H    -2.97323  -1.94211   2.87989
H    -2.91262  -2.44224   1.16479
H    -4.05693  -1.18047   1.68171
H    -1.33781  -0.41817   2.34927
H    -1.32981   0.73019  -2.49501
H    -2.42939   1.96506  -1.88463
H    -0.99397   2.46257  -2.85884
H     1.74698   1.37187   2.58226
H     5.01403  -1.32297   1.00796
H     3.71716  -2.44879   0.45843
H     4.30354  -1.14607  -0.64018
26

C    -3.04586  -1.58537   1.84515
N    -2.03539  -0.56963   1.62950
C    -1.94382   0.07839   0.44542
O    -2.74580  -0.13808  -0.47389
C    -0.82718   1.04070   0.30200
C    -0.53574   1.89500  -0.86418
C    -1.37363   1.75885  -2.10668
O     0.40185   2.69385  -0.81516
N     0.02429   1.19493   1.30400
C     1.09936   1.04571   1.78767
C     1.98944  -0.51392   0.34166
O     3.14317  -0.50322   0.97863
C     4.10786  -1.41720   0.41181
C     1.14711  -0.82494  -0.49762
Cl    0.25721  -1.55017  -1.70598
H    -2.97311  -1.94226   2.87980
H    -2.91268  -2.44237   1.16471
H    -4.05689  -1.18057   1.68175
H    -1.33823  -0.41796   2.34960
H    -1.32978   0.73048  -2.49486
H    -2.42971   1.96535  -1.88507
H    -0.99394   2.46279  -2.85874
H     1.74420   1.37762   2.58821
H     5.01537  -1.32180   1.01002
H     3.71930  -2.44847   0.45996
H     4.30581  -1.14585  -0.63874
26

C    -3.04564  -1.58572   1.84486
N    -2.03515  -0.57005   1.62927
C    -1.94490   0.08000   0.44571
O    -2.74721  -0.13790  -0.47330
C    -0.83486   1.04843   0.30402
C    -0.53770   1.89653  -0.86282
C    -1.37442   1.75988  -2.10651
O     0.40291   2.69284  -0.81573
N     0.02701   1.18966   1.29785
C     1.08936   1.06671   1.80946
C     2.00227  -0.53302   0.32603
O     3.14384  -0.50258   0.97854
C     4.11453  -1.41604   0.41649
C     1.15665  -0.83679  -0.50414
Cl    0.25022  -1.54943  -1.70833
H    -2.97300  -1.94242   2.87970
H    -2.91275  -2.44250   1.16463
H    -4.05685  -1.18067   1.68178
H    -1.33866  -0.41776   2.34993
H    -1.32976   0.73078  -2.49472
H    -2.43003   1.96564  -1.88552
H    -0.99391   2.46301  -2.85864
H     1.74142   1.38337   2.59416
H     5.01671  -1.32062   1.01209
H     3.72144  -2.44816   0.46149
H     4.30807  -1.14563  -0.63731
26

C    -3.04542  -1.58608   1.84457
N    -2.03491  -0.57048   1.62904
C    -1.94598   0.08160   0.44599
O    -2.74862  -0.13773  -0.47272
C    -0.84254   1.05616   0.30603
C    -0.53967   1.89807  -0.86147
C    -1.37520   1.76091  -2.10634
O     0.40397   2.69182  -0.81630
N     0.02973   1.18440   1.29169
C     1.07937   1.08771   1.83125
C     2.01510  -0.55212   0.31040
O     3.14452  -0.50194   0.97845
C     4.12119  -1.41487   0.42117
C     1.16618  -0.84863  -0.51067
Cl    0.24324  -1.54870  -1.71068
H    -2.97288  -1.94258   2.87960
H    -2.91281  -2.44263   1.16456
H    -4.05682  -1.18077   1.68182
H    -1.33909  -0.41755   2.35025
H    -1.32973   0.73107  -2.49458
H    -2.43035   1.96594  -1.88596
H    -0.99389   2.46323  -2.85855
H     1.73864   1.38911   2.60011
H     5.01804  -1.31945   1.01416
H     3.72358  -2.44784   0.46302
H     4.31033  -1.14541  -0.63587
26

C    -3.04519  -1.58643   1.84428
N    -2.03467  -0.57090   1.62880
C    -1.94706   0.08321   0.44628
O    -2.75003  -0.13756  -0.47213
C    -0.85022   1.06389   0.30804
C    -0.54163   1.89960  -0.86012
C    -1.37599   1.76193  -2.10618
O     0.40503   2.69080  -0.81686
N     0.03245   1.17913   1.28553
C     1.06937   1.10871   1.85304
C     2.02794  -0.57122   0.29477
O     3.14520  -0.50130   0.97836
C     4.12786  -1.41370   0.42585
C     1.17571  -0.86047  -0.51720
Cl    0.23626  -1.54797  -1.71303
H    -2.97277  -1.94273   2.87950
H    -2.91288  -2.44276   1.16448
H    -4.05678  -1.18087   1.68185
H    -1.33952  -0.41735   2.35058
H    -1.32970   0.73136  -2.49443
H    -2.43067   1.96623  -1.88640
H    -0.99386   2.46345  -2.85845
H     1.73586   1.39486   2.60605
H     5.01938  -1.31827   1.01622
H     3.72572  -2.44752   0.46455
H     4.31260  -1.14519  -0.63443
26

C    -3.04497  -1.58678   1.84399
N    -2.03443  -0.57132   1.62857
C    -1.94814   0.08482   0.44656
O    -2.75144  -0.13738  -0.47155
C    -0.85790   1.07162   0.31005
C    -0.54360   1.90113  -0.85876
C    -1.37677   1.76296  -2.10601
O     0.40609   2.68979  -0.81743
N     0.03517   1.17387   1.27938
C     1.05937   1.12971   1.87483
C     2.04077  -0.59031   0.27915
O     3.14588  -0.50065   0.97828
C     4.13452  -1.41254   0.43053
C     1.18525  -0.87232  -0.52372
Cl    0.22927  -1.54724  -1.71539
H    -2.97265  -1.94289   2.87940
H    -2.91294  -2.44289   1.16441
H    -4.05675  -1.18097   1.68189
H    -1.33995  -0.41714   2.35090
H    -1.32967   0.73166  -2.49429
H    -2.43099   1.96652  -1.88684
H    -0.99384   2.46368  -2.85836
H     1.73308   1.40061   2.61200
H     5.02072  -1.31710   1.01829
H     3.72786  -2.44721   0.46608
H     4.31486  -1.14497  -0.63300
26

C    -3.04475  -1.58713   1.84370
N    -2.03419  -0.57174   1.62834
C    -1.94922   0.08643   0.44685
O    -2.75285  -0.13721  -0.47096
C    -0.86558   1.07935   0.31207
C    -0.54556   1.90267  -0.85741
C    -1.37756   1.76399  -2.10584
O     0.40715   2.68877  -0.81799
N     0.03788   1.16860   1.27322
C     1.04938   1.15071   1.89662
C     2.05360  -0.60941   0.26352
O     3.14656  -0.50001   0.97819
C     4.14119  -1.41137   0.43521
C     1.19478  -0.88416  -0.53025
Cl    0.22229  -1.54651  -1.71774
H    -2.97254  -1.94305   2.87930
H    -2.91301  -2.44302   1.16433
H    -4.05671  -1.18107   1.68192
H    -1.34038  -0.41693   2.35123
H    -1.32964   0.73195  -2.49415
H    -2.43131   1.96681  -1.88729
H    -0.99381   2.46390  -2.85826
H     1.73030   1.40636   2.61795
H     5.02205  -1.31592   1.02036
H     3.73000  -2.44689   0.46761
H     4.31712  -1.14475  -0.63156
26

C    -3.04453  -1.58749   1.84341
N    -2.03395  -0.57217   1.62811
C    -1.95030   0.08804   0.44714
O    -2.75426  -0.13703  -0.47038
C    -0.87326   1.08708   0.31408
C    -0.54753   1.90420  -0.85606
C    -1.37834   1.76502  -2.10567
O     0.40820   2.68776  -0.81856
N     0.04060   1.16334   1.26706
C     1.03938   1.17171   1.91840
C     2.06643  -0.62851   0.24789
O     3.14723  -0.49937   0.97810
C     4.14786  -1.41021   0.43989
C     1.20432  -0.89600  -0.53677
Cl    0.21530  -1.54577  -1.72009
H    -2.97242  -1.94321   2.87920
H    -2.91307  -2.44315   1.16426
H    -4.05667  -1.18117   1.68196
H    -1.34081  -0.41673   2.35156
H    -1.32961   0.73225  -2.49400
H    -2.43163   1.96711  -1.88773
H    -0.99379   2.46412  -2.85816
H     1.72752   1.41210   2.62390
H     5.02339  -1.31475   1.02242
H     3.73214  -2.44657   0.46914
H     4.31939  -1.14453  -0.63012
26

C    -3.04431  -1.58784   1.84312
N    -2.03371  -0.57259   1.62787
C    -1.95138   0.08964   0.44742
O    -2.75567  -0.13686  -0.46979
C    -0.88095   1.09481   0.31609
C    -0.54949   1.90573  -0.85471
C    -1.37913   1.76605  -2.10550
O     0.40926   2.68674  -0.81912
N     0.04332   1.15807   1.26090
C     1.02938   1.19271   1.94019
C     2.07926  -0.64760   0.23226
O     3.14791  -0.49873   0.97801
C     4.15452  -1.40904   0.44457
C     1.21385  -0.90784  -0.54330
Cl    0.20832  -1.54504  -1.72245
H    -2.97230  -1.94336   2.87910
H    -2.91314  -2.44328   1.16418
H    -4.05664  -1.18127   1.68199
H    -1.34124  -0.41652   2.35188
H    -1.32958   0.73254  -2.49386
H    -2.43195   1.96740  -1.88817
H    -0.99376   2.46434  -2.85807
H     1.72474   1.41785   2.62985
H     5.02473  -1.31357   1.02449
H     3.73428  -2.44626   0.47068
H     4.32165  -1.14431  -0.62869
26

C    -3.04409  -1.58819   1.84283
N    -2.03347  -0.57301   1.62764
C    -1.95246   0.09125   0.44771
O    -2.75708  -0.13668  -0.46921
C    -0.88863   1.10254   0.31811
C    -0.55146   1.90727  -0.85335
C    -1.37991   1.76708  -2.10533
O     0.41032   2.68572  -0.81969
N     0.04604   1.15281   1.25475
C     1.01938   1.21371   1.96198
C     2.09210  -0.66670   0.21664
O     3.14859  -0.49808   0.97793
C     4.16119  -1.40787   0.44925
C     1.22339  -0.91969  -0.54983
Cl    0.20134  -1.54431  -1.72480
H    -2.97219  -1.94352   2.87900
H    -2.91320  -2.44341   1.16410
H    -4.05660  -1.18137   1.68203
H    -1.34167  -0.41632   2.35221
H    -1.32956   0.73284  -2.49372
H    -2.43227   1.96769  -1.88862
H    -0.99374   2.46456  -2.85797
H     1.72196   1.42360   2.63580
H     5.02606  -1.31240   1.02655
H     3.73642  -2.44594   0.47221
H     4.32391  -1.14409  -0.62725
