15

C -2.743840135 0.072066709 -0.409396938
C -1.817557843 -1.406717437 1.890928198
O 0.240341113 -2.873963728 1.009724208
C 1.562571106 -1.419023542 -0.772274791
C 3.015971866 0.884335701 0.270206364
C 1.104821084 2.758418276 -0.664140599
C -0.288930602 0.568363931 -1.896361104
H -3.991343781 -1.093275085 -1.563227919
H -3.729649972 1.808031261 0.098717176
H -3.220747237 -2.690694801 2.677879982
H 2.599570941 -2.706419760 -1.999721262
H 3.729566352 0.982206356 2.204000448
H 4.630484343 1.314720675 -0.978616443
H -1.202385603 -0.110324309 3.391502474
H -0.634281679 0.721811412 -3.921274003

