14

C 2.395223195 -0.601663495 -1.109735884
C 0.405279433 -2.537785325 -0.402494355
C -2.362620450 -0.529630423 -0.410268121
C -0.856085562 -1.433422782 1.826411115
N 0.039561152 1.249040031 2.412852885
C 1.504218990 1.804742609 0.130085987
C -1.268184261 2.076072093 0.071330566
H 2.700338130 -0.424580378 -3.140300273
H 4.158675912 -1.264534708 -0.258543352
H -1.436943418 -1.911237198 -2.078840466
H -4.334394590 -1.008207854 -0.671750432
H -1.581710536 -2.518038254 3.396853404
H 2.672397943 3.480263893 0.245090392
H -2.280879855 3.844186103 -0.067220714

