15

C 3.556401468 -0.024376409 0.821435355
C 1.339918642 -0.352039650 -0.962101201
O 0.191487177 -2.783371713 -0.719294562
C -2.283267637 -1.813922048 -0.183196400
N -4.126600437 -3.001136949 0.849960147
C -0.962624258 0.968066140 -0.000093107
N -1.660494239 3.350926558 -0.087082945
H 2.960133860 -0.340903418 2.768624668
H 4.356709005 1.870645087 0.657801778
H 5.014374779 -1.401073373 0.349068736
H 1.913245599 -0.006856323 -2.924533574
H -3.503713844 -4.552004131 1.785034711
H -2.812346902 -0.737706050 -2.026106525
H -0.983554146 4.595346095 -1.362728563
H -3.116302981 3.938512689 0.988640382

