19

C 3.690337584 -0.024790863 1.837007358
C 2.167774852 -0.703413247 -0.510123914
C 0.005089524 1.138166379 -1.053877602
C -1.305151934 0.539396433 -3.562237283
C -1.944372960 1.223991069 1.062058566
C -3.033245569 -1.247457518 1.995666533
O -2.617703940 3.210821942 1.955448380
H 5.219503907 -1.372165345 2.148389134
H 2.519078623 -0.010450809 3.538203293
H 4.526294142 1.853505706 1.657739207
H 1.419655674 -2.625937571 -0.345891804
H 3.414680777 -0.724605561 -2.159101576
H 0.768510835 3.055947963 -1.155154828
H -2.063686431 -1.380721363 -3.588623037
H 0.040255853 0.698053435 -5.117471981
H -4.712105980 -0.872465217 3.120214147
H -1.640264532 -2.205879819 3.181629944
H -3.489984871 -2.523801068 0.442216454
H -2.854367911 1.850214786 -3.928473821

