14

C -2.819962877 1.417249202 -1.135061464
C -0.980946797 -0.598299215 -0.379172054
C 0.959525183 0.178658261 1.507286961
N 3.001649593 1.944107019 0.548408480
C 3.659334416 -0.407161978 1.341591522
O 5.415233916 -1.759033044 1.718628923
C -1.011929083 -2.940829590 -1.267075407
H -4.187088662 0.718366876 -2.506475284
H -1.819057057 3.020940844 -1.967397610
H -3.849690931 2.127912459 0.510513764
H 0.255042975 0.564452860 3.404522989
H 3.525816837 3.516016831 1.499612235
H 0.373650218 -4.324821332 -0.670132335
H -2.426320434 -3.544669898 -2.619812950

