11

O 3.368399419 -2.257319411 -0.580926339
C 1.592798410 -0.866044532 -0.383303033
O -1.954765225 -3.787871716 -0.913632428
C -1.227462911 -1.682635196 -0.563102102
C -2.804844520 0.687206937 -0.212891367
C -0.846520468 2.710948564 0.154640219
C 1.533393962 1.881130630 0.061055124
H -4.066840664 0.488010225 1.409466497
H -3.996581308 1.018342757 -1.866761228
H -1.368592874 4.666330048 0.466059696
H 3.220730343 3.012073209 0.273429065

