16

C 4.725859558 -1.006536126 0.362645983
C 2.034331955 -0.288818276 -0.163218858
C -0.151647422 -1.928680769 -0.064352242
C -2.215220073 -0.142871648 0.004668436
C -4.949337020 -0.869607970 -0.033270745
C -1.290838222 2.263578070 0.187361640
N 1.270151598 2.230574986 0.119104581
H 5.114718688 -0.846229185 2.380949017
H 5.015977267 -2.967459931 -0.185641611
H 6.067185158 0.181688701 -0.661677152
H 1.387208963 -1.099916981 -2.188435946
H -6.183048216 0.752241445 0.293364277
H -5.343662958 -2.281677924 1.416335387
H -5.461669381 -1.708025348 -1.848317917
H -2.294121279 4.043508726 0.298393027
H 2.391758156 3.760318583 0.091565319

