15

C 4.460429533 0.426138910 0.846775618
N 2.062053840 -0.269129655 -0.735598608
C 0.942101133 -2.568309126 0.201060265
C -1.513269683 -2.228999370 0.591284344
C -2.159126312 0.368437144 -0.129428438
N -4.531524961 1.370398129 0.244972397
C -0.039033654 1.487001828 -0.956378033
H 2.805270842 -0.629822379 -2.475354707
H 5.051548885 2.215821611 -0.031751991
H 3.645013183 0.931916360 2.690630928
H 2.196441185 -4.131175162 0.558140400
H -2.812191265 -3.599467930 1.365965550
H -5.975912501 0.142468002 0.127852633
H -4.890778035 3.025498164 -0.615297623
H 0.351938342 3.393117075 -1.549864342

