15

C 4.793715579 0.490123317 0.334600104
N 1.860862467 -0.218471351 -0.574233515
C 0.835804794 -2.472711321 0.339592799
C -1.661350946 -2.170798168 0.674442649
C -2.299949308 0.385229741 -0.081491567
N -4.708733027 1.392214980 0.120068133
C -0.140648366 1.527183698 -0.837451048
H 3.388795366 -0.544677292 -1.902474935
H 4.782835046 2.531211534 0.032944314
H 4.771086713 0.101577126 2.359031009
H 2.068182581 -4.061294243 0.671549422
H -2.968539985 -3.573551791 1.370999006
H -6.115685243 0.135310135 -0.114310497
H -5.007214966 2.983011829 -0.876785565
H 0.227810320 3.420366472 -1.484630883

