15

C -2.955913516 1.856140003 -2.078401162
C -1.376314975 0.321439258 -0.850551820
C -2.082153837 -0.886028650 1.618738321
N 0.945358076 -0.378016846 -1.882997263
C 3.192104375 -0.853176725 -0.519091912
C 3.529277927 -0.373510699 2.132565342
N 4.568649443 1.301645433 0.844309450
H 3.225811155 -0.852024824 4.098186837
H -4.835494400 2.207127586 -1.363041293
H -2.425066506 2.763970254 -3.835242917
H -1.578162934 -2.886474509 1.638794136
H -1.143431402 0.028345873 3.213051063
H -4.108274591 -0.708754482 1.923695331
H 1.266245307 0.371829410 -3.604582436
H 4.436360602 -2.172994710 -1.476305090

