16

C -3.575436415 -1.323036264 -1.275650531
C -2.494872611 0.080645140 0.977649395
N -0.254962321 -1.190901700 1.975811219
C 1.562666424 0.422479607 3.357993435
H 1.113034136 2.423675195 3.494810173
H 2.373310611 -0.412208870 5.044539646
C 2.086426167 -0.607211390 0.885886033
C 3.513853548 -1.007677483 -1.107801088
O 2.842384572 -2.398272117 -3.175010045
H 1.311567497 -3.301809250 -2.801530677
H 5.399031328 -0.234967526 -1.255609154
H -2.051080938 2.039655011 0.443012275
H -3.883221608 0.147094808 2.504524973
H -5.370348725 -0.491539780 -1.856741976
H -3.903019418 -3.305347517 -0.808792331
H -2.302978539 -1.218535600 -2.898017844

