18

C -3.870204589 -1.451198019 -1.520713144
C -2.926651768 -0.266255400 0.912207612
N -0.228527264 -0.708622277 1.215913094
C 1.201219245 1.032995920 2.792907932
C 1.505169731 1.058977840 0.024725158
C 3.401226041 0.048734071 -1.599932353
O 3.946964281 -2.393696845 -1.588584491
H -5.899331652 -1.156193025 -1.739687067
H -3.501099711 -3.480013202 -1.532513595
H -2.922798144 -0.615910763 -3.152390722
H -3.340264062 1.770608693 0.918796161
H -3.890873071 -1.095786701 2.540873761
H 0.195297960 2.618198292 3.631692163
H 2.616879547 0.181847079 4.011660416
H 2.279014185 3.360323278 -0.654695313
H 3.901590426 0.949929607 -3.355442531
H 4.258745716 3.276939377 -0.813193636
H 3.104818794 -3.134972946 -0.136625404

