10

C -2.870380411 -0.496957455 0.146729599
C -0.071460182 -0.345599765 0.192062031
N 1.446421868 -1.995242649 1.258600496
O 3.747667490 -1.851733275 1.286598791
N 3.946792071 1.456764660 -0.800199066
C 1.628039100 1.443919172 -0.915912496
H -3.724486466 1.140540820 1.062906562
H -3.460144489 -2.190970881 1.153944175
H -3.585231848 -0.599174158 -1.784458855
H 3.010837593 3.387300536 -1.579694009

