14

C -2.784053394 1.909130796 -0.489850649
C -1.301632772 -0.546366650 -0.335388328
N 0.769115434 -0.747041392 -2.063867429
C 3.067464200 -0.752166556 -0.821812506
N 5.185958094 -0.592393179 -1.925212573
C 2.557780347 -0.928564477 1.980205040
N 0.101582965 -0.781439112 2.059029504
H -3.748031168 2.043944652 -2.307514789
H -1.517174291 3.521836847 -0.282027017
H -4.222916924 1.988619045 0.987244895
H -2.595349028 -2.159043864 -0.498871521
H -0.864863661 -0.835218488 3.701801910
H 0.639361584 -0.167937428 -3.866058076
H 6.568057672 -0.674147871 -0.597076884

