11

C 3.897035260 -0.296254746 0.257444382
C 3.007435443 1.243952662 1.811759521
C 0.707327077 0.816436613 -0.451531368
C -1.552628690 -0.286125738 0.962935364
C -3.779887925 -0.425663455 -0.667369045
N -5.493611497 -0.517810545 -1.991121629
H 4.850903775 -1.615768711 -0.944197784
H 0.416747028 2.768472829 -1.014661646
H 0.963628080 -0.235564264 -2.223423752
H -1.110949202 -2.180619226 1.646330363
H -1.980405407 0.874786103 2.610080690

