12

N 3.906905338 0.279108164 -0.013602343
C 2.228364989 1.782770876 0.828791473
C -0.125792851 2.445245455 -0.140444087
N -2.234253149 1.203947764 0.058334371
C -2.539885850 -1.630104230 0.375949107
O -4.683336487 -2.210098727 1.006148921
N -0.448328981 -2.782388413 -0.202695104
H 3.423274572 -1.004408200 -1.368126603
H 5.499447520 -0.036169547 0.987391254
H -0.209823662 4.384684416 -0.825260085
H -3.893410917 2.122283210 -0.144029237
H -0.748054719 -4.660457346 0.040181681

