12

C -1.238438479 -3.807511262 0.211830173
H -1.040347371 -5.835551714 0.029211254
H -3.163150747 -3.167813533 0.506884772
C 0.557718594 -2.234737203 -1.236190630
H 1.775068466 -2.985223848 -2.691836762
C 0.913751859 -2.569708506 1.632308237
H 2.273729452 -3.666479395 2.690320710
C 0.363547099 0.179602594 1.933920072
O 0.587565514 1.632060815 3.646839490
C -0.136792588 0.551130253 -0.910764220
H -2.031945042 1.114137510 -1.494970765
H 1.246182633 1.873009569 -1.677728654

