11

O 4.761763787 0.139832080 0.427502933
C 2.560941670 0.470447451 0.080931716
N 0.761457092 -1.560281684 -0.613343835
C -1.630592498 -0.693472890 0.611323434
C -1.424171307 1.795507933 -0.771613576
O 1.200491210 2.508309849 0.070667650
H 1.455266505 -3.341369004 -0.467010814
H -3.212881592 -1.851948440 -0.005017998
H -1.405339033 -0.720571166 2.672188391
H -2.642721306 3.334592710 -0.172266337
H -0.015005673 -0.604918642 -2.419231466

