11

O 4.507504010 -1.698300969 -0.125740109
C 2.168097466 -0.806683510 -0.059027202
C 1.823253629 1.848989544 -0.025719664
C -0.682408601 2.422530890 0.038983519
N -2.545405267 0.595464607 0.065826833
C -1.930768822 -1.847405784 0.029538422
N 0.398006047 -2.633845546 -0.032626859
H 5.561624309 -0.202941695 -0.137561101
H -1.432740894 4.333582518 0.075829702
H -4.384178914 1.088955964 0.114036940
H -3.466644391 -3.204995255 0.054446959

