11

O 4.547374491 -1.641814995 -0.108156188
C 2.187685101 -1.160449803 -0.046246360
C 1.934521629 1.539132626 -0.031355432
C -0.459611308 2.376769566 0.032024811
N -2.408104135 0.603328551 0.076003027
C -1.936837431 -1.881191403 0.056338632
N 0.309631021 -2.890433391 -0.003571148
H 4.581012825 0.732947550 -0.101463666
H -1.075622699 4.329015276 0.053997129
H -4.218178833 1.183201085 0.122811184
H -3.583145723 -3.105660138 0.093388394

