16

C -1.245974102 -0.635173025 -1.418075768
C -1.688905761 2.015968182 -0.408529875
C -0.577491705 1.757731967 2.233171546
O 1.504212320 0.085825106 1.979477873
C 1.339689456 -1.362861354 -0.265773766
O 1.523360971 -3.941096115 0.246480493
N 3.530921327 -0.810568182 -1.768338509
H -2.702041037 -1.916646483 -0.701334850
H -1.223693588 -0.790499669 -3.469622259
H 0.182557729 -4.391762914 1.380035241
H -0.630616820 3.412106347 -1.503022699
H -3.668077120 2.585216997 -0.396791331
H 0.114666937 3.531385123 3.022940609
H -1.971286988 0.963384684 3.548790540
H 3.600121057 -1.937988086 -3.307596669
H 3.553638953 1.020469776 -2.304316975

