16

C -1.899354260 -0.684360480 -1.597126147
C -2.312075416 1.723796436 -0.088232598
C -0.361187171 1.801432678 2.044724863
O 2.033565010 1.159539484 0.935247871
C 2.186681543 -1.130104373 -0.023533024
O 1.330917461 -3.184096849 1.123042712
N 4.089086180 -1.408467739 -1.648453830
H -3.539489969 -1.948538143 -1.489557418
H -1.542252412 -0.333551250 -3.595365089
H -0.439183690 -2.764377509 0.148668779
H -2.060899255 3.417786183 -1.245642719
H -4.190507554 1.862341593 0.764557131
H -0.079611081 3.661377720 2.877088712
H -0.788932009 0.436829639 3.531393079
H 4.384135451 -3.137075512 -2.365415411
H 4.830192641 0.112964275 -2.503903310

