16

C -2.528033091 0.114679013 -0.816219862
C -1.155611915 -1.001486495 1.518337475
O -0.607815082 -3.595999659 1.515737892
C 1.163706746 0.707766571 0.974010236
C 3.388974814 -0.609300199 -0.285778765
C -0.499695252 2.150491889 -0.860617390
N -0.210627305 4.289213241 -1.850163083
H -1.711505544 4.741711771 -2.969145586
H -4.487587884 0.720191785 -0.614795523
H -2.356125839 -1.147880667 -2.441835482
H -2.089536921 -0.441070109 3.277679734
H -2.121824139 -4.520122278 1.880663641
H 1.807403022 1.824266560 2.583853200
H 4.761237234 0.796717945 -0.906697228
H 2.792651950 -1.703897506 -1.928052378
H 4.304692045 -1.904677959 1.028311081

