14

C 2.134463308 -3.023987082 -0.791526829
C 2.717039832 -1.521910606 0.978924563
C 2.314233729 0.716052113 2.108718340
C -0.724000584 1.978534711 -0.254129103
C -3.016317251 0.375825595 0.089465436
C -1.366576706 0.470574478 -2.200009743
H 2.719980661 -4.858561777 -1.442320690
H 1.288795598 0.779841406 3.882531537
H 3.662123935 2.230551951 1.803516006
H -0.292360247 3.950480438 -0.001402063
H -4.878025275 1.250445931 0.080666210
H -2.874968609 -1.276642543 1.310469887
H 0.473875093 -1.895901995 -1.907139006
H -1.603534360 0.669411008 -4.212121373

