12

C -1.844064616 0.837061160 -0.264846912
C 0.574231342 2.247633790 0.175709740
C 2.609541249 0.796992031 0.413291456
C 2.284802416 -2.024530399 0.352028500
O 0.227953618 -2.603556524 1.992467851
C -1.125265956 -1.922271328 -0.174764480
H -3.264649184 1.263403934 1.177082265
H -2.672208630 1.318624982 -2.097908181
H 0.613401491 4.296036683 0.196845514
H 4.517129027 1.520946468 0.575456773
H 0.497352975 -2.312024960 -1.748613755
H -2.514871866 -3.352507994 -0.684381040

