11

O -0.146845099 -1.476688799 3.556344285
C -0.049387255 -0.415852677 1.232919704
C 1.622221975 -0.883543509 -1.069820768
C -0.271199207 1.090274256 -1.983493844
N -2.358899503 0.148135234 -0.320891710
C -0.736451782 2.189436197 0.543878580
H 3.598400518 -0.315504838 -0.917091723
H 1.424652733 -2.743798448 -1.946492345
H -0.675395865 1.891288380 -3.814400750
H -0.769077488 -3.175477109 3.403355082
H -1.300848404 3.939126699 1.410826080

