14

C 2.649023089 -0.272076040 -2.341273121
C 1.274054241 1.237150158 1.899006740
C -1.165662310 1.886958677 1.957296627
O -3.166898792 1.059985801 0.625295238
C -3.086796250 -1.333546637 -0.556566560
C 2.703224441 -0.388096210 0.165610854
H 1.472416619 1.084799720 -3.327571471
H 3.817871666 -1.502241373 -3.485839719
H 2.388034696 2.117230026 3.380626420
H -1.779731063 3.302836638 3.307221445
H -2.115298537 -2.707053744 0.640840503
H -2.128765103 -1.260339819 -2.382063728
H -5.046340063 -1.899913449 -0.826398588
H 4.016143186 -1.698215478 1.052108006

