16

C 3.192312755 1.411892339 0.150418231
C 2.138356181 -0.835547829 1.443347076
C -0.718537330 -0.680476129 1.890949306
C -1.759480058 -2.266591239 -0.356772299
C -0.891467906 0.083345124 -1.863646865
C -1.793052082 1.614818273 0.437502835
N 1.909313627 -0.126744196 -1.782426228
H 5.222431887 1.474366363 -0.139041135
H 2.387548734 3.269181692 0.414249774
H 2.488047223 -2.046131896 -0.838017720
H -1.278094022 -1.106604022 3.822770158
H -0.825129202 -4.055927288 -0.778565217
H -3.804681000 -2.502390074 -0.326384652
H -1.533467794 0.473636043 -3.778348536
H -1.096734001 3.518374472 0.776916393
H -3.849159975 1.641693618 0.489783242

