10

C 1.538078196 1.827186905 0.245552317
C 1.901362567 -0.759987886 -0.533646771
N 1.699076550 -2.522476615 1.350468208
N -0.700656930 -2.924848610 1.129216107
C -1.800928423 -0.934813631 -0.252711997
C -1.010785346 1.695385802 0.081463391
H 2.798561936 3.156570021 1.135531175
H 1.611166623 -1.391822616 -2.475332314
H -3.664009353 -1.355695569 -0.996562530
H -2.371867711 3.210504090 0.316022415

