12

C -2.430292619 -0.657063046 0.055571913
C 0.383017231 -0.491604655 0.260132574
N 1.339474802 1.958471942 0.675876838
O 0.315364733 3.752534650 -1.020570725
C 1.915054181 -2.486003786 0.256070494
H -3.030593338 -2.623450465 -0.004982168
H -3.090033275 0.289947180 -1.651813423
H -3.326172582 0.267593383 1.669566171
H -0.444573548 4.989749021 0.065976329
H 3.950673984 -2.279480683 0.359237692
H 1.160836667 -4.383651227 0.216305498
H 3.234578369 2.005665169 0.417953467

