15

C -2.439772582 -0.023746034 1.890452554
C -0.358229542 -0.820256430 0.084169384
C -1.096129100 -0.666662571 -2.684210546
N 1.887996950 0.767893045 0.461259111
C 4.460692224 -0.319057561 0.189619050
O 3.234376150 0.351175024 2.674526190
H -4.048291585 -1.298656548 1.711410320
H -3.105709082 1.888410686 1.474767760
H -1.775764150 -0.086234193 3.839629463
H 0.320162030 -2.713754543 0.530758363
H 0.484285462 -1.225203007 -3.882750783
H -1.690757825 1.243994991 -3.202828457
H -2.676363458 -1.934311510 -3.056315118
H 1.587045687 2.647222558 0.193366056
H 5.636932352 1.358842265 -0.229203181

