15

C -2.636305346 0.189607787 1.737503262
C -0.431809714 -0.770504099 0.169660821
C -0.962833564 -0.847782653 -2.653299445
N 1.781998394 0.816762232 0.602959525
C 4.290497405 0.099300308 -0.290272232
O 4.193129398 -0.274446021 2.260305065
H -4.281724899 -1.016147349 1.453923023
H -3.163298410 2.109262298 1.182987168
H -2.181019980 0.181511615 3.750054422
H 0.105988105 -2.655711850 0.818368499
H 0.763105613 -1.330063834 -3.671350145
H -1.660069409 0.974487940 -3.325198598
H -2.388548966 -2.278596461 -3.062347200
H 1.568662790 2.285128432 1.819541243
H 5.387781845 1.793899001 -0.811339606

