10

C -5.097746340 -0.242817694 -0.623651157
C -2.373334535 -0.638089799 0.027220201
C -1.580679029 -1.401696303 2.277680435
O 0.850590975 -1.799135942 2.997884616
H 1.955999519 -1.441532542 1.602973016
H -2.873204021 -1.796614726 3.818763617
H -0.984612091 -0.270831032 -1.445517766
H -5.467118425 1.712283336 -1.178956287
H -5.678055192 -1.444226120 -2.200557197
H -6.316671450 -0.680870987 0.981315804

