18

C -3.541725024 1.597037330 1.066902804
C -2.256872094 -0.534257833 -0.319695683
C -0.559456915 -2.057479002 0.921303507
O 0.180032054 -4.354460061 -0.002845058
C 3.279906871 0.156034176 0.861771200
C 3.431562136 1.666907913 -1.238038424
H -4.095579808 3.108092405 -0.222024017
H -5.237783700 0.948762626 2.049669426
H -2.269945200 2.416067139 2.470301787
H -3.304199810 -1.378799153 -1.876441123
H -0.667739261 0.946449355 -2.150893550
H -0.248342459 -1.913247092 2.931593326
H -0.329433971 -4.489434600 -1.738860539
H 3.014458989 1.005514559 2.704995511
H 4.044154540 -1.738043629 0.837394413
H 4.343798037 0.972347315 -2.937200975
H 0.803913398 1.661322676 -2.470018669
H 3.396633969 3.707297762 -1.046958974

