15

C 2.655303027 0.561904148 2.001905445
C 0.705033668 0.983964860 -0.022124195
C -0.697376082 -1.350873441 -0.871234854
C -2.478397204 -2.343731654 1.083159059
O -2.904580296 -4.726622327 0.567996304
C -0.472430605 3.456584396 -0.327074251
O 1.450479412 2.633380428 -2.013059024
H 4.079973788 -0.785815435 1.355840020
H 1.761939461 -0.205374528 3.697269421
H 3.600375509 2.325884495 2.486216891
H -1.925768058 -0.850466197 -2.469542495
H 0.611155173 -2.805542169 -1.560000134
H -4.110797376 -5.363346043 1.772801928
H -2.354156990 3.596169980 -1.137522682
H 0.057601630 4.990797082 0.929909811

