11

N 3.391643504 -0.953173738 -0.289999185
C 0.837326270 -0.305254547 -0.087985365
C -0.481158079 1.815092204 -0.604675529
N -2.995810151 1.198705891 -0.148965107
C -3.354192647 -1.195784941 0.661024535
N -0.936977632 -2.070332258 0.662911408
H 4.237761290 -1.186128497 1.405651537
H 4.375684746 0.306241098 -1.324631079
H 0.140662520 3.648429676 -1.228020324
H -4.445347969 2.393366180 -0.393890791
H -0.502288202 -3.867032003 1.089279202

