17

C -3.964140966 -0.778413170 -0.294186894
C -2.114000956 -0.428644215 -2.420461244
N -0.557061914 1.880660617 -2.574402548
C 0.627488681 -0.607801382 -2.009232216
C 1.898296392 -1.434542388 0.370549990
C 4.176866321 0.038319110 1.015994451
N 1.847618038 0.590858948 2.454755729
H -5.612759580 0.442822017 -0.531214448
H -3.106422416 -0.376324029 1.538273896
H -4.622126670 -2.732629902 -0.235386592
H -2.841255215 -1.000669642 -4.253990012
H -0.847047172 2.908430613 -0.979603220
H 1.723090358 -1.281304516 -3.612219537
H 1.685775165 -0.038181387 4.243853257
H 5.689085221 -0.815356937 2.109220214
H 4.773623992 1.684396988 -0.077786211
H 1.154238613 2.356779344 2.189380582

