14

C -3.645739254 0.996838694 -1.212553275
C -0.975859352 0.630495896 -0.410600524
C 0.868255171 2.318707277 -0.335855676
N 4.537402803 -2.581384273 1.822961590
C 2.827921628 -1.148699637 1.028216746
O 3.158681828 1.378229929 0.501389619
C 0.112428840 -1.835482840 0.484255642
H -4.117531528 -0.239134920 -2.799303880
H -3.995939784 2.943506500 -1.788913185
H -4.951120543 0.537966855 0.321435630
H 0.885339940 4.300421660 -0.820433195
H 6.197866088 -1.635270439 2.025679447
H -0.797996968 -2.561465936 2.189789783
H 0.018962721 -3.332605153 -0.935064133

