11

C -0.944556813 -2.610953668 1.184761413
C -2.804476930 -3.408498576 -0.285846021
H -4.619522571 -3.956233879 0.482475293
H -2.575364985 -3.543777569 -2.318913409
C 1.549040951 -1.814123700 0.222333271
H 1.847905030 -2.069157283 -1.796201103
C 3.035245579 0.129980560 1.510905427
H 4.345095258 1.279063641 0.425282430
H 2.284558018 1.003095710 3.211673585
O 3.678410275 -2.451799970 1.737621880
H -1.187388642 -2.505527189 3.221179134

