16

C -1.152994682 2.841214699 -1.529387194
C -1.017081970 -0.736986480 0.304277351
C -2.817091948 -2.409962228 -0.799266430
C 1.734165420 -1.176228109 -0.119046075
C 3.642837485 0.022579336 1.453851799
O 2.916551106 -2.529220330 1.862493206
H -0.795332247 4.108628046 0.049859441
H -2.980158041 3.309226576 -2.392850342
H 0.348750109 2.929243168 -2.935091436
H -1.482205363 0.084088466 2.121341768
H -2.352598571 0.189950092 -1.520998209
H -4.658033111 -2.623592535 0.048162221
H -2.223570187 -3.686069108 -2.277904368
H 2.236682865 -1.801018072 -2.012013137
H 5.540364644 0.290021616 0.720616803
H 3.058340640 1.344811521 2.911905555

