14

N 2.426123959 0.835655601 4.028840710
C 3.588033008 0.790695274 1.756543178
O 5.734423833 1.507332579 1.402896694
C 2.014665632 -0.310888634 -0.389814973
C -0.760334160 -0.414207274 0.112541902
C -4.645047537 -0.513860810 -1.948701283
O -1.939347763 -0.367150278 -2.022670115
H 3.358435290 1.555919252 5.515327342
H 0.587627025 0.357825557 4.144090023
H 2.593632892 -2.299785128 -0.555324538
H 2.541003944 0.612422291 -2.161241275
H -5.257231911 -0.675034133 0.008784940
H -5.387354389 1.194768174 -2.822508829
H -5.210818650 -2.161132805 -3.044323672

