15

C -2.442984455 -2.216284783 0.666818133
N -0.076190394 -1.098427139 -0.073785264
C 2.264426331 -2.196656462 0.264856946
C 4.078388289 -0.359204698 0.128917475
C 2.958383029 2.111384687 -0.289725553
C 0.493982762 1.450551676 -0.282835800
N -1.472501298 3.319494895 -0.887295617
H -3.994840379 -1.506389870 -0.501710834
H -2.358105346 -4.253075271 0.374693800
H -2.903390128 -1.868615484 2.656985110
H 2.392552710 -4.213525666 0.576204934
H 6.081238768 -0.749353887 0.265621737
H -0.336248890 4.891412587 -1.040776509
H -2.796423125 3.608379160 0.483917249
H -2.367110420 3.021811894 -2.569975770

