15

C -2.486163600 -2.449851228 0.689923550
N -0.166818994 -1.144092466 0.131651040
C 2.246773775 -2.099014257 0.359672518
C 3.976461640 -0.195612713 -0.002000710
C 2.650599404 2.136074866 -0.466782195
C 0.211760820 1.377111892 -0.306709259
N -1.468030697 3.464524043 -0.859735436
H -3.978347530 -1.860567405 -0.608638814
H -2.206023740 -4.474006932 0.438958737
H -3.125154534 -2.116254889 2.628586797
H 2.505027149 -4.085153282 0.765766007
H 5.998019651 -0.484531750 0.041250227
H 0.590182955 4.422946627 -1.035541022
H -2.583714891 4.102583681 0.566595356
H -2.454916525 3.376993365 -2.504955774

