11

O 2.699931007 -1.589758388 1.415157597
C 0.295585480 -0.693184273 1.309628997
C -0.227003672 1.884719446 0.101471962
O -2.554253589 1.353659162 -1.048010399
C -2.204684132 -1.163070588 -1.768625180
H 3.558764401 -1.209104940 -0.141709183
H -0.587983200 -0.932618223 3.160250093
H -0.365071522 3.472339685 1.418532553
H 1.236601778 2.292761357 -1.323262861
H -1.338592735 -2.213709559 0.221354430
H -0.506730778 -1.233000622 -3.016856276

