10

O 3.249357369 3.763489222 -4.339007562
C -3.463494803 -1.366528065 1.890771861
N -1.360750360 -1.555816640 0.633046403
C 0.855154607 -0.045938600 1.288633346
C 1.773998919 1.439338211 -0.857200765
N 2.496578902 2.577223833 -2.566227215
H -4.795068736 -2.719805351 1.026958151
H -1.088001804 -2.734500788 -0.861404858
H 0.274659522 1.185997728 2.833773128
H 2.373657074 -1.276251861 1.957186097

