10

O -0.774214576 2.289753158 -2.649885617
C -2.616062203 0.359538650 -0.320019620
N -0.901196367 -1.201290110 0.684431326
C 1.399343216 -0.271066454 1.659960486
C 2.906663133 0.797009530 -0.755663796
N 1.443753443 1.830403162 -2.139148468
H -3.894988309 -0.726462935 -1.533290632
H -0.881209376 -3.063699450 0.217940243
H 1.100216294 1.332143856 2.905129451
H 2.510260254 -1.739071186 2.558094419

