14

C -4.673294067 1.432310867 -0.967480892
C -1.137245081 -0.371195369 1.522209127
C 0.597878770 -2.089902923 1.788001430
O 3.078082892 -1.888673623 0.970967304
C 3.525406029 -0.415659434 -1.048068659
N 6.001738897 -0.366216640 -1.368947236
C -2.938675661 1.280508582 1.269221380
H -6.639978418 1.199875896 -0.381992489
H -4.216513436 -0.014660023 -2.356666924
H -4.514514610 3.281419086 -1.871740316
H 0.274022193 -3.869543071 2.741047574
H 7.222715134 -1.291505673 -0.219275902
H 6.704967347 0.612374821 -2.830269953
H -3.200151358 2.674510657 2.757882407

