14

C -4.574763879 0.559992974 -0.120477505
C -1.259585534 0.512429871 0.177544267
C -0.086450095 -1.680392904 -0.054712107
O 2.485994262 -1.862183669 -0.485645989
C 3.943860520 -0.008096305 0.444553063
N 6.273421590 -0.441468728 -0.348379798
C -2.158439019 2.840421090 0.057058145
H -5.851959525 1.863587716 0.829671065
H -4.687447284 -1.185238776 0.995586883
H -5.098621037 0.259797563 -2.074354483
H -1.027579455 -3.484381814 0.040270177
H 6.733750956 -1.917109106 -1.478520265
H 7.646071366 0.749279829 0.185003640
H -2.306599934 3.867150395 1.836822977

