12

O 4.900811083 -0.866983461 0.535766137
C 2.671910356 -1.316189616 0.179738201
C 0.424020565 -0.050127669 -0.058351833
C -2.338861584 -0.763221397 -0.221478547
O -3.001243151 1.861660328 0.009128228
C -0.405098208 2.629769331 0.269361694
H 2.057344208 -3.603068557 -0.057867004
H 1.828275670 -2.566769018 -1.749849542
H -3.012886132 -1.569419209 -2.001678111
H -3.066338245 -1.876910342 1.362055707
H -0.005007340 3.456038851 2.123248426
H 0.183424641 3.945800134 -1.212204356

