15

N 1.588010089 -2.174847889 -1.761354157
C 2.990980049 -1.449667586 0.175835274
O 5.079683411 -2.108494975 0.914238576
C 1.678782422 0.648440660 1.757807745
N -0.834616459 1.132470971 0.801196558
C -3.298384405 -0.047009224 0.417508531
C -2.167896664 2.138292498 -0.890235578
H 2.522535480 -3.527557634 -2.753056575
H -0.392036478 -0.466035054 -3.508235997
H 1.529253742 0.059352594 3.721667712
H 2.759691101 2.396290626 1.640706539
H -3.283937279 -1.841278951 -0.577022146
H -4.679517747 0.240423562 1.903963340
H -1.460781179 0.475936557 -4.149573441
H -2.259975062 3.832055440 -2.010297057

