15

C 5.183524353 1.325802256 0.285196786
C 3.565496267 -0.693606796 -0.972549307
C 0.761157683 -0.446402387 -0.317381279
C -0.821262124 -2.471329232 -1.500807147
C -2.690922607 -2.082486939 -3.117425516
H -3.231321067 -0.188778254 -3.691213151
H -3.752862291 -3.635918196 -3.923428253
H -0.342364913 -4.404442618 -0.983780517
H 0.066534082 1.409942690 -0.908012326
H 0.549108586 -0.532077070 1.742274745
H 3.784793919 -0.595632717 -3.026212575
H 4.231710557 -2.570178764 -0.410343672
H 4.594467543 3.218561183 -0.293463450
H 7.174696362 1.109924611 -0.207096484
H 5.030355210 1.227171686 2.342527956

