27

C     4.14823   0.04232   0.00892
O     2.75359  -0.34949  -0.04408
C     2.04122   0.18934  -1.01402
O     2.46336   0.89546  -1.90178
N     0.62857  -0.08353  -0.95323
C    -0.24381   1.04488  -0.89028
C    -1.28824   1.07639  -0.09798
C    -2.34648   1.05417   0.80657
C    -2.05325   1.56404   2.21725
O    -3.50094   0.60859   0.54404
C    -0.83190  -1.32274   0.27089
C    -1.14614  -1.84472   1.61993
C    -1.69686  -1.66878  -0.87802
O     0.40889  -0.91150   0.15734
H     4.59275  -0.42103   0.90369
H     4.22864   1.15486   0.11129
H     4.67917  -0.26794  -0.88851
H     0.12401   1.89976  -1.64984
H    -1.13820   1.10286   2.61347
H    -2.90364   1.31040   2.90307
H    -1.91653   2.65433   2.23831
H    -1.13476  -2.96503   1.61882
H    -2.15757  -1.54384   1.87224
H    -0.41806  -1.49114   2.36747
H    -1.25983  -1.36045  -1.83759
H    -2.66140  -1.20845  -0.71209
H    -1.85082  -2.77454  -0.88263
27

C     4.14947   0.04502   0.01064
O     2.75718  -0.34949  -0.03952
C     2.04217   0.18190  -1.01419
O     2.46491   0.89099  -1.90106
N     0.63915  -0.10460  -0.96245
C    -0.26155   1.07500  -0.89387
C    -1.29510   1.09199  -0.09934
C    -2.35094   1.05781   0.81052
C    -2.05499   1.56380   2.22020
O    -3.50059   0.60778   0.54623
C    -0.82715  -1.33090   0.26993
C    -1.14426  -1.84699   1.62033
C    -1.69461  -1.67078  -0.87848
O     0.40901  -0.91426   0.15596
H     4.59385  -0.41952   0.90425
H     4.22883   1.15572   0.11122
H     4.67963  -0.26728  -0.88796
H     0.12578   1.89959  -1.65168
H    -1.13864   1.10193   2.61310
H    -2.90377   1.31064   2.90445
H    -1.91594   2.65411   2.23922
H    -1.13490  -2.96568   1.61993
H    -2.15686  -1.54373   1.87196
H    -0.41736  -1.49168   2.36738
H    -1.25903  -1.36065  -1.83750
H    -2.66031  -1.20846  -0.71158
H    -1.85117  -2.77494  -0.88350
27

C     4.15072   0.04772   0.01236
O     2.76077  -0.34949  -0.03496
C     2.04312   0.17446  -1.01437
O     2.46646   0.88651  -1.90034
N     0.64973  -0.12568  -0.97168
C    -0.27930   1.10512  -0.89745
C    -1.30196   1.10760  -0.10071
C    -2.35539   1.06145   0.81448
C    -2.05674   1.56356   2.22314
O    -3.50024   0.60698   0.54842
C    -0.82241  -1.33906   0.26897
C    -1.14239  -1.84926   1.62073
C    -1.69235  -1.67278  -0.87895
O     0.40914  -0.91703   0.15457
H     4.59494  -0.41801   0.90482
H     4.22903   1.15659   0.11115
H     4.68008  -0.26661  -0.88740
H     0.12755   1.89942  -1.65352
H    -1.13908   1.10100   2.61272
H    -2.90391   1.31089   2.90584
H    -1.91534   2.65388   2.24013
H    -1.13504  -2.96632   1.62103
H    -2.15614  -1.54361   1.87168
H    -0.41666  -1.49221   2.36729
H    -1.25823  -1.36085  -1.83740
H    -2.65922  -1.20848  -0.71107
H    -1.85152  -2.77534  -0.88436
27

C     4.15197   0.05042   0.01409
O     2.76436  -0.34949  -0.03040
C     2.04408   0.16702  -1.01454
O     2.46800   0.88204  -1.89962
N     0.66031  -0.14676  -0.98090
C    -0.29705   1.13523  -0.90104
C    -1.30882   1.12321  -0.10207
C    -2.35985   1.06509   0.81844
C    -2.05849   1.56332   2.22609
O    -3.49989   0.60617   0.55061
C    -0.81767  -1.34722   0.26801
C    -1.14051  -1.85153   1.62112
C    -1.69010  -1.67478  -0.87942
O     0.40926  -0.91979   0.15319
H     4.59604  -0.41650   0.90538
H     4.22922   1.15746   0.11108
H     4.68054  -0.26595  -0.88684
H     0.12932   1.89925  -1.65536
H    -1.13951   1.10008   2.61234
H    -2.90404   1.31113   2.90722
H    -1.91475   2.65366   2.24104
H    -1.13519  -2.96697   1.62213
H    -2.15542  -1.54349   1.87140
H    -0.41596  -1.49275   2.36719
H    -1.25743  -1.36104  -1.83731
H    -2.65814  -1.20850  -0.71056
H    -1.85187  -2.77573  -0.88522
27

C     4.15321   0.05312   0.01581
O     2.76795  -0.34949  -0.02584
C     2.04503   0.15958  -1.01472
O     2.46955   0.87756  -1.89890
N     0.67088  -0.16783  -0.99012
C    -0.31480   1.16535  -0.90462
C    -1.31567   1.13882  -0.10343
C    -2.36431   1.06873   0.82239
C    -2.06023   1.56309   2.22903
O    -3.49954   0.60536   0.55280
C    -0.81293  -1.35538   0.26704
C    -1.13864  -1.85380   1.62152
C    -1.68784  -1.67677  -0.87988
O     0.40938  -0.92256   0.15181
H     4.59714  -0.41499   0.90594
H     4.22941   1.15833   0.11101
H     4.68100  -0.26528  -0.88629
H     0.13109   1.89908  -1.65721
H    -1.13995   1.09915   2.61197
H    -2.90418   1.31137   2.90860
H    -1.91416   2.65344   2.24194
H    -1.13533  -2.96762   1.62323
H    -2.15471  -1.54337   1.87112
H    -0.41526  -1.49328   2.36710
H    -1.25663  -1.36124  -1.83721
H    -2.65705  -1.20851  -0.71005
H    -1.85222  -2.77613  -0.88609
27

C     4.15446   0.05582   0.01754
O     2.77154  -0.34949  -0.02128
C     2.04598   0.15214  -1.01489
O     2.47109   0.87309  -1.89818
N     0.68146  -0.18891  -0.99935
C    -0.33254   1.19547  -0.90821
C    -1.32253   1.15442  -0.10479
C    -2.36877   1.07237   0.82635
C    -2.06198   1.56285   2.23198
O    -3.49919   0.60456   0.55499
C    -0.80819  -1.36354   0.26608
C    -1.13677  -1.85607   1.62191
C    -1.68558  -1.67877  -0.88035
O     0.40951  -0.92532   0.15043
H     4.59823  -0.41348   0.90651
H     4.22961   1.15920   0.11093
H     4.68146  -0.26462  -0.88573
H     0.13286   1.89892  -1.65905
H    -1.14038   1.09822   2.61159
H    -2.90431   1.31162   2.90998
H    -1.91356   2.65321   2.24285
H    -1.13547  -2.96827   1.62433
H    -2.15399  -1.54325   1.87084
H    -0.41456  -1.49382   2.36701
H    -1.25583  -1.36144  -1.83712
H    -2.65596  -1.20853  -0.70954
H    -1.85257  -2.77652  -0.88695
27

C     4.15571   0.05852   0.01926
O     2.77514  -0.34948  -0.01672
C     2.04693   0.14470  -1.01507
O     2.47264   0.86862  -1.89746
N     0.69204  -0.20999  -1.00857
C    -0.35029   1.22559  -0.91180
C    -1.32939   1.17003  -0.10616
C    -2.37322   1.07601   0.83030
C    -2.06373   1.56261   2.23492
O    -3.49884   0.60375   0.55718
C    -0.80345  -1.37170   0.26512
C    -1.13489  -1.85835   1.62231
C    -1.68333  -1.68077  -0.88081
O     0.40963  -0.92809   0.14905
H     4.59933  -0.41197   0.90707
H     4.22980   1.16007   0.11086
H     4.68191  -0.26396  -0.88517
H     0.13464   1.89875  -1.66089
H    -1.14082   1.09730   2.61122
H    -2.90445   1.31186   2.91137
H    -1.91297   2.65299   2.24376
H    -1.13561  -2.96892   1.62544
H    -2.15327  -1.54314   1.87056
H    -0.41387  -1.49435   2.36691
H    -1.25503  -1.36163  -1.83702
H    -2.65487  -1.20855  -0.70903
H    -1.85292  -2.77692  -0.88782
27

C     4.15695   0.06122   0.02098
O     2.77873  -0.34948  -0.01217
C     2.04789   0.13726  -1.01524
O     2.47419   0.86414  -1.89674
N     0.70262  -0.23107  -1.01779
C    -0.36804   1.25571  -0.91538
C    -1.33625   1.18564  -0.10752
C    -2.37768   1.07965   0.83426
C    -2.06548   1.56238   2.23786
O    -3.49849   0.60295   0.55937
C    -0.79871  -1.37986   0.26415
C    -1.13302  -1.86062   1.62271
C    -1.68107  -1.68277  -0.88128
O     0.40976  -0.93085   0.14767
H     4.60043  -0.41046   0.90764
H     4.22999   1.16094   0.11079
H     4.68237  -0.26329  -0.88462
H     0.13641   1.89858  -1.66273
H    -1.14126   1.09637   2.61084
H    -2.90458   1.31211   2.91275
H    -1.91238   2.65276   2.24467
H    -1.13576  -2.96956   1.62654
H    -2.15256  -1.54302   1.87029
H    -0.41317  -1.49489   2.36682
H    -1.25423  -1.36183  -1.83693
H    -2.65378  -1.20856  -0.70852
H    -1.85326  -2.77732  -0.88868
27

C     4.15820   0.06392   0.02271
O     2.78232  -0.34948  -0.00761
C     2.04884   0.12982  -1.01541
O     2.47573   0.85967  -1.89602
N     0.71320  -0.25214  -1.02702
C    -0.38579   1.28583  -0.91897
C    -1.34311   1.20124  -0.10888
C    -2.38214   1.08329   0.83821
C    -2.06722   1.56214   2.24081
O    -3.49814   0.60214   0.56157
C    -0.79397  -1.38802   0.26319
C    -1.13114  -1.86289   1.62310
C    -1.67882  -1.68477  -0.88175
O     0.40988  -0.93362   0.14629
H     4.60152  -0.40895   0.90820
H     4.23019   1.16181   0.11072
H     4.68283  -0.26263  -0.88406
H     0.13818   1.89841  -1.66457
H    -1.14169   1.09544   2.61047
H    -2.90472   1.31235   2.91413
H    -1.91179   2.65254   2.24557
H    -1.13590  -2.97021   1.62764
H    -2.15184  -1.54290   1.87001
H    -0.41247  -1.49542   2.36673
H    -1.25343  -1.36203  -1.83684
H    -2.65269  -1.20858  -0.70801
H    -1.85361  -2.77771  -0.88954
27

C     4.15945   0.06662   0.02443
O     2.78591  -0.34948  -0.00305
C     2.04979   0.12237  -1.01559
O     2.47728   0.85519  -1.89529
N     0.72378  -0.27322  -1.03624
C    -0.40353   1.31595  -0.92255
C    -1.34997   1.21685  -0.11024
C    -2.38660   1.08693   0.84217
C    -2.06897   1.56190   2.24375
O    -3.49779   0.60133   0.56376
C    -0.78922  -1.39618   0.26223
C    -1.12927  -1.86516   1.62350
C    -1.67656  -1.68676  -0.88221
O     0.41000  -0.93638   0.14491
H     4.60262  -0.40743   0.90876
H     4.23038   1.16267   0.11065
H     4.68329  -0.26197  -0.88351
H     0.13995   1.89825  -1.66642
H    -1.14213   1.09452   2.61009
H    -2.90485   1.31259   2.91552
H    -1.91119   2.65232   2.24648
H    -1.13604  -2.97086   1.62874
H    -2.15113  -1.54278   1.86973
H    -0.41177  -1.49596   2.36663
H    -1.25263  -1.36222  -1.83674
H    -2.65161  -1.20860  -0.70750
H    -1.85396  -2.77811  -0.89041
27

C     4.16069   0.06932   0.02615
O     2.78950  -0.34948   0.00151
C     2.05075   0.11493  -1.01576
O     2.47883   0.85072  -1.89457
N     0.73436  -0.29430  -1.04546
C    -0.42128   1.34607  -0.92614
C    -1.35683   1.23246  -0.11161
C    -2.39105   1.09057   0.84612
C    -2.07072   1.56167   2.24670
O    -3.49744   0.60053   0.56595
C    -0.78448  -1.40434   0.26126
C    -1.12739  -1.86743   1.62389
C    -1.67430  -1.68876  -0.88268
O     0.41013  -0.93915   0.14353
H     4.60371  -0.40592   0.90933
H     4.23057   1.16354   0.11058
H     4.68374  -0.26130  -0.88295
H     0.14172   1.89808  -1.66826
H    -1.14257   1.09359   2.60972
H    -2.90499   1.31284   2.91690
H    -1.91060   2.65209   2.24739
H    -1.13618  -2.97151   1.62984
H    -2.15041  -1.54266   1.86945
H    -0.41107  -1.49649   2.36654
H    -1.25184  -1.36242  -1.83665
H    -2.65052  -1.20861  -0.70699
H    -1.85431  -2.77851  -0.89127
27

C     4.16194   0.07202   0.02788
O     2.79309  -0.34948   0.00607
C     2.05170   0.10749  -1.01594
O     2.48037   0.84625  -1.89385
N     0.74494  -0.31538  -1.05469
C    -0.43903   1.37619  -0.92972
C    -1.36369   1.24807  -0.11297
C    -2.39551   1.09421   0.85008
C    -2.07246   1.56143   2.24964
O    -3.49709   0.59972   0.56814
C    -0.77974  -1.41250   0.26030
C    -1.12552  -1.86970   1.62429
C    -1.67205  -1.69076  -0.88315
O     0.41025  -0.94191   0.14215
H     4.60481  -0.40441   0.90989
H     4.23077   1.16441   0.11051
H     4.68420  -0.26064  -0.88239
H     0.14349   1.89791  -1.67010
H    -1.14300   1.09267   2.60934
H    -2.90513   1.31308   2.91828
H    -1.91001   2.65187   2.24830
H    -1.13633  -2.97216   1.63095
H    -2.14969  -1.54255   1.86917
H    -0.41037  -1.49703   2.36645
H    -1.25104  -1.36262  -1.83655
H    -2.64943  -1.20863  -0.70648
H    -1.85466  -2.77890  -0.89213
27

C     4.16319   0.07472   0.02960
O     2.79668  -0.34948   0.01063
C     2.05265   0.10005  -1.01611
O     2.48192   0.84177  -1.89313
N     0.75552  -0.33645  -1.06391
C    -0.45678   1.40631  -0.93331
C    -1.37055   1.26367  -0.11433
C    -2.39997   1.09785   0.85404
C    -2.07421   1.56119   2.25258
O    -3.49674   0.59891   0.57033
C    -0.77500  -1.42066   0.25934
C    -1.12364  -1.87198   1.62469
C    -1.66979  -1.69276  -0.88361
O     0.41037  -0.94468   0.14077
H     4.60591  -0.40290   0.91046
H     4.23096   1.16528   0.11044
H     4.68466  -0.25997  -0.88184
H     0.14526   1.89774  -1.67194
H    -1.14344   1.09174   2.60897
H    -2.90526   1.31332   2.91967
H    -1.90942   2.65165   2.24921
H    -1.13647  -2.97280   1.63205
H    -2.14898  -1.54243   1.86889
H    -0.40967  -1.49756   2.36635
H    -1.25024  -1.36281  -1.83646
H    -2.64834  -1.20865  -0.70597
H    -1.85501  -2.77930  -0.89300
27

C     4.16444   0.07742   0.03133
O     2.80027  -0.34948   0.01519
C     2.05361   0.09261  -1.01628
O     2.48346   0.83730  -1.89241
N     0.76609  -0.35753  -1.07313
C    -0.47452   1.43643  -0.93689
C    -1.37741   1.27928  -0.11569
C    -2.40443   1.10149   0.85799
C    -2.07596   1.56095   2.25553
O    -3.49639   0.59811   0.57252
C    -0.77026  -1.42882   0.25838
C    -1.12177  -1.87425   1.62508
C    -1.66754  -1.69476  -0.88408
O     0.41050  -0.94744   0.13939
H     4.60700  -0.40139   0.91102
H     4.23115   1.16615   0.11037
H     4.68512  -0.25931  -0.88128
H     0.14704   1.89757  -1.67378
H    -1.14387   1.09081   2.60859
H    -2.90540   1.31357   2.92105
H    -1.90882   2.65142   2.25011
H    -1.13661  -2.97345   1.63315
H    -2.14826  -1.54231   1.86861
H    -0.40897  -1.49810   2.36626
H    -1.24944  -1.36301  -1.83637
H    -2.64725  -1.20866  -0.70546
H    -1.85536  -2.77970  -0.89386
27

C     4.16568   0.08012   0.03305
O     2.80386  -0.34948   0.01975
C     2.05456   0.08517  -1.01646
O     2.48501   0.83283  -1.89169
N     0.77667  -0.37861  -1.08236
C    -0.49227   1.46655  -0.94048
C    -1.38427   1.29489  -0.11705
C    -2.40888   1.10513   0.86195
C    -2.07771   1.56072   2.25847
O    -3.49604   0.59730   0.57471
C    -0.76552  -1.43698   0.25741
C    -1.11989  -1.87652   1.62548
C    -1.66528  -1.69675  -0.88454
O     0.41062  -0.95020   0.13801
H     4.60810  -0.39988   0.91158
H     4.23135   1.16702   0.11030
H     4.68557  -0.25865  -0.88073
H     0.14881   1.89741  -1.67563
H    -1.14431   1.08989   2.60822
H    -2.90553   1.31381   2.92243
H    -1.90823   2.65120   2.25102
H    -1.13675  -2.97410   1.63425
H    -2.14755  -1.54219   1.86834
H    -0.40827  -1.49863   2.36617
H    -1.24864  -1.36321  -1.83627
H    -2.64616  -1.20868  -0.70494
H    -1.85571  -2.78009  -0.89472
27

C     4.16693   0.08282   0.03477
O     2.80745  -0.34948   0.02431
C     2.05551   0.07773  -1.01663
O     2.48656   0.82835  -1.89097
N     0.78725  -0.39969  -1.09158
C    -0.51002   1.49667  -0.94407
C    -1.39113   1.31050  -0.11842
C    -2.41334   1.10877   0.86590
C    -2.07945   1.56048   2.26142
O    -3.49569   0.59649   0.57691
C    -0.76078  -1.44513   0.25645
C    -1.11802  -1.87879   1.62587
C    -1.66302  -1.69875  -0.88501
O     0.41074  -0.95297   0.13663
H     4.60920  -0.39837   0.91215
H     4.23154   1.16789   0.11023
H     4.68603  -0.25798  -0.88017
H     0.15058   1.89724  -1.67747
H    -1.14475   1.08896   2.60784
H    -2.90567   1.31406   2.92382
H    -1.90764   2.65098   2.25193
H    -1.13690  -2.97475   1.63535
H    -2.14683  -1.54207   1.86806
H    -0.40758  -1.49917   2.36607
H    -1.24784  -1.36340  -1.83618
H    -2.64508  -1.20870  -0.70443
H    -1.85605  -2.78049  -0.89559
27

C     4.16818   0.08552   0.03650
O     2.81104  -0.34948   0.02886
C     2.05647   0.07029  -1.01681
O     2.48810   0.82388  -1.89025
N     0.79783  -0.42076  -1.10080
C    -0.52777   1.52679  -0.94765
C    -1.39799   1.32610  -0.11978
C    -2.41780   1.11241   0.86986
C    -2.08120   1.56024   2.26436
O    -3.49534   0.59569   0.57910
C    -0.75604  -1.45329   0.25549
C    -1.11614  -1.88106   1.62627
C    -1.66077  -1.70075  -0.88548
O     0.41087  -0.95573   0.13525
H     4.61029  -0.39686   0.91271
H     4.23173   1.16875   0.11016
H     4.68649  -0.25732  -0.87961
H     0.15235   1.89707  -1.67931
H    -1.14518   1.08803   2.60747
H    -2.90580   1.31430   2.92520
H    -1.90704   2.65075   2.25284
H    -1.13704  -2.97540   1.63646
H    -2.14611  -1.54195   1.86778
H    -0.40688  -1.49970   2.36598
H    -1.24704  -1.36360  -1.83608
H    -2.64399  -1.20871  -0.70392
H    -1.85640  -2.78088  -0.89645
27

C     4.16942   0.08822   0.03822
O     2.81463  -0.34948   0.03342
C     2.05742   0.06285  -1.01698
O     2.48965   0.81940  -1.88953
N     0.80841  -0.44184  -1.11002
C    -0.54551   1.55691  -0.95124
C    -1.40485   1.34171  -0.12114
C    -2.42226   1.11605   0.87381
C    -2.08295   1.56001   2.26731
O    -3.49499   0.59488   0.58129
C    -0.75129  -1.46145   0.25452
C    -1.11427  -1.88333   1.62667
C    -1.65851  -1.70275  -0.88594
O     0.41099  -0.95850   0.13387
H     4.61139  -0.39535   0.91327
H     4.23193   1.16962   0.11009
H     4.68695  -0.25665  -0.87906
H     0.15412   1.89690  -1.68115
H    -1.14562   1.08711   2.60709
H    -2.90594   1.31454   2.92658
H    -1.90645   2.65053   2.25374
H    -1.13718  -2.97604   1.63756
H    -2.14540  -1.54184   1.86750
H    -0.40618  -1.50024   2.36589
H    -1.24624  -1.36380  -1.83599
H    -2.64290  -1.20873  -0.70341
H    -1.85675  -2.78128  -0.89732
27

C     4.17067   0.09092   0.03995
O     2.81823  -0.34948   0.03798
C     2.05837   0.05541  -1.01716
O     2.49120   0.81493  -1.88881
N     0.81899  -0.46292  -1.11925
C    -0.56326   1.58703  -0.95482
C    -1.41171   1.35732  -0.12250
C    -2.42671   1.11969   0.87777
C    -2.08469   1.55977   2.27025
O    -3.49464   0.59407   0.58348
C    -0.74655  -1.46961   0.25356
C    -1.11239  -1.88560   1.62706
C    -1.65626  -1.70475  -0.88641
O     0.41111  -0.96126   0.13249
H     4.61249  -0.39384   0.91384
H     4.23212   1.17049   0.11002
H     4.68740  -0.25599  -0.87850
H     0.15589   1.89674  -1.68299
H    -1.14606   1.08618   2.60672
H    -2.90607   1.31479   2.92796
H    -1.90586   2.65031   2.25465
H    -1.13732  -2.97669   1.63866
H    -2.14468  -1.54172   1.86722
H    -0.40548  -1.50077   2.36579
H    -1.24544  -1.36399  -1.83589
H    -2.64181  -1.20875  -0.70290
H    -1.85710  -2.78168  -0.89818
27

C     4.17192   0.09362   0.04167
O     2.82182  -0.34948   0.04254
C     2.05932   0.04796  -1.01733
O     2.49274   0.81046  -1.88808
N     0.82957  -0.48400  -1.12847
C    -0.58101   1.61715  -0.95841
C    -1.41857   1.37292  -0.12387
C    -2.43117   1.12333   0.88173
C    -2.08644   1.55953   2.27319
O    -3.49429   0.59327   0.58567
C    -0.74181  -1.47777   0.25260
C    -1.11052  -1.88788   1.62746
C    -1.65400  -1.70674  -0.88687
O     0.41124  -0.96403   0.13111
H     4.61358  -0.39233   0.91440
H     4.23231   1.17136   0.10995
H     4.68786  -0.25533  -0.87794
H     0.15766   1.89657  -1.68484
H    -1.14649   1.08525   2.60634
H    -2.90621   1.31503   2.92935
H    -1.90527   2.65008   2.25556
H    -1.13747  -2.97734   1.63976
H    -2.14396  -1.54160   1.86694
H    -0.40478  -1.50131   2.36570
H    -1.24464  -1.36419  -1.83580
H    -2.64072  -1.20876  -0.70239
H    -1.85745  -2.78207  -0.89904
27

C     4.17316   0.09632   0.04339
O     2.82541  -0.34948   0.04710
C     2.06028   0.04052  -1.01750
O     2.49429   0.80598  -1.88736
N     0.84015  -0.50507  -1.13769
C    -0.59876   1.64727  -0.96199
C    -1.42543   1.38853  -0.12523
C    -2.43563   1.12697   0.88568
C    -2.08819   1.55930   2.27614
O    -3.49394   0.59246   0.58786
C    -0.73707  -1.48593   0.25163
C    -1.10865  -1.89015   1.62785
C    -1.65174  -1.70874  -0.88734
O     0.41136  -0.96679   0.12973
H     4.61468  -0.39082   0.91497
H     4.23251   1.17223   0.10988
H     4.68832  -0.25466  -0.87739
H     0.15943   1.89640  -1.68668
H    -1.14693   1.08433   2.60597
H    -2.90634   1.31527   2.93073
H    -1.90467   2.64986   2.25647
H    -1.13761  -2.97799   1.64086
H    -2.14325  -1.54148   1.86666
H    -0.40408  -1.50184   2.36561
H    -1.24384  -1.36439  -1.83571
H    -2.63964  -1.20878  -0.70188
H    -1.85780  -2.78247  -0.89991
27

C     4.17192   0.09362   0.04167
O     2.82182  -0.34948   0.04254
C     2.05932   0.04796  -1.01733
O     2.49274   0.81046  -1.88808
N     0.82957  -0.48400  -1.12847
C    -0.58101   1.61715  -0.95841
C    -1.41857   1.37292  -0.12387
C    -2.43117   1.12333   0.88173
C    -2.08644   1.55953   2.27319
O    -3.49429   0.59327   0.58567
C    -0.74181  -1.47777   0.25260
C    -1.11052  -1.88788   1.62746
C    -1.65400  -1.70674  -0.88687
O     0.41124  -0.96403   0.13111
H     4.61358  -0.39233   0.91440
H     4.23231   1.17136   0.10995
H     4.68786  -0.25533  -0.87794
H     0.15766   1.89657  -1.68484
H    -1.14649   1.08525   2.60634
H    -2.90621   1.31503   2.92935
H    -1.90527   2.65008   2.25556
H    -1.13747  -2.97734   1.63976
H    -2.14396  -1.54160   1.86694
H    -0.40478  -1.50131   2.36570
H    -1.24464  -1.36419  -1.83580
H    -2.64072  -1.20876  -0.70239
H    -1.85745  -2.78207  -0.89904
27

C     4.17067   0.09092   0.03995
O     2.81823  -0.34948   0.03798
C     2.05837   0.05541  -1.01716
O     2.49120   0.81493  -1.88881
N     0.81899  -0.46292  -1.11925
C    -0.56326   1.58703  -0.95482
C    -1.41171   1.35732  -0.12250
C    -2.42671   1.11969   0.87777
C    -2.08469   1.55977   2.27025
O    -3.49464   0.59407   0.58348
C    -0.74655  -1.46961   0.25356
C    -1.11239  -1.88560   1.62706
C    -1.65626  -1.70475  -0.88641
O     0.41111  -0.96126   0.13249
H     4.61249  -0.39384   0.91384
H     4.23212   1.17049   0.11002
H     4.68740  -0.25599  -0.87850
H     0.15589   1.89674  -1.68299
H    -1.14606   1.08618   2.60672
H    -2.90607   1.31479   2.92796
H    -1.90586   2.65031   2.25465
H    -1.13732  -2.97669   1.63866
H    -2.14468  -1.54172   1.86722
H    -0.40548  -1.50077   2.36579
H    -1.24544  -1.36399  -1.83589
H    -2.64181  -1.20875  -0.70290
H    -1.85710  -2.78168  -0.89818
27

C     4.16942   0.08822   0.03822
O     2.81463  -0.34948   0.03342
C     2.05742   0.06285  -1.01698
O     2.48965   0.81940  -1.88953
N     0.80841  -0.44184  -1.11002
C    -0.54551   1.55691  -0.95124
C    -1.40485   1.34171  -0.12114
C    -2.42226   1.11605   0.87381
C    -2.08295   1.56001   2.26731
O    -3.49499   0.59488   0.58129
C    -0.75129  -1.46145   0.25452
C    -1.11427  -1.88333   1.62667
C    -1.65851  -1.70275  -0.88594
O     0.41099  -0.95850   0.13387
H     4.61139  -0.39535   0.91327
H     4.23193   1.16962   0.11009
H     4.68695  -0.25665  -0.87906
H     0.15412   1.89690  -1.68115
H    -1.14562   1.08711   2.60709
H    -2.90594   1.31454   2.92658
H    -1.90645   2.65053   2.25374
H    -1.13718  -2.97604   1.63756
H    -2.14540  -1.54184   1.86750
H    -0.40618  -1.50024   2.36589
H    -1.24624  -1.36380  -1.83599
H    -2.64290  -1.20873  -0.70341
H    -1.85675  -2.78128  -0.89732
27

C     4.16818   0.08552   0.03650
O     2.81104  -0.34948   0.02886
C     2.05647   0.07029  -1.01681
O     2.48810   0.82388  -1.89025
N     0.79783  -0.42076  -1.10080
C    -0.52777   1.52679  -0.94765
C    -1.39799   1.32610  -0.11978
C    -2.41780   1.11241   0.86986
C    -2.08120   1.56024   2.26436
O    -3.49534   0.59569   0.57910
C    -0.75604  -1.45329   0.25549
C    -1.11614  -1.88106   1.62627
C    -1.66077  -1.70075  -0.88548
O     0.41087  -0.95573   0.13525
H     4.61029  -0.39686   0.91271
H     4.23173   1.16875   0.11016
H     4.68649  -0.25732  -0.87961
H     0.15235   1.89707  -1.67931
H    -1.14518   1.08803   2.60747
H    -2.90580   1.31430   2.92520
H    -1.90704   2.65075   2.25284
H    -1.13704  -2.97540   1.63646
H    -2.14611  -1.54195   1.86778
H    -0.40688  -1.49970   2.36598
H    -1.24704  -1.36360  -1.83608
H    -2.64399  -1.20871  -0.70392
H    -1.85640  -2.78088  -0.89645
27

C     4.16693   0.08282   0.03477
O     2.80745  -0.34948   0.02431
C     2.05551   0.07773  -1.01663
O     2.48656   0.82835  -1.89097
N     0.78725  -0.39969  -1.09158
C    -0.51002   1.49667  -0.94407
C    -1.39113   1.31050  -0.11842
C    -2.41334   1.10877   0.86590
C    -2.07945   1.56048   2.26142
O    -3.49569   0.59649   0.57691
C    -0.76078  -1.44513   0.25645
C    -1.11802  -1.87879   1.62587
C    -1.66302  -1.69875  -0.88501
O     0.41074  -0.95297   0.13663
H     4.60920  -0.39837   0.91215
H     4.23154   1.16789   0.11023
H     4.68603  -0.25798  -0.88017
H     0.15058   1.89724  -1.67747
H    -1.14475   1.08896   2.60784
H    -2.90567   1.31406   2.92382
H    -1.90764   2.65098   2.25193
H    -1.13690  -2.97475   1.63535
H    -2.14683  -1.54207   1.86806
H    -0.40758  -1.49917   2.36607
H    -1.24784  -1.36340  -1.83618
H    -2.64508  -1.20870  -0.70443
H    -1.85605  -2.78049  -0.89559
27

C     4.16568   0.08012   0.03305
O     2.80386  -0.34948   0.01975
C     2.05456   0.08517  -1.01646
O     2.48501   0.83283  -1.89169
N     0.77667  -0.37861  -1.08236
C    -0.49227   1.46655  -0.94048
C    -1.38427   1.29489  -0.11705
C    -2.40888   1.10513   0.86195
C    -2.07771   1.56072   2.25847
O    -3.49604   0.59730   0.57471
C    -0.76552  -1.43698   0.25741
C    -1.11989  -1.87652   1.62548
C    -1.66528  -1.69675  -0.88454
O     0.41062  -0.95020   0.13801
H     4.60810  -0.39988   0.91158
H     4.23135   1.16702   0.11030
H     4.68557  -0.25865  -0.88073
H     0.14881   1.89741  -1.67563
H    -1.14431   1.08989   2.60822
H    -2.90553   1.31381   2.92243
H    -1.90823   2.65120   2.25102
H    -1.13675  -2.97410   1.63425
H    -2.14755  -1.54219   1.86834
H    -0.40827  -1.49863   2.36617
H    -1.24864  -1.36321  -1.83627
H    -2.64616  -1.20868  -0.70494
H    -1.85571  -2.78009  -0.89472
27

C     4.16444   0.07742   0.03133
O     2.80027  -0.34948   0.01519
C     2.05361   0.09261  -1.01628
O     2.48346   0.83730  -1.89241
N     0.76609  -0.35753  -1.07313
C    -0.47452   1.43643  -0.93689
C    -1.37741   1.27928  -0.11569
C    -2.40443   1.10149   0.85799
C    -2.07596   1.56095   2.25553
O    -3.49639   0.59811   0.57252
C    -0.77026  -1.42882   0.25838
C    -1.12177  -1.87425   1.62508
C    -1.66754  -1.69476  -0.88408
O     0.41050  -0.94744   0.13939
H     4.60700  -0.40139   0.91102
H     4.23115   1.16615   0.11037
H     4.68512  -0.25931  -0.88128
H     0.14704   1.89757  -1.67378
H    -1.14387   1.09081   2.60859
H    -2.90540   1.31357   2.92105
H    -1.90882   2.65142   2.25011
H    -1.13661  -2.97345   1.63315
H    -2.14826  -1.54231   1.86861
H    -0.40897  -1.49810   2.36626
H    -1.24944  -1.36301  -1.83637
H    -2.64725  -1.20866  -0.70546
H    -1.85536  -2.77970  -0.89386
27

C     4.16319   0.07472   0.02960
O     2.79668  -0.34948   0.01063
C     2.05265   0.10005  -1.01611
O     2.48192   0.84177  -1.89313
N     0.75552  -0.33645  -1.06391
C    -0.45678   1.40631  -0.93331
C    -1.37055   1.26367  -0.11433
C    -2.39997   1.09785   0.85404
C    -2.07421   1.56119   2.25258
O    -3.49674   0.59891   0.57033
C    -0.77500  -1.42066   0.25934
C    -1.12364  -1.87198   1.62469
C    -1.66979  -1.69276  -0.88361
O     0.41037  -0.94468   0.14077
H     4.60591  -0.40290   0.91046
H     4.23096   1.16528   0.11044
H     4.68466  -0.25997  -0.88184
H     0.14526   1.89774  -1.67194
H    -1.14344   1.09174   2.60897
H    -2.90526   1.31332   2.91967
H    -1.90942   2.65165   2.24921
H    -1.13647  -2.97280   1.63205
H    -2.14898  -1.54243   1.86889
H    -0.40967  -1.49756   2.36635
H    -1.25024  -1.36281  -1.83646
H    -2.64834  -1.20865  -0.70597
H    -1.85501  -2.77930  -0.89300
27

C     4.16194   0.07202   0.02788
O     2.79309  -0.34948   0.00607
C     2.05170   0.10749  -1.01594
O     2.48037   0.84625  -1.89385
N     0.74494  -0.31538  -1.05469
C    -0.43903   1.37619  -0.92972
C    -1.36369   1.24807  -0.11297
C    -2.39551   1.09421   0.85008
C    -2.07246   1.56143   2.24964
O    -3.49709   0.59972   0.56814
C    -0.77974  -1.41250   0.26030
C    -1.12552  -1.86970   1.62429
C    -1.67205  -1.69076  -0.88315
O     0.41025  -0.94191   0.14215
H     4.60481  -0.40441   0.90989
H     4.23077   1.16441   0.11051
H     4.68420  -0.26064  -0.88239
H     0.14349   1.89791  -1.67010
H    -1.14300   1.09267   2.60934
H    -2.90513   1.31308   2.91828
H    -1.91001   2.65187   2.24830
H    -1.13633  -2.97216   1.63095
H    -2.14969  -1.54255   1.86917
H    -0.41037  -1.49703   2.36645
H    -1.25104  -1.36262  -1.83655
H    -2.64943  -1.20863  -0.70648
H    -1.85466  -2.77890  -0.89213
27

C     4.16069   0.06932   0.02615
O     2.78950  -0.34948   0.00151
C     2.05075   0.11493  -1.01576
O     2.47883   0.85072  -1.89457
N     0.73436  -0.29430  -1.04546
C    -0.42128   1.34607  -0.92614
C    -1.35683   1.23246  -0.11161
C    -2.39105   1.09057   0.84612
C    -2.07072   1.56167   2.24670
O    -3.49744   0.60053   0.56595
C    -0.78448  -1.40434   0.26126
C    -1.12739  -1.86743   1.62389
C    -1.67430  -1.68876  -0.88268
O     0.41013  -0.93915   0.14353
H     4.60371  -0.40592   0.90933
H     4.23057   1.16354   0.11058
H     4.68374  -0.26130  -0.88295
H     0.14172   1.89808  -1.66826
H    -1.14257   1.09359   2.60972
H    -2.90499   1.31284   2.91690
H    -1.91060   2.65209   2.24739
H    -1.13618  -2.97151   1.62984
H    -2.15041  -1.54266   1.86945
H    -0.41107  -1.49649   2.36654
H    -1.25184  -1.36242  -1.83665
H    -2.65052  -1.20861  -0.70699
H    -1.85431  -2.77851  -0.89127
27

C     4.15945   0.06662   0.02443
O     2.78591  -0.34948  -0.00305
C     2.04979   0.12237  -1.01559
O     2.47728   0.85519  -1.89529
N     0.72378  -0.27322  -1.03624
C    -0.40353   1.31595  -0.92255
C    -1.34997   1.21685  -0.11024
C    -2.38660   1.08693   0.84217
C    -2.06897   1.56190   2.24375
O    -3.49779   0.60133   0.56376
C    -0.78922  -1.39618   0.26223
C    -1.12927  -1.86516   1.62350
C    -1.67656  -1.68676  -0.88221
O     0.41000  -0.93638   0.14491
H     4.60262  -0.40743   0.90876
H     4.23038   1.16267   0.11065
H     4.68329  -0.26197  -0.88351
H     0.13995   1.89825  -1.66642
H    -1.14213   1.09452   2.61009
H    -2.90485   1.31259   2.91552
H    -1.91119   2.65232   2.24648
H    -1.13604  -2.97086   1.62874
H    -2.15113  -1.54278   1.86973
H    -0.41177  -1.49596   2.36663
H    -1.25263  -1.36222  -1.83674
H    -2.65161  -1.20860  -0.70750
H    -1.85396  -2.77811  -0.89041
27

C     4.15820   0.06392   0.02271
O     2.78232  -0.34948  -0.00761
C     2.04884   0.12982  -1.01541
O     2.47573   0.85967  -1.89602
N     0.71320  -0.25214  -1.02702
C    -0.38579   1.28583  -0.91897
C    -1.34311   1.20124  -0.10888
C    -2.38214   1.08329   0.83821
C    -2.06722   1.56214   2.24081
O    -3.49814   0.60214   0.56157
C    -0.79397  -1.38802   0.26319
C    -1.13114  -1.86289   1.62310
C    -1.67882  -1.68477  -0.88175
O     0.40988  -0.93362   0.14629
H     4.60152  -0.40895   0.90820
H     4.23019   1.16181   0.11072
H     4.68283  -0.26263  -0.88406
H     0.13818   1.89841  -1.66457
H    -1.14169   1.09544   2.61047
H    -2.90472   1.31235   2.91413
H    -1.91179   2.65254   2.24557
H    -1.13590  -2.97021   1.62764
H    -2.15184  -1.54290   1.87001
H    -0.41247  -1.49542   2.36673
H    -1.25343  -1.36203  -1.83684
H    -2.65269  -1.20858  -0.70801
H    -1.85361  -2.77771  -0.88954
27

C     4.15695   0.06122   0.02098
O     2.77873  -0.34948  -0.01217
C     2.04789   0.13726  -1.01524
O     2.47419   0.86414  -1.89674
N     0.70262  -0.23107  -1.01779
C    -0.36804   1.25571  -0.91538
C    -1.33625   1.18564  -0.10752
C    -2.37768   1.07965   0.83426
C    -2.06548   1.56238   2.23786
O    -3.49849   0.60295   0.55937
C    -0.79871  -1.37986   0.26415
C    -1.13302  -1.86062   1.62271
C    -1.68107  -1.68277  -0.88128
O     0.40976  -0.93085   0.14767
H     4.60043  -0.41046   0.90764
H     4.22999   1.16094   0.11079
H     4.68237  -0.26329  -0.88462
H     0.13641   1.89858  -1.66273
H    -1.14126   1.09637   2.61084
H    -2.90458   1.31211   2.91275
H    -1.91238   2.65276   2.24467
H    -1.13576  -2.96956   1.62654
H    -2.15256  -1.54302   1.87029
H    -0.41317  -1.49489   2.36682
H    -1.25423  -1.36183  -1.83693
H    -2.65378  -1.20856  -0.70852
H    -1.85326  -2.77732  -0.88868
27

C     4.15571   0.05852   0.01926
O     2.77514  -0.34948  -0.01672
C     2.04693   0.14470  -1.01507
O     2.47264   0.86862  -1.89746
N     0.69204  -0.20999  -1.00857
C    -0.35029   1.22559  -0.91180
C    -1.32939   1.17003  -0.10616
C    -2.37322   1.07601   0.83030
C    -2.06373   1.56261   2.23492
O    -3.49884   0.60375   0.55718
C    -0.80345  -1.37170   0.26512
C    -1.13489  -1.85835   1.62231
C    -1.68333  -1.68077  -0.88081
O     0.40963  -0.92809   0.14905
H     4.59933  -0.41197   0.90707
H     4.22980   1.16007   0.11086
H     4.68191  -0.26396  -0.88517
H     0.13464   1.89875  -1.66089
H    -1.14082   1.09730   2.61122
H    -2.90445   1.31186   2.91137
H    -1.91297   2.65299   2.24376
H    -1.13561  -2.96892   1.62544
H    -2.15327  -1.54314   1.87056
H    -0.41387  -1.49435   2.36691
H    -1.25503  -1.36163  -1.83702
H    -2.65487  -1.20855  -0.70903
H    -1.85292  -2.77692  -0.88782
27

C     4.15446   0.05582   0.01754
O     2.77154  -0.34949  -0.02128
C     2.04598   0.15214  -1.01489
O     2.47109   0.87309  -1.89818
N     0.68146  -0.18891  -0.99935
C    -0.33254   1.19547  -0.90821
C    -1.32253   1.15442  -0.10479
C    -2.36877   1.07237   0.82635
C    -2.06198   1.56285   2.23198
O    -3.49919   0.60456   0.55499
C    -0.80819  -1.36354   0.26608
C    -1.13677  -1.85607   1.62191
C    -1.68558  -1.67877  -0.88035
O     0.40951  -0.92532   0.15043
H     4.59823  -0.41348   0.90651
H     4.22961   1.15920   0.11093
H     4.68146  -0.26462  -0.88573
H     0.13286   1.89892  -1.65905
H    -1.14038   1.09822   2.61159
H    -2.90431   1.31162   2.90998
H    -1.91356   2.65321   2.24285
H    -1.13547  -2.96827   1.62433
H    -2.15399  -1.54325   1.87084
H    -0.41456  -1.49382   2.36701
H    -1.25583  -1.36144  -1.83712
H    -2.65596  -1.20853  -0.70954
H    -1.85257  -2.77652  -0.88695
27

C     4.15321   0.05312   0.01581
O     2.76795  -0.34949  -0.02584
C     2.04503   0.15958  -1.01472
O     2.46955   0.87756  -1.89890
N     0.67088  -0.16783  -0.99012
C    -0.31480   1.16535  -0.90462
C    -1.31567   1.13882  -0.10343
C    -2.36431   1.06873   0.82239
C    -2.06023   1.56309   2.22903
O    -3.49954   0.60536   0.55280
C    -0.81293  -1.35538   0.26704
C    -1.13864  -1.85380   1.62152
C    -1.68784  -1.67677  -0.87988
O     0.40938  -0.92256   0.15181
H     4.59714  -0.41499   0.90594
H     4.22941   1.15833   0.11101
H     4.68100  -0.26528  -0.88629
H     0.13109   1.89908  -1.65721
H    -1.13995   1.09915   2.61197
H    -2.90418   1.31137   2.90860
H    -1.91416   2.65344   2.24194
H    -1.13533  -2.96762   1.62323
H    -2.15471  -1.54337   1.87112
H    -0.41526  -1.49328   2.36710
H    -1.25663  -1.36124  -1.83721
H    -2.65705  -1.20851  -0.71005
H    -1.85222  -2.77613  -0.88609
27

C     4.15197   0.05042   0.01409
O     2.76436  -0.34949  -0.03040
C     2.04408   0.16702  -1.01454
O     2.46800   0.88204  -1.89962
N     0.66031  -0.14676  -0.98090
C    -0.29705   1.13523  -0.90104
C    -1.30882   1.12321  -0.10207
C    -2.35985   1.06509   0.81844
C    -2.05849   1.56332   2.22609
O    -3.49989   0.60617   0.55061
C    -0.81767  -1.34722   0.26801
C    -1.14051  -1.85153   1.62112
C    -1.69010  -1.67478  -0.87942
O     0.40926  -0.91979   0.15319
H     4.59604  -0.41650   0.90538
H     4.22922   1.15746   0.11108
H     4.68054  -0.26595  -0.88684
H     0.12932   1.89925  -1.65536
H    -1.13951   1.10008   2.61234
H    -2.90404   1.31113   2.90722
H    -1.91475   2.65366   2.24104
H    -1.13519  -2.96697   1.62213
H    -2.15542  -1.54349   1.87140
H    -0.41596  -1.49275   2.36719
H    -1.25743  -1.36104  -1.83731
H    -2.65814  -1.20850  -0.71056
H    -1.85187  -2.77573  -0.88522
27

C     4.15072   0.04772   0.01236
O     2.76077  -0.34949  -0.03496
C     2.04312   0.17446  -1.01437
O     2.46646   0.88651  -1.90034
N     0.64973  -0.12568  -0.97168
C    -0.27930   1.10512  -0.89745
C    -1.30196   1.10760  -0.10071
C    -2.35539   1.06145   0.81448
C    -2.05674   1.56356   2.22314
O    -3.50024   0.60698   0.54842
C    -0.82241  -1.33906   0.26897
C    -1.14239  -1.84926   1.62073
C    -1.69235  -1.67278  -0.87895
O     0.40914  -0.91703   0.15457
H     4.59494  -0.41801   0.90482
H     4.22903   1.15659   0.11115
H     4.68008  -0.26661  -0.88740
H     0.12755   1.89942  -1.65352
H    -1.13908   1.10100   2.61272
H    -2.90391   1.31089   2.90584
H    -1.91534   2.65388   2.24013
H    -1.13504  -2.96632   1.62103
H    -2.15614  -1.54361   1.87168
H    -0.41666  -1.49221   2.36729
H    -1.25823  -1.36085  -1.83740
H    -2.65922  -1.20848  -0.71107
H    -1.85152  -2.77534  -0.88436
27

C     4.14947   0.04502   0.01064
O     2.75718  -0.34949  -0.03952
C     2.04217   0.18190  -1.01419
O     2.46491   0.89099  -1.90106
N     0.63915  -0.10460  -0.96245
C    -0.26155   1.07500  -0.89387
C    -1.29510   1.09199  -0.09934
C    -2.35094   1.05781   0.81052
C    -2.05499   1.56380   2.22020
O    -3.50059   0.60778   0.54623
C    -0.82715  -1.33090   0.26993
C    -1.14426  -1.84699   1.62033
C    -1.69461  -1.67078  -0.87848
O     0.40901  -0.91426   0.15596
H     4.59385  -0.41952   0.90425
H     4.22883   1.15572   0.11122
H     4.67963  -0.26728  -0.88796
H     0.12578   1.89959  -1.65168
H    -1.13864   1.10193   2.61310
H    -2.90377   1.31064   2.90445
H    -1.91594   2.65411   2.23922
H    -1.13490  -2.96568   1.61993
H    -2.15686  -1.54373   1.87196
H    -0.41736  -1.49168   2.36738
H    -1.25903  -1.36065  -1.83750
H    -2.66031  -1.20846  -0.71158
H    -1.85117  -2.77494  -0.88350
