14

C 4.254600734 0.419271702 0.442882791
N 2.197265370 0.241176448 -1.338574669
C -0.114009331 -0.425806696 -0.505699252
N -2.389811152 -0.165753793 -2.054307475
N -3.920534477 1.657003896 -0.509918179
C -3.715844880 -0.973603831 0.221930759
C -1.249561596 -1.365474051 1.565332733
H 4.479645100 -1.390221073 1.408369247
H 6.002299843 0.825686445 -0.563196324
H 3.934430541 1.884235582 1.871094521
H 2.214523596 1.370152219 -2.866265041
H -5.524239914 1.866920853 -1.566891436
H -5.328813471 -2.230706587 0.103259190
H -0.715687679 -1.801222030 3.479617039

