14

C -3.478248273 -1.746748728 -0.859552548
C -1.134101710 -1.187896431 -0.148450610
C 0.182729619 1.262916933 -0.268178253
N -0.978103269 3.366915077 -1.273775734
C 2.523358078 0.943045656 0.615897290
C 2.857740165 -1.756309306 1.364034118
O 0.472203044 -2.909464898 0.864554502
H -4.668496884 -0.325458233 -1.713805359
H -4.221034209 -3.637057757 -0.650210615
H 3.296891389 -2.002922363 3.371542204
H -0.134568078 5.024798433 -0.885439906
H -2.861989101 3.434318093 -1.018976345
H 3.982145350 2.359432085 0.796826245
H 4.305355716 -2.746882254 0.264107348

