14

C -2.585832405 -1.790313624 0.381645913
C -0.754240001 -1.036549267 -1.381340154
C 0.409395729 1.383325425 -0.975644471
N -0.693261543 3.646442496 -1.551454452
C 2.501529285 0.838857817 0.457909780
C 2.467145605 -1.838200531 0.780723190
O 1.124117928 -2.839047107 -1.237661839
H -4.019806666 -0.450581932 0.988091700
H -3.166392591 -3.755754139 0.411243522
H -0.188461876 -2.034012535 2.146479547
H -0.324851196 5.138533395 -0.440336555
H -2.440705180 3.584551056 -2.291012415
H 3.669590205 2.132513772 1.516743075
H 4.070623008 -2.947563874 1.413258233

