13

N 6.411612386 -1.184320313 -2.017713155
C 4.727930036 0.112055808 -1.509741243
C 2.625775943 1.581676332 -0.869373700
C -0.262813037 -1.926445204 0.278207559
C -2.870174601 -1.206980794 1.118365526
C -1.913914165 1.519757320 0.662020686
N 0.519683320 0.400648678 -0.100540063
H 2.608789913 3.612030262 -0.966263776
H 0.815313795 -3.635474016 0.002834627
H -4.424000773 -1.790251055 -0.106498256
H -3.353550859 -1.634177554 3.077757576
H -2.798299623 2.550737583 -0.883121666
H -1.720765939 2.712393222 2.327021430

