13

N 4.721629557 -0.900610287 2.276254429
C 3.727353256 0.011046318 0.550953771
C 2.455592065 1.203573202 -1.452574476
C -0.622033571 -1.242658728 -1.518203096
C -2.078643519 -1.412408518 0.890835622
C -1.809451390 1.525888329 0.892830512
N -0.236626309 1.259075989 -1.443462255
H 3.458668008 2.436908532 -2.728918971
H -0.077987599 -2.494050920 -3.034272616
H -3.948063724 -2.271918452 0.796285311
H -0.998955150 -2.280680262 2.425614564
H -3.542777658 2.574353963 0.538248859
H -0.764961608 2.328177319 2.469534029

