15

C -1.546417425 1.175247889 -2.502870064
C -1.324814723 -0.241003500 -0.093648137
O 0.574882750 -3.683102238 -0.975570847
C 0.428319598 0.138691762 1.997061378
O 0.803972604 -1.777925524 3.439893881
C 2.561561708 2.047698233 1.528185820
O 4.634873667 1.840505430 2.379651909
H -2.280619791 -0.106898027 -3.937953009
H -2.927507965 2.697601939 -2.301506310
H 0.241300678 1.953627251 -3.147680145
H -2.926536967 -1.391247289 0.464850252
H -0.502953065 -5.126271680 -1.182648472
H -1.251605807 1.609933917 2.535252978
H 0.941485082 -3.547335885 0.902749061
H 2.029085300 3.706295849 0.345937101

