14

O -1.845917341 0.682827515 2.274128033
C -2.319435011 0.097450266 -0.321456020
C -1.732988045 2.673953906 0.446699490
O 3.012196533 -0.974201193 2.527279449
C 3.556668808 -0.682173254 0.073762190
N 2.136442418 -0.823790161 -1.837636599
C -0.467830880 -1.647925803 -1.614571683
H 1.200450278 -0.731001944 2.800645321
H -4.288968011 -0.365134998 -0.685020372
H 0.142887446 3.420231016 0.091433340
H -3.237649401 4.055397900 0.613319495
H 5.556036275 -0.286580954 -0.201538479
H -1.179761462 -1.957688103 -3.527331207
H -0.573053608 -3.481451982 -0.644407040

