10

N 1.340794096 1.939238064 2.001823979
H 2.870571103 1.330739487 2.974242631
H 1.052160597 3.839891076 1.854436472
C 0.638807044 0.642770008 -0.407334038
C -1.356653547 2.113136615 -1.381005578
H -2.388373165 0.951549499 -2.766182386
C 2.378810924 -1.139068043 -1.507378480
N 3.790796483 -2.487648547 -2.449020939
C -0.847625920 0.127414727 1.955274998
H -2.667581352 1.092936597 2.145360999

