14

C -1.892636851 2.447132403 -0.173049931
C 0.246766239 0.641711251 -0.647055378
C 2.042919532 0.079618716 1.284565711
O 0.962947968 0.417241645 -3.104989985
C -0.231573124 -2.429872571 0.298505712
O 0.332659771 -3.934551785 -1.461222449
H -1.320536288 4.366088547 -0.668607099
H -3.502823235 1.940023170 -1.353869904
H -2.481261254 2.435474910 1.804597553
H 1.135944760 -2.560977196 2.133683947
H 1.790647727 0.810617863 3.182642743
H 3.918861597 -0.533085390 0.739268570
H 0.893584153 -1.449812207 -3.400514313
H -2.022777810 -2.297754807 1.327889364

