17

C -4.063893807 -0.223953994 0.553906997
C -1.372639836 -0.149846627 1.451470083
O -0.335968266 -2.642825884 2.004505179
C 1.744889351 -2.232015298 0.418652987
C 0.601775272 -1.250422063 -2.739117011
C 0.779304818 0.336668429 -0.458090551
C 2.322706221 2.721534904 -0.326142937
H -4.727277060 1.696610325 0.185238892
H -4.199817120 -1.328026917 -1.178256031
H -5.277571808 -1.060172695 1.996368869
H -1.170239434 1.027099370 3.142395639
H 3.645858155 -2.433256315 1.172659569
H 2.426757131 -0.992204179 -3.722479728
H 1.526453716 -3.555342031 -1.355460978
H 1.296400083 4.282085515 -1.203924067
H 2.732369743 3.254121067 1.624899395
H 4.109097454 2.505862862 -1.334072793

