12

C -5.864701986 -0.308602556 0.218701047
C -3.160321468 0.136828379 0.370252131
C -0.907322443 0.473366775 0.500223790
C 1.642328320 1.295732631 0.640921723
C 5.804862694 -0.076300432 0.774607280
O 3.162636666 -0.637906212 0.651505437
H -6.292980596 -1.653922962 -1.284404007
H -6.537900610 -1.120018697 1.992142156
H -6.903769011 1.436845057 -0.131830224
H 6.059410503 1.963606593 0.870639344
H 6.566095399 -0.998589866 2.450230534
H 6.690759120 -0.856680977 -0.911934887

