15

O -3.875040115 -0.951310430 -0.275552399
C -2.516952681 -0.040255834 1.830836533
C -0.747218534 2.128489562 1.157498504
N 1.177492222 -0.419234456 -2.238242474
C 1.687123617 1.272889509 -0.134233709
C 2.535741416 -2.354948710 -2.476147334
H -2.705680801 -1.070030924 -1.668222312
H -1.440314840 -1.574446826 2.735540175
H -3.926180299 0.596066882 3.196855808
H -1.773344412 3.438234078 -0.066889710
H -0.232435973 3.166085114 2.869149897
H 2.661585781 2.927489597 -0.898622503
H 2.958179808 0.377104146 1.244988421
H 2.189886178 -3.648505832 -4.036839146
H 4.075383436 -2.820429337 -1.168368738

