15

O -4.049298469 0.661410739 -1.137424926
C -3.157552320 0.155514123 1.309974288
C -0.398118524 0.878886242 1.600195119
N 0.514027351 -1.816236244 -0.612262288
C 2.132922349 0.903629276 -0.789466008
C 2.949618158 -1.662484876 -1.609370741
H -2.995766177 -0.388783541 -2.198285746
H -3.415527148 -1.830779368 1.818468559
H -4.256265715 1.331586670 2.610133546
H -0.325327691 2.945092301 1.555923825
H 0.430061471 0.200311612 3.351456399
H 1.540957799 2.192186183 -2.260221974
H 3.402458482 1.676122085 0.624682211
H 4.537384643 -2.517761692 -0.588736559
H 3.104473957 -1.828581012 -3.660219998

