10

N 4.459313556 -0.286743792 0.398449812
C 2.088687395 -0.151824282 0.399159271
C 0.375416375 -2.328014500 0.893145794
C -2.046027791 -1.283597642 0.043519807
C -1.765886665 1.560708706 -0.236489001
O -3.315104985 3.150094969 -0.516186722
O 0.771871259 2.072544579 -0.106458326
H 5.259234738 1.402103917 -0.080503391
H -2.214599733 -2.105867953 -1.872302566
H -3.735318697 -1.900125949 1.045065658

