10

N 4.354933097 -0.359955542 0.226491065
C 1.999753406 -0.198145381 0.210709603
C 0.186039191 -2.326641765 0.710533943
C -2.127094793 -1.104986908 0.325424520
C -1.799388844 1.700876666 -0.124812744
O -3.347290971 3.304055700 -0.358899318
O 0.733533157 2.102190659 -0.189582711
H 5.183190004 1.352152351 -0.080536972
H -1.320784334 -2.435552710 -1.406580300
H -3.985306352 -1.904713127 0.654653248

