14

C -0.495166221 2.319538133 1.299765685
N -0.569708642 -0.134340158 0.034517473
C -3.031460987 -1.355795271 -0.040837133
C 1.406168831 -1.160368204 -0.985582654
C 4.067469584 -0.325489470 -0.883454371
N 4.858960263 1.532042335 0.362103783
H -1.586957247 2.191586421 3.043572449
H -1.350139358 3.734404939 0.065390250
H 1.505096107 2.770335947 1.620879324
H -3.662350834 -1.750249559 1.882658624
H -2.923415839 -3.114649924 -1.099035423
H -4.396553370 -0.098449686 -0.938468834
H 1.034809358 -2.978353843 -1.884772567
H 5.253939045 -1.697538805 -1.961916610

