14

C -0.604625300 2.339426405 1.237800526
N -0.639327097 0.010204880 -0.212019315
C -2.724564797 -1.697634028 0.268915870
C 1.287199422 -0.634811918 -1.664360807
C 3.880334541 0.201332555 -1.144139614
N 5.407571794 1.844179719 -0.863458669
H -2.086538719 3.608964031 0.567424416
H 1.223226882 3.258028227 1.012545777
H -0.933174029 1.927983649 3.234790605
H -2.570523620 -2.511326816 2.164769488
H -2.711936116 -3.223042215 -1.110321038
H -4.514315168 -0.683524635 0.131073180
H 1.063832849 -2.267078731 -2.878620486
H 4.006040219 -1.986476190 -0.444955839

