10

C 3.545795588 1.314054055 -0.774415926
C 1.034271599 0.166279307 -0.207919649
O -0.770160736 1.082841604 -1.794728685
H -2.366612156 0.319509186 -1.391440060
C 0.583102208 -1.525338343 1.593927672
H 2.093757284 -2.180575101 2.798786379
H -1.290170601 -2.292059059 1.910745340
H 4.083883840 0.903335140 -2.723564470
H 4.991561835 0.586510518 0.493001011
H 3.444331450 3.365491206 -0.577946222

