13

O -4.271732122 -0.885394477 -0.382211905
C -1.969298391 -1.644404846 0.680974091
C 0.157856495 0.199506154 0.251748143
C -0.278611809 2.870554341 0.601062770
O -2.253618760 3.731740349 1.404324590
C 2.577907234 -0.576280353 -0.523653162
C 4.682488567 -1.659280222 -0.778557186
H -4.627833870 0.779034190 0.273726054
H -2.136564230 -1.898733618 2.742097600
H -1.489716439 -3.477116856 -0.124941907
H 2.227355535 0.751177870 -2.207734245
H 1.330154522 4.133293243 0.146631409
H 6.000741896 -2.277916519 -2.192460004

