10

N 3.325506983 0.132040852 0.417727248
C 0.770308304 -0.199607556 0.129496752
C -1.065516274 1.500581022 -0.674548663
N -3.273146886 0.277669497 -0.714085305
N -2.763274721 -2.175437502 0.200112926
N -0.357911520 -2.371597102 0.753327792
H 4.145556677 1.390703388 -0.742026058
H 4.301515623 -1.488882124 0.607217381
H -0.910843948 3.454029524 -1.228911443
H -4.158072314 -0.575989600 1.269704149

