14

C 4.114948292 0.675797904 0.833339231
O 1.494472312 0.765619081 0.336116099
C 0.449511610 -1.450694709 -0.397234585
C -1.909752837 -1.647115129 -1.228886404
C -3.701277379 0.511684204 -1.571433733
O -4.618513722 0.666747155 -4.090582541
H -3.182385287 0.755745546 -5.193057096
H -5.379369011 0.250224627 -0.398647307
H -2.804670722 2.283612644 -0.993322764
H -2.577065342 -3.516422819 -1.732552595
H 1.665969304 -3.099854597 -0.226274691
H 5.186306616 0.202344107 -0.871677144
H 4.545001581 -0.703313564 2.314055622
H 4.666694576 2.548644352 1.476868115

