10

O 5.039374835 -0.162559589 1.010944517
C 2.974414520 0.395769311 0.333207830
C 1.012472040 -1.160341767 -1.069139295
H 1.806729183 -1.805913785 -2.861271250
H 0.562803979 -2.842226591 0.039751164
C -1.129197569 0.664395240 -1.330771083
H -2.921023011 0.308875981 -2.231499176
C -0.429979854 2.807571489 -0.252345013
H -1.407384114 4.582838338 -0.031705938
O 1.971303012 2.755158612 0.760426681

