11

O 4.448987620 1.222778469 0.470986892
C 2.949975505 -0.925199498 0.670746194
C 1.324174880 -1.307531590 -1.650331972
C -0.546244309 -3.442562590 -1.616911069
H 0.069439158 -4.986796891 -0.399257329
H -2.332745240 -2.721899716 -0.871460695
H -0.874386104 -4.120971416 -3.530292748
O 1.549734405 0.111885808 -3.423148054
H 1.709174207 -0.816086787 2.331408883
H 4.109055237 -2.634700590 0.906695092
H 4.141574098 1.889922864 -1.204087699

