16

C 2.279926866 -1.353928032 2.257770413
C 0.446436043 2.012525328 -0.944694555
C -0.117040641 0.243035730 -3.073107319
N -2.094995735 1.079520826 -1.427429951
C -3.367245231 -0.708134349 0.209640094
C 2.144164406 1.302092996 1.218191858
O 3.446502537 2.944919448 2.123238202
H 0.771295346 -1.616671112 3.642255808
H 4.082642157 -1.569363878 3.222769320
H 2.075338067 -2.808488327 0.817594241
H 0.672912802 4.002926593 -1.377481295
H -0.137725810 0.970288193 -4.988485871
H 0.540764368 -1.695257735 -2.892713496
H -3.883496072 0.227013102 1.973161671
H -5.107121668 -1.296052940 -0.726480869
H -2.278595138 -2.412635340 0.649882842

