16

C 1.821139214 -0.678364965 2.256844844
C 2.121763592 1.634666860 -1.512310628
C 0.060661947 0.199780296 -2.676596423
N -1.736578033 0.710969298 -0.751043624
C -3.203182592 -1.333439830 0.284909850
C 1.017763216 1.998530923 0.976143642
O 0.901646046 3.798245235 2.411378388
H 0.449046189 -0.896205638 3.776231116
H 3.683886342 -0.347415358 3.061037657
H 1.852577397 -2.354580818 1.070205327
H 3.628656810 2.705263795 -2.412477925
H -0.387650367 1.387574455 -4.343971835
H 0.384374319 -1.734518779 -3.343588128
H -2.273435222 -3.188023757 0.294605714
H -3.742911050 -0.859449747 2.219427303
H -4.961217237 -1.497488447 -0.797135537

