10

C -0.921738956 1.130934699 0.209067110
C -1.414529149 -1.656606260 -0.084980001
C 3.432703001 0.197326827 -0.258826830
O 1.720383515 1.887612523 0.095455320
H -1.583822286 1.838699607 2.028654878
H -3.454289078 -1.949349025 0.039552554
H -1.839133678 2.231093867 -1.273591126
H -0.488822581 -2.751537217 1.390793169
H -0.743426950 -2.361397438 -1.897779797
H 5.198176628 1.343420721 -0.253808454

