8

O -0.614012704 0.457800912 2.342627317
C -2.380609055 -0.966429108 2.194234098
C -3.084218323 -2.378795107 -0.124969082
C -1.751300795 -2.174215416 -2.237770270
H -2.256496775 -3.199756991 -3.934819182
H -0.103912033 -0.957419007 -2.301900261
H -4.738261396 -3.585531691 -0.013670317
H -3.610861637 -1.299674657 3.855513367

