13

O -1.504755125 1.847651335 2.127933265
C -1.628612820 -0.515486768 1.613702069
C -2.149884002 -0.853201254 -2.268205934
C -0.404865318 -1.695008688 -0.489804407
O 2.870316935 -1.019714131 -0.853943387
C 3.532089953 1.284447244 -0.953807249
O 2.295722066 3.149229135 -0.270038802
H 0.016009798 2.612244030 1.104118295
H -2.736512325 -1.674379134 2.897304227
H -2.847885791 -2.127966599 -3.707344647
H -2.721007028 1.101603958 -2.368826272
H -0.155152978 -3.718682040 -0.344772746
H 5.429201921 1.598508482 -1.742194582

