8

C 3.186290727 -2.254092496 -0.634608980
C 3.369974204 -0.184942035 -2.050493857
H 2.805620536 1.658538807 -1.356534796
H 4.127288298 -0.296507856 -3.942513239
N 2.407751324 -2.368424403 1.861864003
H 1.482593721 -0.838636927 2.511399211
H 1.608123200 -4.001005271 2.409512340
H 3.780413817 -4.066868651 -1.390269488

