15

C -3.626854068 0.400652023 -0.856463073
C -1.404849689 0.961913003 0.879043089
O -1.539282027 0.106342486 3.172089019
C 1.162983510 -0.705538603 -0.395824434
C 3.194115648 0.523176857 -1.553857390
N 2.580991399 -1.135539131 1.877704953
H -5.260281778 1.497199414 -0.238382148
H -3.201918989 0.904581679 -2.815655681
H -4.123571943 -1.598379489 -0.752219827
H -0.801424554 2.957630256 0.693222407
H 1.145899478 -0.758494474 3.323208773
H 0.348414947 -2.338018521 -1.344689558
H 3.943305942 2.203841598 -0.666444667
H 4.072232639 -0.087906469 -3.312054306
H 3.528324144 -2.786843688 1.893472488

