11

N -2.814940722 -1.405272553 -0.278790747
C -0.325679142 -0.214530232 -0.052580288
C 1.789354229 -1.635022790 -0.638779133
N 3.577526339 0.136701692 -0.182007687
N 2.801914405 2.448546410 0.607392388
C 0.323750223 2.247590420 0.696598781
H -3.957035709 -0.584858274 -1.593718801
H -3.777156421 -1.525950425 1.384435658
H -2.363513213 -3.195861037 -0.872220119
H 5.446834521 -0.113512881 -0.376716128
H -0.821600158 3.836957843 1.276354548

