17

C 2.815061551 0.834150868 -1.304531404
C 0.918390002 0.743123007 0.814586515
C -0.432060386 -1.744434475 1.231152224
C -1.945627304 -2.773779992 -1.097892366
C -3.846938848 -0.787257598 -1.400107856
C -0.241595060 3.078041848 1.732021525
O 1.731606428 1.882990139 3.106931036
H 4.213698651 -0.667873791 -1.082231620
H 1.900867402 0.600756143 -3.139885988
H 3.800808592 2.641342089 -1.296604475
H 0.969150106 -3.191923037 1.684017134
H -1.683727363 -1.566777202 2.857043725
H -2.758454899 -4.574137831 -0.503331180
H -0.618873760 -3.075681164 -2.659919307
H -3.021840448 0.667703281 -2.661077822
H -2.093686495 3.014925638 2.617363676
H 0.261107805 4.866120076 0.856123394

