17

C 2.861641051 0.760363261 -1.347340239
C 0.991229382 0.471418449 0.772501067
C -0.044656326 -2.143586962 1.281309108
C -2.093409216 -2.286574922 -0.762084481
C -2.737919510 0.500007076 -1.173656645
C -0.911332858 2.591580442 1.523587871
O 1.473475131 2.063131211 2.795160467
H 4.713594763 0.184494226 -0.634962680
H 2.385902272 -0.422523940 -2.964551076
H 2.992508554 2.723741783 -1.955317781
H 1.391896429 -3.622278757 1.194654469
H -0.886493221 -2.162928328 3.161502509
H -3.736753339 -3.361284865 -0.129788771
H -1.356544736 -3.196682784 -2.469111392
H -1.717097186 1.180204225 -2.848376081
H -2.465772322 2.305423202 2.809637621
H -0.892382836 4.362784663 0.500491337

