17

C -4.265140360 1.010630823 -1.964339787
C -2.673475011 -0.842654900 -0.539382789
C -0.284896358 -0.509324654 0.138688002
C 1.324727947 1.810212288 -0.385614168
C 3.819016878 1.150053644 0.806989948
C 3.802867354 -1.120588071 1.863908025
C 1.293413068 -2.422768807 1.588046788
H -4.963908868 0.188118778 -3.726493166
H -5.926055365 1.559879607 -0.863875845
H -3.224360034 2.724969916 -2.436097782
H -3.587230725 -2.611530299 -0.025993466
H 1.465042096 -4.212086564 0.563282004
H 0.508907667 3.524264408 0.439848363
H 1.521608250 2.177086496 -2.413564953
H 5.427367299 2.415648716 0.779477293
H 5.396231094 -1.976636179 2.821691882
H 0.458336102 -2.877076523 3.425758881

