17

C -3.272814294 1.040386186 -0.042273608
C -1.773308299 -1.323661215 -0.652443743
C 0.430841267 -1.371149692 -2.389472154
C 2.125486258 0.921414396 -2.052195612
C 2.619654440 1.555144218 0.687121143
C 1.737292897 -0.100696381 2.343924501
C 0.292805032 -2.235015862 1.203232068
H -4.365910818 1.597958930 -1.701762834
H -4.612424476 0.674897979 1.484229354
H -2.098147250 2.635165368 0.512564628
H -3.065463264 -2.877459948 -1.059277778
H 1.650524327 -3.210314002 -0.213745580
H 1.134795278 2.486468753 -3.003765010
H 3.901576650 0.682717817 -3.080292417
H 3.627357415 3.259387450 1.212528179
H 1.975834840 0.064612155 4.368857714
H -0.288900366 -3.802422418 2.396116355

