15

C -2.815090123 0.543828861 -1.730981836
C -3.362983653 0.128538661 1.047781005
C -0.768722200 -0.121837579 0.035866397
C 1.262192071 -2.003601040 0.080310601
C 4.583848926 0.315103195 -0.992174170
O 2.985623336 2.447959669 -1.034065411
C 1.619641648 1.090573381 0.702849579
H -3.432701206 -0.888524676 -3.053876956
H -2.865539707 2.459915853 -2.443191455
H -3.797255000 1.769694312 2.190093368
H -4.346453971 -1.582410415 1.586414291
H 1.520886129 -3.130411355 1.768310220
H 1.784114887 -2.896746455 -1.672098064
H 5.589542367 0.418936673 0.863780829
H 2.022294664 1.488277771 2.675411981

