11

C -0.356604245 -2.263295141 0.287090103
O -2.460390722 -0.568706671 -0.198464253
C -1.260445568 2.426053151 -0.088116739
C 1.385037479 1.770286212 -0.236540969
C 1.957742073 -0.676958082 -0.071758268
H -0.559755511 -2.989733226 2.218641649
H -0.520738279 -3.854590084 -1.018973869
H -2.771571129 0.676629440 1.343508101
H -2.072759025 3.305479722 -1.761556414
H 2.776871490 3.256725109 -0.456076594
H 3.836154502 -1.473957578 -0.116024176

