13

C -3.389661125 -0.002272339 0.751988449
C -2.306890253 0.931752653 -1.733109422
H -3.831115302 1.312644754 -3.078002522
C -0.356128072 3.027081735 -1.624328244
H -0.452315812 4.955623402 -0.940940766
C 1.471828329 1.643335941 -2.657275618
H 3.420822916 2.029097243 -3.150773154
C -0.147702978 -0.691697398 -2.931818015
H -0.494643221 -1.335045133 -4.862774581
H 0.421609747 -2.311567571 -1.783912233
H -1.880034154 -0.411904359 2.100668693
H -4.492702635 -1.726726777 0.481233951
H -4.630675187 1.410968282 1.603291775

