18

C -3.877549520 0.444452700 1.306246501
C -2.299157739 0.438818047 -1.096215536
C -0.013489054 2.158798010 -1.254006439
C 1.747673050 0.089782551 -1.529630931
C 3.900270963 -0.486136808 1.662696677
C -0.412173551 -1.798634655 -1.441906122
H -2.684806168 0.201818744 2.976200992
H -5.286031602 -1.068807308 1.292214925
H -4.877652527 2.238366327 1.510310787
H -3.567342435 0.586099975 -2.727940131
H 1.801747676 1.133544506 0.633498652
H 0.236804982 4.142533040 -1.659983502
H 3.435022829 -0.052544099 -2.689391929
H 4.410100628 -2.437154631 1.264179704
H 5.544499894 0.751724038 1.603583625
H 2.936703921 -0.368205331 3.492102139
H -0.606429119 -2.769647199 -3.248612798
H -0.345888837 -3.200436971 0.068049208

