11

C 2.779842933 -1.084317140 -0.236689558
C 0.304352827 0.230275034 -0.430570413
O 0.299839802 2.163355822 -2.119044541
C -1.755419320 -0.384195778 0.869575277
O -3.985405695 0.897713016 0.379886219
H 4.253402119 0.254521486 0.305261672
H 2.699224042 -2.593273202 1.160672545
H 3.310251356 -1.892595258 -2.059938197
H -4.762544943 1.381050402 1.942476336
H -1.380388374 2.869701130 -2.129081991
H -1.814271836 -1.948912441 2.185500653

