13

C 1.644452713 -0.059511123 0.748555667
C 3.263009828 1.512092799 -0.989061942
O 3.864476224 3.658602393 -0.576960371
C -0.686912706 -1.012620005 -0.595507050
C -3.101345421 -1.236641708 0.779782125
N -2.757338298 0.720317130 -1.136654541
H 3.877330822 0.556861603 -2.754494600
H 2.770937598 -1.674856819 1.389442260
H 1.150776692 1.081417299 2.396106642
H -0.322515854 -2.339058116 -2.119498756
H -3.117543775 -0.685139916 2.754706646
H -4.435140878 -2.709271375 0.287091105
H -2.442777000 2.424756818 -0.319421956

