13

C 3.104047786 -0.659054269 1.502868838
C 1.712392846 1.012668458 -0.024795720
O 1.077225017 3.266766452 0.438524232
C -0.709182221 -0.819499538 -1.005595912
C -3.077266380 -0.359061702 0.364673565
N -2.597915314 0.677641748 -2.164242103
H 2.705392391 0.633541379 -1.913796738
H 3.587496118 -2.507562406 0.764751300
H 3.771261269 -0.151483999 3.378060569
H -0.171599396 -2.600290076 -1.857496543
H -2.988248903 0.942767469 1.942935578
H -4.512707522 -1.815110534 0.462312104
H -2.087634685 2.532952350 -1.989006590

