9

O 3.867984444 -0.964203653 -2.088444433
C 2.001519941 -0.465688081 -0.910276085
C 1.435035456 2.107527832 -0.156781884
C -1.723381036 -0.773392999 0.976411038
O 0.334569982 -2.170242324 0.003687309
H 0.496347225 3.155937209 -1.681623267
H -1.045835627 1.197413809 1.518831184
H -3.257388101 -0.625272429 -0.387497469
H -2.360046019 -1.602903645 2.747550178

