9

O 4.439192621 -0.397264708 0.203652213
C 1.711547552 -0.099017529 0.197659287
N 2.444739821 2.159378553 0.604534763
N -2.788856813 1.524585306 0.415340751
C -2.378618890 -0.803409673 0.014879533
N 0.057222986 -1.783726983 -0.137475459
H 5.014171633 -0.270705422 -1.528785166
H -4.662713037 1.923131210 0.476047598
H -3.846788350 -2.226900093 -0.246707657

