10

O -2.335819239 1.353164470 3.186407096
C -2.675337431 0.478814383 0.898069456
C -0.145014106 0.405727430 -0.337483184
C 2.220879123 -0.662085636 0.820771796
N 2.620774764 -2.214523256 -0.995780183
N 0.288698487 -1.632418351 -2.217407299
H -3.959264017 1.475886440 4.001322348
H 0.146978287 2.307481189 -1.120088276
H 3.305255317 -0.417015350 2.533913635
H 0.563265828 -1.091072363 -4.036249759

