13

O -2.910172959 -1.091893827 3.060772000
C -1.676923159 -2.156437799 1.150003718
C -0.838425958 1.960500903 -1.846574531
N 1.710376527 1.490062617 -1.926600709
C 2.878443929 0.254644885 -0.089690540
O 1.597494870 -0.393292541 1.818228148
H -1.768243833 -0.936958092 4.471603295
H -2.718905010 -2.094805081 -0.598336783
H -0.538171324 -3.815394689 1.512578459
H -1.586077221 2.510791796 -0.029162424
H -1.590298756 2.862425117 -3.519084858
H 2.659756186 1.768585269 -3.552850919
H 4.824795621 -0.334835659 -0.407349345

