14

C -3.211504776 -0.841034215 0.296962977
C -2.487216707 1.706415226 -0.771181603
C -0.775673652 0.407822248 1.022987931
C 2.715127391 1.086979349 -0.045629119
C 3.842400557 -1.181944474 1.051224823
O 1.395298351 -1.873978753 0.226459053
H -3.156701679 -2.431402909 -0.987336339
H -4.667110939 -0.946279677 1.732550970
H -3.426121274 3.416500338 -0.146793188
H -1.930520228 1.723009799 -2.739310915
H -0.562024637 1.066916731 2.937498154
H 3.072063170 1.170528052 -2.085140908
H 5.225555320 -2.219405458 -0.057867515
H 4.136024464 -1.308081500 3.086339541

