14

C -2.870085500 0.573178802 -0.144684216
C -0.451292979 0.655872084 -1.689755760
C 1.917050884 1.579320165 -0.327258726
C 2.428804762 -0.553055090 1.473465399
C 0.855542889 -2.482367443 1.084765156
C -0.802127437 -2.100257621 -1.172178804
H -2.688404358 1.213895226 1.795341486
H -4.547608495 1.196579684 -1.148847583
H -0.709735647 1.318260926 -3.612390406
H 1.709921859 3.403708574 0.621946095
H 3.464100801 1.789785445 -1.682530411
H 3.919445126 -0.493719031 2.877176622
H 0.864530446 -4.237252425 2.137471468
H -3.271748810 -1.663283059 -0.110701876

