14

C -3.096860345 -0.489923592 -0.811334863
C -0.586989280 0.801506001 -0.254460353
O -0.931854074 2.960202268 1.308953836
C 1.198262807 -0.916630252 1.105797222
C 3.791351987 -0.846284479 0.765093832
O 5.710133444 -1.659433195 1.655971293
H -4.396900664 0.815383526 -1.744701229
H -2.828402280 -2.111458046 -2.056081153
H -3.975092704 -1.140507523 0.937855523
H 0.275896688 1.400431037 -2.053731316
H -2.350602226 3.907118575 0.691369304
H 2.843072659 -1.342894356 -1.562895100
H 0.482997273 -1.838680748 2.796522223
H 4.024900990 0.188670389 -1.460712884

