15

C 2.752979418 -0.443454641 1.349578374
C 1.291373600 -0.751880734 -1.092498313
O 0.069023891 -3.110828388 -1.326055706
C -2.677526225 -1.159803857 -0.294481464
N -3.767859970 -2.444437730 1.200796400
C -1.086513210 0.975889285 -1.317565412
N -1.164256221 3.345792890 -0.050163366
H 1.532447134 -0.716226289 2.996035916
H 3.629057470 1.420463532 1.467282517
H 4.230920576 -1.875914872 1.431615335
H 2.531618846 -0.433738425 -2.714159095
H -1.833414214 -3.616392979 0.529619160
H -1.519383476 1.214996917 -3.316232169
H -2.655655196 4.425379290 -0.539868978
H -1.080375228 3.184497131 1.848861213

