14

O 4.033565271 2.218869229 0.508578609
C 3.211795113 -0.280723483 0.092919383
C 0.611956247 -0.769303424 1.150342754
C -2.488978877 -0.701972047 -2.674893137
C -3.745947726 -0.055806787 -0.261842927
O -1.144375169 0.815528902 -0.196544688
H 2.972636156 3.331645361 -0.451973375
H 3.212286272 -0.767285196 -1.920224452
H 4.553245435 -1.517737997 1.054604145
H 0.069953749 -2.740024362 0.870108161
H 0.496454674 -0.237186745 3.142925670
H -2.748268519 0.943691905 -3.919056711
H -4.091259176 -1.557986140 1.103195523
H -5.017456280 1.544290690 -0.014154691

