14

O 3.371062535 2.054929724 1.620198720
C 3.256746728 -0.104430234 0.088835496
C 0.786032375 -1.520388092 0.227645310
C -2.852328953 -1.423596395 -1.237505559
C -3.509679823 1.004985512 -0.100095410
O -0.966061538 1.147322971 -0.914066914
H 2.019855198 3.143581386 1.087258801
H 3.712266608 0.324936310 -1.888437596
H 4.701200654 -1.414244009 0.784847347
H 0.942611624 -3.294758096 -0.787082458
H 0.108978030 -1.797715001 2.141336638
H -3.230259967 -1.385875081 -3.274271537
H -3.781645598 1.163696295 1.935797761
H -4.633172592 2.327554635 -1.200474485

