11

N 2.233824125 0.456838135 1.654080036
C 0.144373356 1.843683099 0.500912652
C 1.672774832 0.042396402 -0.976479333
C -0.282433837 -1.845553758 -1.890750847
O -2.299732122 -1.774178915 1.378020585
C -2.290252254 0.345080242 0.379936996
H 1.550311036 -0.973111898 2.739282588
H 0.183226484 3.883250143 0.398585003
H 3.038185407 0.647170348 -2.383370606
H 0.043094694 -3.830617189 -1.401149378
H -4.003869169 1.160933421 -0.446968454

