12

N 5.116153935 0.560556679 -0.099346304
C 3.895589129 2.130335012 -1.122725748
C 1.963629156 -0.598387447 -1.245175125
N -0.033237410 -0.159036478 0.481662352
C -2.448227367 -1.260951088 -0.252508398
C -2.036815603 1.506549344 -0.349415784
H 1.532089144 -0.355012775 -3.251266201
H 2.784719900 -2.457489709 -0.946625515
H -3.516364673 -2.111474355 1.271157083
H -2.542069031 -2.254845684 -2.046207277
H -1.842811406 2.372084463 -2.199578413
H -2.818242961 2.716120650 1.103065472

