14

C -2.489488044 -1.350904754 0.335009514
C 0.000469748 -0.529353616 -0.886829535
C 2.164875558 -1.881187303 0.379328882
O 3.905021338 -0.857874755 1.427248216
C 0.378938219 2.331248898 -0.875548305
O 0.428259769 3.355895291 1.580799121
H -2.649777846 -3.406570375 0.427985437
H -4.088886549 -0.640221051 -0.752768509
H -2.630197732 -0.593838914 2.246116321
H 0.009355165 -1.187583530 -2.856453375
H 2.065954178 -3.976635665 0.321081911
H 1.955309561 2.756937581 2.364548292
H -1.196836895 3.231446980 -1.858135176
H 2.112888323 2.800130579 -1.908435830

