12

O 3.362041719 -0.725775472 -1.263247351
C 1.634475998 0.189240878 0.506302642
C -1.016642589 1.892648756 -0.018566143
C -2.358667898 -0.583755732 -0.706755019
C -0.340972733 -1.747906506 0.843883695
O -1.620447333 2.234449076 2.345399243
H 5.044443477 -0.215347974 -0.820356151
H 2.506847881 1.128981120 2.103572144
H -0.785713484 3.517258645 -1.283807666
H -4.329148956 -0.724805967 -0.122306457
H -2.115114685 -1.279907611 -2.654606455
H 0.039547621 -3.769542393 1.056233334

