15

C -3.418993586 -0.552497942 -0.531766626
C -1.318005340 1.311268845 -0.148804462
O -0.341589804 1.433301972 2.347284547
C 2.193182220 0.782722104 1.853924923
C 2.395247063 -1.864023336 0.755068929
C 2.024541246 0.348312430 -0.932520033
O 2.830695349 1.126436150 -3.131106793
H -2.823337417 -2.478808049 -0.112238167
H -4.993260226 -0.088884062 0.720780340
H -4.102608115 -0.474989200 -2.476400104
H -1.862439405 3.220213503 -0.774533316
H 3.620811385 1.677563379 3.009915936
H 4.320663122 -2.549379626 0.575081095
H 0.989827754 -3.291986605 1.175171771
H 0.435841879 1.471205097 -2.292479277

