9

C 3.041836925 0.731034712 1.627563512
C 4.025820833 1.656971978 -0.854457412
H 3.106395563 0.677733229 -2.423930327
H 6.051945462 1.293497822 -1.027455319
H 3.709349117 3.681327162 -1.082300765
C 1.911655792 2.154579971 3.346658782
H 1.616655692 4.162280394 3.047357079
H 1.235187432 1.370718967 5.112443722
H 3.294506593 -1.272427867 2.011728620

