10

C -3.707276333 0.572667726 -0.991325286
C -3.047298290 -2.121625850 -0.194008808
C -1.309769725 -3.371248522 -2.062505485
O 0.661393542 -4.364158475 -1.543998462
H -1.973905109 -3.319720509 -4.057623166
H -2.161945217 -2.180977650 1.666064131
H -4.774038843 -3.263210045 -0.116262754
H -5.054507686 1.412538398 0.321033005
H -4.557151102 0.611866561 -2.872109888
H -2.026528501 1.767177990 -1.028075905

