19

C -4.485944313 0.797667646 -0.062906602
C -2.300575998 -0.948856375 0.347701613
C -0.825157870 -2.024261623 -1.696062248
O 1.184896963 -3.253944925 -1.210023101
C 2.959746731 -0.006488261 1.168334836
C 4.549529308 0.856568179 -1.000737728
C 0.923813176 1.304900090 2.024711586
H -6.298275665 -0.170812288 0.118981938
H -4.387931816 1.699804208 -1.913505078
H -4.451679157 2.271936594 1.376794550
H -2.287792360 -2.073435226 2.061824390
H -2.750152879 -3.247851352 -1.599963873
H -1.009429448 -0.966696958 -3.493893788
H 3.701657478 -1.542451929 2.297285833
H 5.348840618 -0.739226750 -2.019602220
H 6.101719600 2.034588523 -0.304899430
H 3.445078628 1.998829651 -2.317543282
H 0.399370581 3.074651962 1.129352375
H 0.200172660 0.986639994 3.913048705

