10

C -1.723265347 1.365287138 0.001893713
C -1.016669235 -1.354910425 0.444614536
C 1.696390626 -1.521107624 0.649224330
C 3.094947602 -0.045359323 -0.659753336
H -3.734938938 1.821395555 0.016943814
H 1.548124736 1.238618210 -1.716405358
H -0.596603129 2.765178223 0.980907623
H -2.120214433 -1.832527856 2.156123330
H -1.669302592 -2.659516871 -1.012069396
H 5.068621522 0.356635407 -0.957135322

