12

O -4.100426011 -0.603985080 -1.551705767
C -2.567949039 -0.853097414 0.567537138
C 0.396581383 2.795158672 0.063320414
N 2.809128774 3.009336886 -0.576696584
N 3.742699136 0.610976273 -0.902714894
C 2.005087234 -1.104806288 -0.497810723
N -0.064399523 0.170594780 0.120224924
H -4.274706456 1.176182566 -1.888702460
H -2.418941809 -2.864497561 0.987679324
H -3.325547404 0.152411042 2.202468957
H 5.560382192 0.325818698 -1.378262244
H 2.234223292 -3.123359502 -0.644519403

