13

N 3.023414079 -2.434808876 -2.300072216
C 2.063894868 -0.606604977 -1.181461856
O 3.067170385 1.545284780 -0.156104511
C 0.646237523 2.341648175 0.888957820
C -0.572862576 0.038562999 -0.322436013
C -3.875376165 -0.915261995 -0.694176303
N -2.042238928 -1.794074330 1.077506454
H 4.928527828 -2.278050689 -2.485429688
H 0.669601587 2.305477059 2.945732994
H 0.104255151 4.187404133 0.159626073
H -1.757619472 0.404864676 -2.185797245
H -4.579255229 0.881513131 0.115411433
H -1.439960365 -3.538897918 0.541990309

