14

C -0.923722507 2.518890010 0.019052219
N -0.596972382 -0.114614157 -0.920541134
C -1.686504675 -1.961040401 0.885557617
C 2.048894203 -0.831816584 -1.633039353
C 3.646210532 -0.740313834 0.484219076
N 4.871966095 -0.773049314 2.303517300
H -2.910389428 2.907929817 0.412033220
H -0.210641081 3.808079294 -1.413047963
H 0.199470230 2.712451236 1.731231072
H -0.557055054 -1.916139923 2.603759386
H -1.552474092 -3.826119829 0.038783322
H -3.640302379 -1.461293200 1.303246145
H 2.647518357 0.266172063 -3.256599764
H -1.593705440 -0.284830690 -2.551300098

