16

C 2.473538718 -1.791301875 1.175539511
C 1.848212716 -0.621349301 -1.337173815
C -0.704452539 -0.519275801 -2.180113100
C -3.030983774 -1.496282708 -0.846179070
C 0.680622243 2.138076502 -1.421767386
C -0.045822778 3.071906890 0.818194682
N -0.667859656 3.789563267 2.888500484
H 0.995604061 -1.758522307 2.642820460
H 2.905598386 -3.781969081 0.832250541
H 4.179872100 -0.948343409 1.973516468
H 0.633339821 3.838728290 4.304335831
H -0.985414922 -0.252360017 -4.204315103
H -4.736826054 -0.531279492 -1.484219206
H -3.239307107 -3.503986022 -1.279356794
H -2.905027481 -1.313249504 1.201645322
H 1.190327110 3.469867999 -2.889422576

