16

C 1.738734815 -1.341491291 1.790880957
C 1.498451773 0.437217335 -0.441155487
C -0.794783376 -0.106360533 -1.977234636
C -2.694489862 -2.173019617 -1.475229741
C -0.617656757 2.442492956 -0.572823194
C -0.036569148 3.356415797 1.855442222
N 1.901301661 3.891260673 2.885384685
H -0.034770054 -1.612551282 2.827783357
H 2.314855732 -3.185214944 1.058156036
H 3.155768910 -0.721605753 3.144841323
H 3.109791911 2.617063512 1.003936751
H -0.685558094 0.367687527 -3.973183532
H -4.462531136 -1.748989849 -2.447480756
H -1.986903174 -3.967236243 -2.211715274
H -3.115971240 -2.424307951 0.519714652
H -0.381083285 3.999879599 -1.878299083

