9

C -2.011689937 -1.614352626 1.125651365
C 0.141026254 -1.554063578 -0.704036762
C 2.530904095 -1.126645210 -0.099760910
H 4.007905851 -1.106030301 -1.516777014
H 3.097427357 -0.778948510 1.840613144
H -0.334963952 -1.892737951 -2.674838090
H -3.423538529 -0.183217546 0.650779083
H -2.972366964 -3.442286256 1.074989244
H -1.369880741 -1.273792741 3.054931026

