16

C -1.008879103 2.563342661 -1.693956583
C -0.892126022 0.192264553 -0.057216750
C -2.785591026 -1.801659029 -0.923960159
C 1.747762169 -0.876896114 -0.072072869
C 3.630262718 -0.187403403 1.818604241
O 2.390383626 -2.563989609 1.909260488
H 0.329824445 3.994315319 -1.046955214
H -2.897341341 3.392336977 -1.656091914
H -0.561886253 2.122795987 -3.663270413
H -1.324677680 0.703302584 1.901638429
H -4.715734840 -1.078420628 -0.830705104
H -2.671179297 -3.489839116 0.254087680
H -2.416647247 -2.358978380 -2.880206268
H 2.432231233 -1.480358874 -1.921509731
H 5.629572020 -0.257028397 1.358009784
H 3.114026560 1.126215505 3.311617156

