11

C -2.705526411 0.678887096 -0.025092010
C -1.225814258 -1.495794932 -1.001636955
O 3.059800227 0.309579053 -2.697042655
C 3.229034763 0.747019074 -0.479787385
N 2.376208204 0.644264120 1.725893389
C -1.045883437 -1.095277892 1.448388752
H -2.045106493 2.598300043 -0.339029679
H -4.753427260 0.493521593 0.054660857
H -0.944048723 -2.743590843 -2.578684497
H 4.824247298 1.841324191 0.692873923
H -0.880849251 -2.024820793 3.247054662

