17

C -4.127086135 0.273772882 0.457493284
C -1.286438335 0.302499667 0.764307914
C -0.024325122 -2.145433357 -0.063270620
C 2.844240226 -1.898267290 0.176818631
C 4.044816908 0.533296681 -0.443469173
C 2.299599898 2.657813472 -0.541722856
O -0.348899908 2.334320648 -0.706258891
H -4.961933651 -1.242651906 1.579161296
H -4.621671246 -0.023748113 -1.522986635
H -4.936237098 2.067832661 1.066761225
H -0.817042875 0.655596581 2.766166002
H -0.543104699 -2.515511954 -2.029753791
H -0.720340090 -3.732098642 1.061859314
H 3.424332969 -2.010276233 2.185719559
H 3.887817328 -3.463834085 -0.676503490
H 2.847339056 3.619940902 1.252044072
H 2.835575548 3.995615318 -2.019851607

