17

C -4.140682941 0.334503388 0.239225117
C -1.333593937 0.381378725 0.766179290
C -0.088214513 -2.200394756 0.479888239
C 2.759645880 -1.915632248 0.405851170
C 4.051368097 0.378413801 0.224068455
C 2.378859433 2.565054753 -0.357362687
O -0.204944086 2.100883536 -0.935476434
H -5.097301555 -0.993469294 1.495616012
H -4.483811058 -0.242128095 -1.711947456
H -4.957299041 2.205985946 0.511921875
H -1.006041528 1.052520533 2.711429915
H -0.766364068 -3.130973813 -1.237027930
H -0.588723614 -3.431388753 2.062085134
H 3.855046189 -3.596847579 0.877218464
H 3.841857582 -1.404284604 -1.620364166
H 2.533100070 3.790756175 1.321927864
H 3.127129808 3.650717964 -1.941201414

