11

O -3.616135617 1.361579968 -0.465006778
C -1.889457009 0.801051087 -2.058472601
N 0.291006296 2.192313909 -2.071253953
C 1.699874260 0.632657894 -0.765723111
O 4.015182374 1.168008140 0.006986677
C 0.372675705 -1.644506173 -0.071970843
N -1.456437757 -1.769996214 -2.146107422
H -2.175991419 0.129354191 1.108078840
H 4.361276473 2.905221102 -0.424138333
H 1.382639133 -3.334796820 0.486987997
H -3.060624034 -2.698577736 -1.683774361

