14

C -2.411928318 -1.772313226 -0.753374431
C -1.120253325 0.754540751 -0.968712219
C -0.707271992 2.358955515 1.304392415
C 1.542945224 1.190166615 0.057158848
C 3.116460584 -0.757724807 0.907253676
O 4.734644573 -1.257704180 -0.804559439
H -2.105199160 -2.613637986 1.107046993
H -4.448488089 -1.567140597 -1.028279277
H -1.718343102 -3.100222848 -2.173139217
H -1.497047669 1.747415990 -2.722942145
H -1.333931083 1.593830314 3.102671858
H -0.909469512 4.389681116 1.133314980
H 3.683361792 0.586786966 -1.753118598
H 3.220801378 -1.769904865 2.701699791

