13

O -3.291592767 0.522150830 2.131533457
C -2.451074126 -1.736115144 1.048475631
C 0.351511320 -1.589813795 0.401902511
O 1.772307822 -0.421323076 1.925237385
C 3.100528984 2.918812768 0.493834683
N 2.353844675 3.340962127 -1.532873645
H -1.933975139 1.103204216 3.198412866
H -2.668710709 -3.341120221 2.354093268
H -3.590548820 -2.123378760 -0.625280725
H 1.123381861 -3.243498462 -0.600259636
H 0.066123104 -0.208979540 -1.913718087
H 4.119693885 3.160024271 2.219413678
H 0.800075176 1.291760937 -2.120518055

