14

C 2.641557802 0.968959981 0.874480591
C 0.325410007 0.588795121 -0.796810976
C -0.296750459 -2.224030525 -1.179652217
C -2.303035344 -2.900952532 0.726630743
O -3.211224246 -0.791189665 1.565214210
C -2.093717430 1.499352454 0.450540396
H 2.393551184 0.037081000 2.701599597
H 2.995607931 2.971303842 1.224072195
H 4.326162678 0.172295439 -0.009312665
H 0.599738468 1.549594168 -2.600035738
H 1.326105840 -3.486592774 -1.029857255
H -1.166974649 -2.611477160 -3.022384500
H -3.484325462 2.242302381 -0.877292258
H -1.824390582 2.842469345 1.987037515

