14

C 2.882324236 0.924061751 0.840142831
C 0.467438988 0.645997036 -0.676920855
C -0.479257883 -2.034278948 -1.332814160
C -3.123464268 -1.811728548 -0.085151928
O -2.474604939 -0.822417899 2.323428494
C -1.965751847 1.229506801 0.747255138
H 2.768783689 -0.155812454 2.592824770
H 3.241950966 2.900642428 1.317059419
H 4.500179223 0.228660754 -0.234576806
H 0.559886866 1.778425734 -2.400370261
H 0.552961171 -3.559841677 -0.402327492
H -0.589227226 -2.423181089 -3.349586138
H -3.607150744 0.767911187 -0.860780681
H -2.587344243 3.030843538 1.515589132

