9

O 4.253556131 -1.403724035 1.557977315
C 2.106991395 -0.930350192 1.142048613
N 0.938034650 1.003481875 -0.010174191
C -1.756787085 0.683745941 -0.017016833
C -2.173529654 -1.804777134 1.320141808
O 0.073641928 -2.600810488 1.917912183
H 1.922580525 2.452281718 -0.729403671
H -2.773644480 2.158222778 1.017197942
H -2.577277048 0.555160037 -1.911000397

