9

O 4.233842792 -1.569382360 1.190954707
C 2.060154647 -1.027602661 1.020006642
N 0.970433419 1.252023644 0.374834509
C -1.619718447 0.961500306 0.375964357
C -2.258486449 -1.490166401 1.210045759
O 0.065111780 -2.653127631 1.419936563
H 1.988519816 2.719792690 -0.258612516
H -2.913256482 2.533209504 0.223289604
H -2.544334246 -0.660635819 -1.210357564

