16

C 4.123603332 1.473089778 2.194404872
C 1.632000041 2.900508654 1.981625037
C 0.250115589 2.384282059 -0.486252383
C -0.895919968 -0.235835723 -0.682977767
C -1.744669802 -1.047355590 -3.282555303
H -0.078239650 -1.463013361 -4.431031404
H -2.909847076 -2.735856704 -3.153970779
H -2.775833671 0.465625116 -4.233667444
O -1.137234895 -1.594657862 1.130337489
H 1.488969827 2.687527790 -2.117800005
H -1.321877521 3.710855134 -0.741289745
H 0.398660403 2.382180438 3.552790485
H 1.978619257 4.931415745 2.135322113
H 3.817545594 -0.564813023 2.123395900
H 5.408805030 1.984370393 0.659263556
H 5.075399289 1.900657699 3.972914567

