14

C -2.756670752 -2.075354999 -0.808738890
C -0.532804974 -0.384557358 -0.353729027
N -0.691238988 1.778156978 0.814171512
O -2.824400558 1.869127373 2.373165934
C 1.908509624 -1.075850770 -1.180437984
C 3.690064046 1.664590182 0.477860336
O 3.974592399 -0.833099576 0.425519477
H -4.481553780 -0.985368019 -1.078218918
H -2.410260710 -3.262120032 -2.458297510
H -3.043431759 -3.324393556 0.808673600
H -3.023515539 3.642905137 2.690735883
H 2.236845457 -2.294215879 -2.793906464
H 4.112352602 2.724952474 -1.218541118
H 3.763386005 2.585497716 2.302123003

