12

N 4.137415661 -2.317872340 1.962051008
C 3.167608838 -1.136268433 0.426042402
C 1.924437143 0.456930769 -1.500368957
C -3.651392332 -2.882163968 0.121650137
N -2.766933722 -0.756046277 0.595793023
C -2.003853205 1.494744622 0.681674914
N 0.225949998 2.322037013 -0.468710169
H 3.385340172 1.409910885 -2.595612059
H 0.890740966 -0.771697669 -2.791499973
H -3.185155531 -4.244117554 1.624985888
H -3.129878207 2.928739594 1.610198800
H 1.099178476 3.698587977 0.516660023

