10

O 1.525765081 -3.389118093 1.203754351
C -0.460847586 -2.303774397 1.076748258
C -1.231476576 -0.554456397 -1.024495516
C -2.001005841 2.037235066 -0.011555203
H -0.406841235 2.977816443 0.897730061
H -2.665905883 3.249790060 -1.538038833
H -3.522243875 1.879539140 1.374756273
H 0.320185085 -0.422386103 -2.374145039
H -2.845206424 -1.429864050 -1.983316493
H -1.895595897 -2.548194465 2.595057028

