8

C -1.974442585 -0.875844746 -0.525103981
N -1.187037796 1.712251910 -1.020705425
N 0.590071215 2.286617781 1.049846495
N 1.569940566 1.521541619 -1.388229793
C 1.649276220 -0.242942907 0.733456661
N -0.292119722 -2.159154715 0.553282500
H -3.844571304 -1.475837383 -1.088079112
H 3.451196579 -0.677479949 1.593264889

