8

C -2.085301705 -0.651581933 1.979711217
C 0.185234980 -0.056617404 1.176796104
C 2.664290149 -0.484992352 0.188873534
H 4.168474595 -1.129681792 1.423743945
H 2.935877354 -0.788530933 -1.820606330
O 1.643692608 1.998188921 0.839025247
H -2.672984571 -2.605423479 1.997187536
H -3.379017904 0.792856611 2.622828046

