17

C -3.923220156 -0.737657711 0.963683620
C -1.730430092 1.073313397 0.870037467
O -1.420093788 2.521464705 3.031015503
C 0.835710138 -1.564351701 -2.629853518
C 3.595495064 -0.718388438 -2.258375182
C 2.815479048 0.990243267 -0.104002268
O 0.505055442 -0.413819616 0.469611776
H -5.672676427 0.314598468 1.229726992
H -4.020466634 -1.784315066 -0.806392039
H -3.685785404 -2.073176334 2.521498191
H -1.882160625 2.380386880 -0.720518651
H -1.625292345 1.457784980 4.489134398
H 0.663306966 -3.585607091 -2.181895604
H 4.947918421 -2.159707157 -1.645350276
H 4.378168810 0.284290190 -3.878949126
H 2.301503589 2.891747638 -0.708517926
H 4.007338801 1.078482667 1.570329226

