17

C -3.965384141 -0.806116120 0.747482624
C -1.897327756 1.019265926 0.139031063
O -1.618742838 2.996892624 1.738306735
C 0.677257736 -1.726152546 -1.492158834
C 3.043754713 -0.183246553 -2.187693888
C 3.313255132 0.479934689 0.600904259
O 0.979439665 -0.721262504 1.314395397
H -5.602135861 0.251029026 1.441877908
H -4.463966723 -1.886092030 -0.923435855
H -3.365111598 -2.120628509 2.216600518
H -1.778797444 1.748583973 -1.760839660
H -1.770269525 2.417091786 3.458357583
H 1.069975064 -3.756502376 -1.371409832
H 4.630645159 -1.222245604 -2.995037990
H 2.662761757 1.447593007 -3.405183581
H 3.307584442 2.483986901 1.107810915
H 4.866913043 -0.466840739 1.582171421

