11

C 0.480691222 0.142921820 -3.015306682
C -0.250583561 -1.500545438 -0.855730388
O -2.767242315 -2.084695953 -0.882561079
H -3.153802933 -3.188738546 0.504598941
C 1.315091723 -2.368751326 0.907173061
O 3.881712360 -1.935985411 0.795837200
H 4.446012756 -1.304486089 2.397088676
H 0.656933089 -3.593137593 2.424333992
H -0.656942954 1.864553990 -3.005730665
H 2.472254725 0.634940948 -2.901742589
H 0.127394016 -0.830678704 -4.800202158

