14

O 0.338028181 -1.300466017 2.236448860
C -1.252293573 -0.280546718 0.256373417
C -1.306610821 2.572543114 0.512471596
O 1.100548470 3.663655615 0.224102375
C 2.060585240 -2.774026091 1.053582068
N 2.040952157 -2.934591075 -1.316474001
C -0.012428200 -1.291479954 -2.178292255
H 2.162959641 3.027483869 1.550521060
H -3.153880771 -1.035606142 0.545657436
H -2.501877448 3.356126895 -0.976890783
H -2.149793824 3.082511258 2.335600220
H 3.367665488 -3.734298056 2.303410058
H 0.772554225 0.235258733 -3.323457367
H -1.327627297 -2.365839730 -3.344970255

