12

O -4.732327183 1.755086275 -0.100126345
C -3.157859079 0.171868758 0.226744250
C -0.670623532 0.179766131 -1.173526424
C 1.341005027 1.885858895 -0.042066456
N 3.461727853 0.323348599 0.218878681
C 2.818630563 -1.903849881 -0.498700387
O 0.458392189 -2.312849372 -1.217612884
H -3.373008688 -1.376116346 1.618675072
H -0.968073094 0.753089441 -3.135520646
H 0.566756398 2.814119768 2.303580265
H 0.111403531 1.696050777 3.353346012
H 4.060359433 -3.531788107 -0.572672753

