16

C 4.484162245 0.067680182 0.401252918
C 2.493911685 0.071586152 -1.610579202
C 2.470800656 1.190066025 -3.784161428
C 0.016700171 -1.340353204 -1.223628544
N -1.326259570 -0.304256602 0.929174216
C -4.043786459 -0.673857250 0.905994779
C -2.939548790 1.842153876 0.385539902
H 6.098415660 1.224227133 -0.135385894
H 5.133345265 -1.861307686 0.740747904
H 3.684131289 0.792577801 2.156122271
H -1.119448566 -1.290787275 -2.967168082
H 0.464854580 -3.321283161 -0.840324887
H -4.899034041 -1.080620685 2.720657731
H -4.852255326 -1.690894603 -0.683649678
H -2.984261997 2.519168820 -1.552407914
H -2.980418804 3.305912696 1.814929461

