14

C 2.193486163 -0.411974336 -1.625666227
C 0.024635358 -1.967107329 -0.614962934
C -2.247440679 -0.310411421 -0.367521288
C -0.834494780 -1.084378481 1.957444781
N -0.013381132 1.503113161 2.442833428
C 1.702792149 2.266007975 -0.892501000
C -0.960980744 2.317922777 -0.098396546
H 2.131792255 -0.352012948 -3.704344914
H 4.072563775 -1.080281158 -1.103626494
H -0.221794302 -3.946121841 -1.068534941
H -4.154316937 -0.727231978 -0.952448234
H -1.338525139 -2.328283616 3.495990553
H 1.815528031 1.911102518 2.909951162
H -2.060363839 4.049183026 -0.134567360

