14

C 2.221097027 -0.417855277 -1.494205067
C -0.022361885 -1.972155543 -0.655596240
C -2.298132242 -0.316136573 -0.396993740
C -0.882821275 -1.139882572 1.908774828
N 0.036203316 1.472629573 2.386777537
C 1.675104600 2.168861369 -0.458120408
C -1.084839423 2.319974547 -0.021546846
H 2.295915593 -0.248532320 -3.555191382
H 4.025891679 -1.177814647 -0.851402235
H -0.272149305 -3.939149640 -1.156682123
H -4.197257675 -0.742474698 -0.994971815
H -1.360672200 -2.355685722 3.474128651
H 2.143416018 2.210461875 2.033790964
H -2.161074714 4.061768072 -0.085933330

