13

N -4.330738083 0.953005779 -0.496143890
C -1.719424063 0.446542907 -0.279619694
C -0.723373441 -2.006579532 -0.648096088
N 1.734199132 -2.041251055 -0.337423431
C 2.544797815 0.638482578 -0.074636680
O 4.378185478 0.898484629 1.784563622
C 0.187069261 2.141252111 0.243872728
H -5.398989395 -0.047661066 0.729314494
H -4.631580668 2.814753147 -0.201669890
H -1.744957986 -3.723527071 -1.118780378
H 2.865391326 -3.530695241 -0.675152959
H 3.725051607 2.128096348 2.951295913
H 3.324213673 1.123261826 -1.943824788

