12

O 0.193133298 -2.513132203 -2.107672207
C 0.025110643 -0.336413580 -0.635977879
C -0.869571082 -0.524580394 2.061391151
C -0.562004682 2.018746930 -2.056077714
O -0.805899123 4.065634925 -1.102097876
C 1.862524991 -0.119199275 1.517052517
H -1.471423701 -3.187211458 -2.357133932
H -1.956123787 1.053949374 2.774440508
H -1.454064525 -2.384123001 2.679359203
H -0.752594125 1.739483203 -4.125351196
H 3.129134297 -1.707963384 1.732194001
H 2.650874095 1.734076300 1.866713229

