9

O -2.706702897 0.157693072 -1.386664420
C -0.431750924 0.378766802 -0.335845812
N 1.346530624 -1.176453156 -0.427710690
C 3.312927870 -2.426066417 -0.836673086
N -1.619699417 4.340446475 1.413095565
N -0.070998277 2.714077648 1.095528394
H -2.728912527 -1.291650785 -2.482101596
H 3.565884530 -3.912713317 0.600509855
H 1.770091664 2.760529705 1.798751081

