9

O -2.988382261 -0.444002076 -0.488217226
C -0.558569934 0.147052213 -0.035683661
N 1.320266984 -1.185618744 -0.529174073
C 3.195494165 -2.314868148 -1.422879018
N -0.041655592 4.562671748 -0.027294429
N -0.292672052 2.629362416 1.155912797
H -3.073575631 -1.905069113 -1.567328775
H 3.931627774 -3.709707447 -0.062630815
H -0.377861491 2.563164441 3.115167728

