8

C 2.146516038 -1.234216906 2.321516714
N 1.485334050 -1.122246457 4.382830557
C 3.007553060 -1.319194602 -0.352222575
O 3.176745890 -3.312962395 -1.405898071
C 3.589667546 1.205278283 -1.486451086
H 5.041647609 2.151924472 -0.366266245
H 4.223981218 0.961079048 -3.425527106
H 1.901545662 2.391642996 -1.426689442

