15

C -4.123484487 0.583719940 -0.430757552
N -2.362145769 -1.551733244 -0.294723085
C 0.345518394 -1.025353754 0.474183855
N 0.737733243 -2.075217351 2.539695422
C 1.973033586 0.478351552 -1.285029317
O 1.151830554 1.158801054 -3.307611087
C 4.603359101 1.009744881 -0.385642098
H -6.048868798 -0.121614799 -0.614747089
H -3.670852561 1.800698784 -2.027796488
H -3.973574346 1.660519882 1.318523031
H -2.492335975 -2.662575260 -1.856467720
H -1.884793939 -2.605160070 1.753150440
H 5.579015081 -0.771456029 -0.028851753
H 5.610422423 2.120636711 -1.790904711
H 4.532710556 2.002062557 1.420281362

