11

C 2.508900729 -1.377389965 -0.534854590
C -0.056832682 -0.223160215 -0.877313158
C -2.216072926 -1.506496110 -0.268096711
O -4.035831884 -2.528611857 0.327394409
C -0.655394569 2.634973920 -0.466959130
H -2.591938828 3.006418298 0.209988106
N -0.591696229 1.578337999 -2.951392063
H -2.287395952 1.247850052 -3.825352846
H 2.821120769 -2.947625007 -1.832633776
H 3.867985824 0.115374186 -0.927531080
H 2.783730969 -2.015575535 1.404734245

