13

C 2.555938582 -1.345778626 -0.409931069
C -0.073893224 -0.373839436 -0.812189775
C -0.665754898 2.341151460 0.030588354
N -0.401881894 1.725719837 -2.556944294
C -2.064258716 -1.327246876 0.740605665
O -3.956311982 -2.399552350 1.011572719
H 2.891617795 -3.043805982 -1.529095591
H 3.889269166 0.114572508 -0.977031738
H 2.864267128 -1.800488041 1.577829020
H -2.632643227 2.708625146 0.602473545
H 0.133602182 1.697795089 2.578035338
H -1.991423021 1.866857434 -3.617571487
H -0.644741389 0.167190779 3.387588246

