9

O -3.257059005 0.301649536 -1.779855463
C -1.299817577 1.217857264 -1.120738796
C 0.286064775 -0.056955684 0.936771444
O -0.834236208 -2.262423750 1.783035173
C 2.848404710 -0.475910876 -0.088653515
N 4.829003210 -0.734170939 -0.926970153
H -2.303748735 -2.542877570 0.729258634
H -0.543880980 2.984321806 -1.927364820
H 0.477674595 1.311382738 2.489058585

