9

O -3.550486399 0.485600787 -0.577674253
C -1.260972461 1.219944674 -0.738256036
C 0.473021655 -0.707109438 0.157441965
O -0.724061112 -2.601482796 1.071574150
C 3.174245121 -0.589040294 0.143431309
N 5.334782908 -0.450200434 0.039688482
H -2.573814333 -1.967974902 0.565778408
H -0.598384876 2.715785582 -1.998684785
H -0.274330502 1.894476839 1.336700760

