15

C 3.314626053 1.243811386 -0.071866190
C 0.727321457 0.323004707 -0.672525239
O 0.009167817 0.057307041 -3.210842823
C -1.601980173 1.486441109 -1.565297358
C -3.283904076 -0.393192329 -0.211819515
C -0.906035767 -1.811642452 0.792229638
C -0.150819590 -1.269221229 3.350413856
H 3.773670273 2.837447889 -1.294252919
H 3.422951844 1.842270075 1.898945853
H 4.705525160 -0.245302400 -0.394213594
H -1.969015688 3.427220074 -2.094410279
H -4.341799746 0.436723588 1.344855892
H -4.518143602 -1.488277866 -1.444893873
H -0.530821253 -3.676988691 -0.015234008
H 1.396955906 -2.595451300 3.822083866

