11

C 3.681978286 0.578194854 -1.720166234
O 2.230772406 0.163725399 0.457133915
C 0.841981440 -2.075386898 0.333333534
C -0.679539789 -2.421881429 2.683265418
O -1.905649221 -4.556700573 2.413910754
H -2.909198900 -4.828022725 3.905709784
H 2.088811058 -3.734567247 0.102662244
H -0.459245325 -2.074239229 -1.300039752
H 5.072183995 -0.935340373 -2.014468288
H 2.493658802 0.708084347 -3.417658476
H 4.679611138 2.360014801 -1.467514443

