11

C 2.410785695 -2.280569618 -0.395089614
N 1.113243424 -0.260929377 0.922592753
C -2.959296201 2.605332357 0.099197412
C -0.917162039 0.836097267 -0.094765400
N -2.168289878 0.929374961 -2.111333759
H 1.455425563 -4.100586751 -0.181065337
H 4.335601369 -2.439656042 0.316502934
H 2.490505208 -1.821205695 -2.400496608
H 1.378312114 -0.048981474 2.787057869
H -4.689434104 2.097262821 1.086240522
H -2.614378910 4.623425385 -0.088076110

