17

C 4.282203812 1.497937711 -0.115246176
C 1.965594830 -0.177275321 -0.415350105
O 0.916912388 -0.560288432 2.029845140
C -1.330249216 -1.983707761 1.906536769
C -3.407662505 -0.493199451 0.596932622
C -2.347034820 0.831396706 -1.764405082
C 0.297974585 0.590018549 -2.495719133
H 3.710912242 3.384607846 0.488483791
H 5.534948973 0.710339017 1.316620662
H 5.276650076 1.651117607 -1.908342818
H 2.595493157 -2.035391354 -1.183618506
H -1.843159229 -2.469867566 3.841648541
H -4.202618148 0.891343089 1.903307303
H -4.942036838 -1.763171204 0.056397856
H -3.638682563 0.828547641 -3.370522168
H -2.053521387 2.890778266 -1.381199048
H -0.973680025 -3.759020984 0.880351781

