17

C 3.708923475 1.653436074 -0.391191940
C 2.198124893 -0.746794726 -0.098452482
O 1.001094565 -0.970777387 2.334117011
C -1.334205282 -1.965493238 1.601327254
C -3.297741123 -0.004416441 0.912017336
C -2.032532596 0.958735372 -1.504856773
C -0.029856123 -1.105023209 -1.921723100
H 2.553972964 3.336223147 -0.114624381
H 5.236690362 1.686380199 0.991234201
H 4.543006464 1.723955645 -2.277006918
H 3.486917297 -2.361383548 -0.272168712
H -1.906889694 -3.533487273 2.821828622
H -3.613143878 1.368382283 2.419991930
H -5.093060896 -0.933776096 0.495479821
H -3.328629944 1.112671649 -3.097285571
H -1.150827261 2.807605882 -1.249850251
H -1.019665925 -3.029670093 -0.514051351

