17

C -3.113975122 -1.608026031 0.586599108
C -0.870611830 0.071654635 1.120159538
O -1.110234942 0.855120857 3.666763062
C -0.339798495 2.333832230 -0.698179631
C 2.345617582 1.350094137 -1.091813476
C 1.789370631 -0.933854822 0.566729734
C 2.236587792 -1.235085594 -2.206479145
H -3.117517414 -3.214693292 1.878955971
H -3.073473964 -2.316689466 -1.347461749
H -4.864249002 -0.550819733 0.856452679
H 0.365763540 1.812357808 4.112694623
H -1.500795317 2.465196258 -2.401276555
H -0.447782322 4.118590720 0.323927593
H 4.041024832 2.488525758 -1.171230407
H 2.968942705 -1.856732546 1.961646758
H 0.699230206 -1.743623442 -3.465193157
H 4.036931345 -2.069819084 -2.706046520

