9

C 3.486886041 -1.148455976 -0.863116855
C 2.509863128 -1.445755607 1.771948830
C 1.119166808 -3.360820956 2.582782878
H 0.465876374 -3.465938767 4.519945740
H 0.581470864 -4.896291160 1.333983239
H 3.000625570 0.048998463 3.094601631
H 2.785104875 0.598124094 -1.714087231
H 2.916934683 -2.726466655 -2.061020444
H 5.549535051 -1.035370418 -0.877011199

