14

C -3.434393663 -1.716146371 0.318073108
C -1.426451129 0.047723975 1.012498685
C 0.553864176 1.171059443 -0.102851689
N -1.084505451 3.214684202 -0.800198820
C 3.070403915 0.689667549 -0.392019357
C 3.765431237 -1.692331834 0.655080761
O 2.204579026 -3.145216452 1.582526577
H -5.215738307 -1.307836554 1.264731013
H -3.715619360 -1.932725350 -1.717771516
H -2.732485414 -3.518398604 1.056441809
H -0.999938922 4.774437689 0.282881362
H -1.183865078 3.557645211 -2.673309396
H 4.403506957 2.039893060 -1.141255476
H 5.788735922 -2.205170472 0.663196719

