10

N 6.425487644 -1.541193523 1.617739488
C 4.369309113 -1.035229973 1.150569143
C 1.765938708 -0.393828808 0.709607145
N 0.653573629 -0.202039766 -1.427691999
C -1.747888724 0.452318855 -0.123587049
H -2.416327732 2.333810838 -0.628967278
H -3.229322455 -0.930121479 -0.492317856
C -0.380199063 0.217573183 2.453432429
H -0.993910261 -1.313332652 3.685608601
H -0.177471947 1.952361607 3.543386944

