27

C     3.53091   0.00187   0.64413
N     2.11952   0.05614   0.97983
C     1.17875  -0.20130   0.04933
O     1.51638  -0.56541  -1.08602
C    -0.27567   0.10314   0.39413
C    -0.51865   0.62664   1.81314
C    -0.88344   1.61673  -0.73829
C    -2.30642   1.28715  -0.85788
C    -2.51636  -0.26630   0.00270
N    -1.21413  -0.87909  -0.00475
C    -0.98244  -1.71011  -1.18025
H     4.12441   0.38030   1.48482
H     3.74908   0.62666  -0.24497
H     3.86165  -1.02237   0.40929
H     1.87669   0.23531   1.94808
H     0.26231   1.32027   2.09901
H    -0.60528  -0.15584   2.61604
H    -1.46066   1.18716   1.82343
H    -0.24314   1.51138  -1.66092
H    -0.57518   2.51615  -0.14544
H    -3.01803   2.03788  -0.37236
H    -2.67808   1.07504  -1.90709
H    -2.80974  -0.01322   1.07126
H    -3.26338  -1.06552  -0.36842
H    -1.85442  -2.36159  -1.31097
H    -0.09309  -2.33580  -1.03396
H    -0.83642  -1.11469  -2.09819
27

C     3.53139   0.00245   0.64337
N     2.12081   0.05742   0.98019
C     1.17773  -0.20426   0.05138
O     1.51574  -0.56580  -1.08572
C    -0.27130   0.08802   0.40456
C    -0.51977   0.62444   1.81423
C    -0.88916   1.63388  -0.75167
C    -2.30447   1.31064  -0.87103
C    -2.51592  -0.28968   0.01782
N    -1.21494  -0.87540  -0.00734
C    -0.98198  -1.71052  -1.18097
H     4.12478   0.38054   1.48443
H     3.74928   0.62673  -0.24525
H     3.86189  -1.02223   0.40911
H     1.87754   0.23312   1.94866
H     0.26287   1.31841   2.09978
H    -0.60933  -0.15426   2.61796
H    -1.45975   1.18849   1.82051
H    -0.24298   1.51044  -1.66099
H    -0.57445   2.51571  -0.14522
H    -3.01802   2.03840  -0.37169
H    -2.67856   1.07360  -1.90617
H    -2.80916  -0.01268   1.07164
H    -3.26307  -1.07060  -0.36592
H    -1.85449  -2.36127  -1.31142
H    -0.09312  -2.33579  -1.03306
H    -0.83540  -1.11468  -2.09797
27

C     3.53187   0.00302   0.64261
N     2.12210   0.05870   0.98056
C     1.17671  -0.20723   0.05342
O     1.51509  -0.56619  -1.08543
C    -0.26693   0.07290   0.41499
C    -0.52089   0.62223   1.81532
C    -0.89488   1.65104  -0.76506
C    -2.30252   1.33414  -0.88417
C    -2.51548  -0.31306   0.03295
N    -1.21576  -0.87171  -0.00992
C    -0.98151  -1.71093  -1.18168
H     4.12516   0.38077   1.48404
H     3.74948   0.62679  -0.24553
H     3.86214  -1.02209   0.40893
H     1.87839   0.23094   1.94924
H     0.26343   1.31655   2.10054
H    -0.61337  -0.15267   2.61989
H    -1.45883   1.18983   1.81759
H    -0.24281   1.50951  -1.66106
H    -0.57373   2.51527  -0.14500
H    -3.01801   2.03893  -0.37103
H    -2.67904   1.07216  -1.90524
H    -2.80859  -0.01214   1.07202
H    -3.26275  -1.07567  -0.36341
H    -1.85457  -2.36094  -1.31186
H    -0.09315  -2.33579  -1.03216
H    -0.83439  -1.11467  -2.09775
27

C     3.53235   0.00360   0.64185
N     2.12338   0.05997   0.98092
C     1.17570  -0.21019   0.05546
O     1.51445  -0.56657  -1.08514
C    -0.26256   0.05779   0.42541
C    -0.52201   0.62003   1.81640
C    -0.90060   1.66819  -0.77844
C    -2.30057   1.35763  -0.89731
C    -2.51504  -0.33644   0.04807
N    -1.21658  -0.86801  -0.01251
C    -0.98105  -1.71134  -1.18240
H     4.12553   0.38101   1.48365
H     3.74968   0.62686  -0.24582
H     3.86238  -1.02196   0.40874
H     1.87924   0.22876   1.94982
H     0.26400   1.31470   2.10131
H    -0.61742  -0.15108   2.62182
H    -1.45792   1.19116   1.81467
H    -0.24264   1.50858  -1.66112
H    -0.57301   2.51483  -0.14478
H    -3.01800   2.03946  -0.37037
H    -2.67952   1.07071  -1.90432
H    -2.80801  -0.01160   1.07240
H    -3.26243  -1.08075  -0.36091
H    -1.85464  -2.36061  -1.31231
H    -0.09317  -2.33579  -1.03126
H    -0.83338  -1.11466  -2.09753
27

C     3.53283   0.00417   0.64109
N     2.12467   0.06125   0.98128
C     1.17468  -0.21316   0.05750
O     1.51381  -0.56696  -1.08485
C    -0.25819   0.04267   0.43584
C    -0.52312   0.61783   1.81749
C    -0.90632   1.68535  -0.79183
C    -2.29862   1.38112  -0.91046
C    -2.51460  -0.35981   0.06319
N    -1.21740  -0.86432  -0.01510
C    -0.98059  -1.71176  -1.18312
H     4.12590   0.38124   1.48326
H     3.74988   0.62692  -0.24610
H     3.86263  -1.02182   0.40856
H     1.88008   0.22657   1.95041
H     0.26456   1.31284   2.10208
H    -0.62147  -0.14950   2.62375
H    -1.45700   1.19249   1.81175
H    -0.24248   1.50765  -1.66119
H    -0.57228   2.51439  -0.14456
H    -3.01799   2.03999  -0.36970
H    -2.68000   1.06927  -1.90340
H    -2.80743  -0.01106   1.07278
H    -3.26212  -1.08583  -0.35841
H    -1.85472  -2.36028  -1.31275
H    -0.09320  -2.33579  -1.03036
H    -0.83236  -1.11465  -2.09731
27

C     3.53331   0.00475   0.64033
N     2.12596   0.06253   0.98164
C     1.17366  -0.21612   0.05954
O     1.51317  -0.56734  -1.08456
C    -0.25382   0.02755   0.44627
C    -0.52424   0.61563   1.81858
C    -0.91204   1.70250  -0.80521
C    -2.29667   1.40462  -0.92360
C    -2.51416  -0.38319   0.07831
N    -1.21821  -0.86062  -0.01769
C    -0.98012  -1.71217  -1.18383
H     4.12628   0.38147   1.48287
H     3.75008   0.62699  -0.24638
H     3.86287  -1.02168   0.40838
H     1.88093   0.22439   1.95099
H     0.26512   1.31098   2.10284
H    -0.62552  -0.14791   2.62568
H    -1.45609   1.19383   1.80884
H    -0.24231   1.50672  -1.66126
H    -0.57156   2.51396  -0.14434
H    -3.01799   2.04051  -0.36904
H    -2.68047   1.06783  -1.90248
H    -2.80686  -0.01051   1.07316
H    -3.26180  -1.09091  -0.35590
H    -1.85479  -2.35995  -1.31320
H    -0.09322  -2.33579  -1.02946
H    -0.83135  -1.11463  -2.09709
27

C     3.53379   0.00532   0.63957
N     2.12725   0.06381   0.98200
C     1.17264  -0.21909   0.06158
O     1.51253  -0.56773  -1.08427
C    -0.24945   0.01243   0.45670
C    -0.52536   0.61343   1.81967
C    -0.91776   1.71965  -0.81859
C    -2.29472   1.42811  -0.93674
C    -2.51372  -0.40657   0.09343
N    -1.21903  -0.85693  -0.02028
C    -0.97966  -1.71258  -1.18455
H     4.12665   0.38171   1.48248
H     3.75028   0.62706  -0.24667
H     3.86312  -1.02154   0.40820
H     1.88178   0.22221   1.95157
H     0.26568   1.30912   2.10361
H    -0.62957  -0.14632   2.62760
H    -1.45517   1.19516   1.80592
H    -0.24214   1.50579  -1.66132
H    -0.57084   2.51352  -0.14412
H    -3.01798   2.04104  -0.36837
H    -2.68095   1.06638  -1.90155
H    -2.80628  -0.00997   1.07354
H    -3.26148  -1.09599  -0.35340
H    -1.85486  -2.35962  -1.31364
H    -0.09325  -2.33579  -1.02856
H    -0.83034  -1.11462  -2.09687
27

C     3.53428   0.00590   0.63881
N     2.12853   0.06508   0.98236
C     1.17162  -0.22205   0.06362
O     1.51189  -0.56811  -1.08397
C    -0.24507  -0.00268   0.46713
C    -0.52648   0.61123   1.82076
C    -0.92348   1.73681  -0.83198
C    -2.29276   1.45161  -0.94989
C    -2.51329  -0.42995   0.10856
N    -1.21985  -0.85323  -0.02286
C    -0.97920  -1.71299  -1.18527
H     4.12702   0.38194   1.48209
H     3.75048   0.62712  -0.24695
H     3.86336  -1.02140   0.40802
H     1.88263   0.22002   1.95215
H     0.26624   1.30727   2.10438
H    -0.63362  -0.14474   2.62953
H    -1.45426   1.19649   1.80300
H    -0.24198   1.50486  -1.66139
H    -0.57011   2.51308  -0.14391
H    -3.01797   2.04157  -0.36771
H    -2.68143   1.06494  -1.90063
H    -2.80571  -0.00943   1.07391
H    -3.26117  -1.10107  -0.35089
H    -1.85494  -2.35929  -1.31409
H    -0.09328  -2.33578  -1.02766
H    -0.82932  -1.11461  -2.09665
27

C     3.53476   0.00647   0.63805
N     2.12982   0.06636   0.98272
C     1.17061  -0.22501   0.06566
O     1.51124  -0.56850  -1.08368
C    -0.24070  -0.01780   0.47756
C    -0.52760   0.60902   1.82185
C    -0.92920   1.75396  -0.84536
C    -2.29081   1.47510  -0.96303
C    -2.51285  -0.45332   0.12368
N    -1.22067  -0.84954  -0.02545
C    -0.97874  -1.71340  -1.18598
H     4.12740   0.38218   1.48170
H     3.75068   0.62719  -0.24724
H     3.86361  -1.02126   0.40783
H     1.88348   0.21784   1.95274
H     0.26680   1.30541   2.10514
H    -0.63767  -0.14315   2.63146
H    -1.45334   1.19783   1.80008
H    -0.24181   1.50393  -1.66146
H    -0.56939   2.51264  -0.14369
H    -3.01796   2.04210  -0.36705
H    -2.68191   1.06350  -1.89971
H    -2.80513  -0.00889   1.07429
H    -3.26085  -1.10615  -0.34839
H    -1.85501  -2.35896  -1.31453
H    -0.09330  -2.33578  -1.02676
H    -0.82831  -1.11460  -2.09643
27

C     3.53524   0.00705   0.63729
N     2.13111   0.06764   0.98308
C     1.16959  -0.22798   0.06770
O     1.51060  -0.56888  -1.08339
C    -0.23633  -0.03292   0.48799
C    -0.52871   0.60682   1.82293
C    -0.93492   1.77112  -0.85875
C    -2.28886   1.49859  -0.97617
C    -2.51241  -0.47670   0.13880
N    -1.22148  -0.84585  -0.02804
C    -0.97827  -1.71382  -1.18670
H     4.12777   0.38241   1.48131
H     3.75088   0.62725  -0.24752
H     3.86385  -1.02112   0.40765
H     1.88433   0.21566   1.95332
H     0.26736   1.30355   2.10591
H    -0.64171  -0.14156   2.63339
H    -1.45243   1.19916   1.79716
H    -0.24164   1.50300  -1.66153
H    -0.56867   2.51220  -0.14347
H    -3.01796   2.04263  -0.36638
H    -2.68238   1.06205  -1.89879
H    -2.80456  -0.00835   1.07467
H    -3.26054  -1.11122  -0.34589
H    -1.85508  -2.35864  -1.31497
H    -0.09333  -2.33578  -1.02586
H    -0.82730  -1.11459  -2.09621
27

C     3.53572   0.00762   0.63653
N     2.13239   0.06892   0.98344
C     1.16857  -0.23094   0.06975
O     1.50996  -0.56927  -1.08310
C    -0.23196  -0.04804   0.49842
C    -0.52983   0.60462   1.82402
C    -0.94064   1.78827  -0.87213
C    -2.28691   1.52209  -0.98932
C    -2.51197  -0.50008   0.15392
N    -1.22230  -0.84215  -0.03063
C    -0.97781  -1.71423  -1.18742
H     4.12814   0.38264   1.48092
H     3.75108   0.62732  -0.24780
H     3.86410  -1.02098   0.40747
H     1.88518   0.21347   1.95390
H     0.26792   1.30169   2.10668
H    -0.64576  -0.13998   2.63531
H    -1.45151   1.20049   1.79424
H    -0.24148   1.50206  -1.66159
H    -0.56794   2.51176  -0.14325
H    -3.01795   2.04315  -0.36572
H    -2.68286   1.06061  -1.89786
H    -2.80398  -0.00781   1.07505
H    -3.26022  -1.11630  -0.34338
H    -1.85516  -2.35831  -1.31542
H    -0.09336  -2.33578  -1.02496
H    -0.82628  -1.11458  -2.09599
27

C     3.53620   0.00820   0.63578
N     2.13368   0.07020   0.98380
C     1.16755  -0.23391   0.07179
O     1.50932  -0.56965  -1.08281
C    -0.22759  -0.06316   0.50885
C    -0.53095   0.60242   1.82511
C    -0.94636   1.80543  -0.88551
C    -2.28496   1.54558  -1.00246
C    -2.51153  -0.52345   0.16905
N    -1.22312  -0.83846  -0.03321
C    -0.97735  -1.71464  -1.18813
H     4.12852   0.38288   1.48053
H     3.75128   0.62738  -0.24809
H     3.86434  -1.02084   0.40729
H     1.88603   0.21129   1.95448
H     0.26848   1.29984   2.10744
H    -0.64981  -0.13839   2.63724
H    -1.45060   1.20183   1.79132
H    -0.24131   1.50113  -1.66166
H    -0.56722   2.51132  -0.14303
H    -3.01794   2.04368  -0.36506
H    -2.68334   1.05916  -1.89694
H    -2.80341  -0.00727   1.07543
H    -3.25990  -1.12138  -0.34088
H    -1.85523  -2.35798  -1.31586
H    -0.09338  -2.33578  -1.02406
H    -0.82527  -1.11457  -2.09577
27

C     3.53668   0.00877   0.63502
N     2.13497   0.07147   0.98416
C     1.16653  -0.23687   0.07383
O     1.50868  -0.57004  -1.08252
C    -0.22322  -0.07827   0.51928
C    -0.53207   0.60022   1.82620
C    -0.95207   1.82258  -0.89890
C    -2.28301   1.56907  -1.01560
C    -2.51109  -0.54683   0.18417
N    -1.22394  -0.83476  -0.03580
C    -0.97688  -1.71505  -1.18885
H     4.12889   0.38311   1.48015
H     3.75148   0.62745  -0.24837
H     3.86459  -1.02070   0.40711
H     1.88688   0.20911   1.95507
H     0.26904   1.29798   2.10821
H    -0.65386  -0.13680   2.63917
H    -1.44968   1.20316   1.78840
H    -0.24114   1.50020  -1.66173
H    -0.56650   2.51088  -0.14281
H    -3.01793   2.04421  -0.36439
H    -2.68382   1.05772  -1.89602
H    -2.80283  -0.00673   1.07581
H    -3.25959  -1.12646  -0.33837
H    -1.85530  -2.35765  -1.31631
H    -0.09341  -2.33578  -1.02316
H    -0.82426  -1.11456  -2.09555
27

C     3.53716   0.00935   0.63426
N     2.13626   0.07275   0.98453
C     1.16552  -0.23984   0.07587
O     1.50804  -0.57042  -1.08223
C    -0.21885  -0.09339   0.52971
C    -0.53319   0.59802   1.82729
C    -0.95779   1.83974  -0.91228
C    -2.28106   1.59257  -1.02875
C    -2.51065  -0.57021   0.19929
N    -1.22475  -0.83107  -0.03839
C    -0.97642  -1.71546  -1.18957
H     4.12927   0.38334   1.47976
H     3.75168   0.62751  -0.24865
H     3.86483  -1.02056   0.40692
H     1.88773   0.20693   1.95565
H     0.26960   1.29612   2.10898
H    -0.65791  -0.13521   2.64110
H    -1.44877   1.20449   1.78548
H    -0.24097   1.49927  -1.66179
H    -0.56577   2.51044  -0.14259
H    -3.01793   2.04474  -0.36373
H    -2.68430   1.05628  -1.89510
H    -2.80226  -0.00619   1.07619
H    -3.25927  -1.13154  -0.33587
H    -1.85538  -2.35732  -1.31675
H    -0.09344  -2.33578  -1.02226
H    -0.82324  -1.11455  -2.09533
27

C     3.53765   0.00992   0.63350
N     2.13754   0.07403   0.98489
C     1.16450  -0.24280   0.07791
O     1.50740  -0.57081  -1.08193
C    -0.21448  -0.10851   0.54013
C    -0.53431   0.59581   1.82838
C    -0.96351   1.85689  -0.92567
C    -2.27911   1.61606  -1.04189
C    -2.51021  -0.59359   0.21441
N    -1.22557  -0.82738  -0.04098
C    -0.97596  -1.71588  -1.19028
H     4.12964   0.38358   1.47937
H     3.75188   0.62758  -0.24894
H     3.86508  -1.02042   0.40674
H     1.88858   0.20474   1.95623
H     0.27017   1.29426   2.10974
H    -0.66196  -0.13363   2.64302
H    -1.44785   1.20583   1.78256
H    -0.24081   1.49834  -1.66186
H    -0.56505   2.51001  -0.14238
H    -3.01792   2.04526  -0.36306
H    -2.68477   1.05483  -1.89417
H    -2.80168  -0.00565   1.07657
H    -3.25896  -1.13662  -0.33337
H    -1.85545  -2.35699  -1.31720
H    -0.09346  -2.33577  -1.02136
H    -0.82223  -1.11453  -2.09511
27

C     3.53813   0.01050   0.63274
N     2.13883   0.07531   0.98525
C     1.16348  -0.24576   0.07995
O     1.50675  -0.57119  -1.08164
C    -0.21010  -0.12363   0.55056
C    -0.53542   0.59361   1.82946
C    -0.96923   1.87405  -0.93905
C    -2.27716   1.63955  -1.05503
C    -2.50977  -0.61696   0.22953
N    -1.22639  -0.82368  -0.04356
C    -0.97549  -1.71629  -1.19100
H     4.13001   0.38381   1.47898
H     3.75208   0.62765  -0.24922
H     3.86533  -1.02028   0.40656
H     1.88943   0.20256   1.95682
H     0.27073   1.29241   2.11051
H    -0.66600  -0.13204   2.64495
H    -1.44694   1.20716   1.77964
H    -0.24064   1.49741  -1.66193
H    -0.56433   2.50957  -0.14216
H    -3.01791   2.04579  -0.36240
H    -2.68525   1.05339  -1.89325
H    -2.80111  -0.00511   1.07694
H    -3.25864  -1.14170  -0.33086
H    -1.85553  -2.35666  -1.31764
H    -0.09349  -2.33577  -1.02046
H    -0.82122  -1.11452  -2.09489
27

C     3.53861   0.01107   0.63198
N     2.14012   0.07658   0.98561
C     1.16246  -0.24873   0.08199
O     1.50611  -0.57158  -1.08135
C    -0.20573  -0.13874   0.56099
C    -0.53654   0.59141   1.83055
C    -0.97495   1.89120  -0.95243
C    -2.27520   1.66305  -1.06818
C    -2.50933  -0.64034   0.24466
N    -1.22721  -0.81999  -0.04615
C    -0.97503  -1.71670  -1.19171
H     4.13039   0.38405   1.47859
H     3.75228   0.62771  -0.24950
H     3.86557  -1.02014   0.40638
H     1.89028   0.20038   1.95740
H     0.27129   1.29055   2.11128
H    -0.67005  -0.13045   2.64688
H    -1.44602   1.20849   1.77672
H    -0.24047   1.49648  -1.66199
H    -0.56360   2.50913  -0.14194
H    -3.01790   2.04632  -0.36174
H    -2.68573   1.05195  -1.89233
H    -2.80053  -0.00456   1.07732
H    -3.25832  -1.14677  -0.32836
H    -1.85560  -2.35633  -1.31809
H    -0.09352  -2.33577  -1.01956
H    -0.82020  -1.11451  -2.09467
27

C     3.53909   0.01165   0.63122
N     2.14141   0.07786   0.98597
C     1.16145  -0.25169   0.08403
O     1.50547  -0.57197  -1.08106
C    -0.20136  -0.15386   0.57142
C    -0.53766   0.58921   1.83164
C    -0.98067   1.90836  -0.96582
C    -2.27325   1.68654  -1.08132
C    -2.50889  -0.66372   0.25978
N    -1.22802  -0.81629  -0.04874
C    -0.97457  -1.71711  -1.19243
H     4.13076   0.38428   1.47820
H     3.75248   0.62778  -0.24979
H     3.86582  -1.02001   0.40620
H     1.89113   0.19819   1.95798
H     0.27185   1.28869   2.11204
H    -0.67410  -0.12887   2.64881
H    -1.44511   1.20983   1.77380
H    -0.24031   1.49555  -1.66206
H    -0.56288   2.50869  -0.14172
H    -3.01790   2.04685  -0.36107
H    -2.68621   1.05050  -1.89140
H    -2.79996  -0.00402   1.07770
H    -3.25801  -1.15185  -0.32585
H    -1.85567  -2.35601  -1.31853
H    -0.09354  -2.33577  -1.01866
H    -0.81919  -1.11450  -2.09445
27

C     3.53957   0.01222   0.63046
N     2.14269   0.07914   0.98633
C     1.16043  -0.25466   0.08607
O     1.50483  -0.57235  -1.08077
C    -0.19699  -0.16898   0.58185
C    -0.53878   0.58701   1.83273
C    -0.98639   1.92551  -0.97920
C    -2.27130   1.71003  -1.09446
C    -2.50846  -0.68710   0.27490
N    -1.22884  -0.81260  -0.05133
C    -0.97410  -1.71752  -1.19315
H     4.13113   0.38451   1.47781
H     3.75268   0.62784  -0.25007
H     3.86606  -1.01987   0.40601
H     1.89198   0.19601   1.95856
H     0.27241   1.28683   2.11281
H    -0.67815  -0.12728   2.65073
H    -1.44419   1.21116   1.77089
H    -0.24014   1.49462  -1.66213
H    -0.56216   2.50825  -0.14150
H    -3.01789   2.04738  -0.36041
H    -2.68668   1.04906  -1.89048
H    -2.79938  -0.00348   1.07808
H    -3.25769  -1.15693  -0.32335
H    -1.85575  -2.35568  -1.31898
H    -0.09357  -2.33577  -1.01776
H    -0.81818  -1.11449  -2.09423
27

C     3.54005   0.01280   0.62970
N     2.14398   0.08042   0.98669
C     1.15941  -0.25762   0.08812
O     1.50419  -0.57274  -1.08048
C    -0.19262  -0.18410   0.59228
C    -0.53990   0.58481   1.83382
C    -0.99211   1.94267  -0.99259
C    -2.26935   1.73353  -1.10761
C    -2.50802  -0.71047   0.29002
N    -1.22966  -0.80890  -0.05392
C    -0.97364  -1.71794  -1.19386
H     4.13151   0.38475   1.47742
H     3.75288   0.62791  -0.25035
H     3.86631  -1.01973   0.40583
H     1.89283   0.19383   1.95915
H     0.27297   1.28497   2.11358
H    -0.68220  -0.12569   2.65266
H    -1.44328   1.21249   1.76797
H    -0.23997   1.49369  -1.66219
H    -0.56143   2.50781  -0.14128
H    -3.01788   2.04790  -0.35974
H    -2.68716   1.04762  -1.88956
H    -2.79881  -0.00294   1.07846
H    -3.25737  -1.16201  -0.32085
H    -1.85582  -2.35535  -1.31942
H    -0.09360  -2.33577  -1.01686
H    -0.81716  -1.11448  -2.09401
27

C     3.54053   0.01337   0.62894
N     2.14527   0.08170   0.98705
C     1.15839  -0.26059   0.09016
O     1.50355  -0.57312  -1.08018
C    -0.18825  -0.19922   0.60271
C    -0.54102   0.58261   1.83490
C    -0.99783   1.95982  -1.00597
C    -2.26740   1.75702  -1.12075
C    -2.50758  -0.73385   0.30514
N    -1.23048  -0.80521  -0.05650
C    -0.97318  -1.71835  -1.19458
H     4.13188   0.38498   1.47703
H     3.75308   0.62797  -0.25064
H     3.86655  -1.01959   0.40565
H     1.89368   0.19164   1.95973
H     0.27353   1.28312   2.11434
H    -0.68625  -0.12411   2.65459
H    -1.44236   1.21383   1.76505
H    -0.23981   1.49275  -1.66226
H    -0.56071   2.50737  -0.14106
H    -3.01787   2.04843  -0.35908
H    -2.68764   1.04617  -1.88864
H    -2.79823  -0.00240   1.07884
H    -3.25706  -1.16709  -0.31834
H    -1.85589  -2.35502  -1.31986
H    -0.09362  -2.33576  -1.01595
H    -0.81615  -1.11447  -2.09379
27

C     3.54005   0.01280   0.62970
N     2.14398   0.08042   0.98669
C     1.15941  -0.25762   0.08812
O     1.50419  -0.57274  -1.08048
C    -0.19262  -0.18410   0.59228
C    -0.53990   0.58481   1.83382
C    -0.99211   1.94267  -0.99259
C    -2.26935   1.73353  -1.10761
C    -2.50802  -0.71047   0.29002
N    -1.22966  -0.80890  -0.05392
C    -0.97364  -1.71794  -1.19386
H     4.13151   0.38475   1.47742
H     3.75288   0.62791  -0.25035
H     3.86631  -1.01973   0.40583
H     1.89283   0.19383   1.95915
H     0.27297   1.28497   2.11358
H    -0.68220  -0.12569   2.65266
H    -1.44328   1.21249   1.76797
H    -0.23997   1.49369  -1.66219
H    -0.56143   2.50781  -0.14128
H    -3.01788   2.04790  -0.35974
H    -2.68716   1.04762  -1.88956
H    -2.79881  -0.00294   1.07846
H    -3.25737  -1.16201  -0.32085
H    -1.85582  -2.35535  -1.31942
H    -0.09360  -2.33577  -1.01686
H    -0.81716  -1.11448  -2.09401
27

C     3.53957   0.01222   0.63046
N     2.14269   0.07914   0.98633
C     1.16043  -0.25466   0.08607
O     1.50483  -0.57235  -1.08077
C    -0.19699  -0.16898   0.58185
C    -0.53878   0.58701   1.83273
C    -0.98639   1.92551  -0.97920
C    -2.27130   1.71003  -1.09446
C    -2.50846  -0.68710   0.27490
N    -1.22884  -0.81260  -0.05133
C    -0.97410  -1.71752  -1.19315
H     4.13113   0.38451   1.47781
H     3.75268   0.62784  -0.25007
H     3.86606  -1.01987   0.40601
H     1.89198   0.19601   1.95856
H     0.27241   1.28683   2.11281
H    -0.67815  -0.12728   2.65073
H    -1.44419   1.21116   1.77089
H    -0.24014   1.49462  -1.66213
H    -0.56216   2.50825  -0.14150
H    -3.01789   2.04738  -0.36041
H    -2.68668   1.04906  -1.89048
H    -2.79938  -0.00348   1.07808
H    -3.25769  -1.15693  -0.32335
H    -1.85575  -2.35568  -1.31898
H    -0.09357  -2.33577  -1.01776
H    -0.81818  -1.11449  -2.09423
27

C     3.53909   0.01165   0.63122
N     2.14141   0.07786   0.98597
C     1.16145  -0.25169   0.08403
O     1.50547  -0.57197  -1.08106
C    -0.20136  -0.15386   0.57142
C    -0.53766   0.58921   1.83164
C    -0.98067   1.90836  -0.96582
C    -2.27325   1.68654  -1.08132
C    -2.50889  -0.66372   0.25978
N    -1.22802  -0.81629  -0.04874
C    -0.97457  -1.71711  -1.19243
H     4.13076   0.38428   1.47820
H     3.75248   0.62778  -0.24979
H     3.86582  -1.02001   0.40620
H     1.89113   0.19819   1.95798
H     0.27185   1.28869   2.11204
H    -0.67410  -0.12887   2.64881
H    -1.44511   1.20983   1.77380
H    -0.24031   1.49555  -1.66206
H    -0.56288   2.50869  -0.14172
H    -3.01790   2.04685  -0.36107
H    -2.68621   1.05050  -1.89140
H    -2.79996  -0.00402   1.07770
H    -3.25801  -1.15185  -0.32585
H    -1.85567  -2.35601  -1.31853
H    -0.09354  -2.33577  -1.01866
H    -0.81919  -1.11450  -2.09445
27

C     3.53861   0.01107   0.63198
N     2.14012   0.07658   0.98561
C     1.16246  -0.24873   0.08199
O     1.50611  -0.57158  -1.08135
C    -0.20573  -0.13874   0.56099
C    -0.53654   0.59141   1.83055
C    -0.97495   1.89120  -0.95243
C    -2.27520   1.66305  -1.06818
C    -2.50933  -0.64034   0.24466
N    -1.22721  -0.81999  -0.04615
C    -0.97503  -1.71670  -1.19171
H     4.13039   0.38405   1.47859
H     3.75228   0.62771  -0.24950
H     3.86557  -1.02014   0.40638
H     1.89028   0.20038   1.95740
H     0.27129   1.29055   2.11128
H    -0.67005  -0.13045   2.64688
H    -1.44602   1.20849   1.77672
H    -0.24047   1.49648  -1.66199
H    -0.56360   2.50913  -0.14194
H    -3.01790   2.04632  -0.36174
H    -2.68573   1.05195  -1.89233
H    -2.80053  -0.00456   1.07732
H    -3.25832  -1.14677  -0.32836
H    -1.85560  -2.35633  -1.31809
H    -0.09352  -2.33577  -1.01956
H    -0.82020  -1.11451  -2.09467
27

C     3.53813   0.01050   0.63274
N     2.13883   0.07531   0.98525
C     1.16348  -0.24576   0.07995
O     1.50675  -0.57119  -1.08164
C    -0.21010  -0.12363   0.55056
C    -0.53542   0.59361   1.82946
C    -0.96923   1.87405  -0.93905
C    -2.27716   1.63955  -1.05503
C    -2.50977  -0.61696   0.22953
N    -1.22639  -0.82368  -0.04356
C    -0.97549  -1.71629  -1.19100
H     4.13001   0.38381   1.47898
H     3.75208   0.62765  -0.24922
H     3.86533  -1.02028   0.40656
H     1.88943   0.20256   1.95682
H     0.27073   1.29241   2.11051
H    -0.66600  -0.13204   2.64495
H    -1.44694   1.20716   1.77964
H    -0.24064   1.49741  -1.66193
H    -0.56433   2.50957  -0.14216
H    -3.01791   2.04579  -0.36240
H    -2.68525   1.05339  -1.89325
H    -2.80111  -0.00511   1.07694
H    -3.25864  -1.14170  -0.33086
H    -1.85553  -2.35666  -1.31764
H    -0.09349  -2.33577  -1.02046
H    -0.82122  -1.11452  -2.09489
27

C     3.53765   0.00992   0.63350
N     2.13754   0.07403   0.98489
C     1.16450  -0.24280   0.07791
O     1.50740  -0.57081  -1.08193
C    -0.21448  -0.10851   0.54013
C    -0.53431   0.59581   1.82838
C    -0.96351   1.85689  -0.92567
C    -2.27911   1.61606  -1.04189
C    -2.51021  -0.59359   0.21441
N    -1.22557  -0.82738  -0.04098
C    -0.97596  -1.71588  -1.19028
H     4.12964   0.38358   1.47937
H     3.75188   0.62758  -0.24894
H     3.86508  -1.02042   0.40674
H     1.88858   0.20474   1.95623
H     0.27017   1.29426   2.10974
H    -0.66196  -0.13363   2.64302
H    -1.44785   1.20583   1.78256
H    -0.24081   1.49834  -1.66186
H    -0.56505   2.51001  -0.14238
H    -3.01792   2.04526  -0.36306
H    -2.68477   1.05483  -1.89417
H    -2.80168  -0.00565   1.07657
H    -3.25896  -1.13662  -0.33337
H    -1.85545  -2.35699  -1.31720
H    -0.09346  -2.33577  -1.02136
H    -0.82223  -1.11453  -2.09511
27

C     3.53716   0.00935   0.63426
N     2.13626   0.07275   0.98453
C     1.16552  -0.23984   0.07587
O     1.50804  -0.57042  -1.08223
C    -0.21885  -0.09339   0.52971
C    -0.53319   0.59802   1.82729
C    -0.95779   1.83974  -0.91228
C    -2.28106   1.59257  -1.02875
C    -2.51065  -0.57021   0.19929
N    -1.22475  -0.83107  -0.03839
C    -0.97642  -1.71546  -1.18957
H     4.12927   0.38334   1.47976
H     3.75168   0.62751  -0.24865
H     3.86483  -1.02056   0.40692
H     1.88773   0.20693   1.95565
H     0.26960   1.29612   2.10898
H    -0.65791  -0.13521   2.64110
H    -1.44877   1.20449   1.78548
H    -0.24097   1.49927  -1.66179
H    -0.56577   2.51044  -0.14259
H    -3.01793   2.04474  -0.36373
H    -2.68430   1.05628  -1.89510
H    -2.80226  -0.00619   1.07619
H    -3.25927  -1.13154  -0.33587
H    -1.85538  -2.35732  -1.31675
H    -0.09344  -2.33578  -1.02226
H    -0.82324  -1.11455  -2.09533
27

C     3.53668   0.00877   0.63502
N     2.13497   0.07147   0.98416
C     1.16653  -0.23687   0.07383
O     1.50868  -0.57004  -1.08252
C    -0.22322  -0.07827   0.51928
C    -0.53207   0.60022   1.82620
C    -0.95207   1.82258  -0.89890
C    -2.28301   1.56907  -1.01560
C    -2.51109  -0.54683   0.18417
N    -1.22394  -0.83476  -0.03580
C    -0.97688  -1.71505  -1.18885
H     4.12889   0.38311   1.48015
H     3.75148   0.62745  -0.24837
H     3.86459  -1.02070   0.40711
H     1.88688   0.20911   1.95507
H     0.26904   1.29798   2.10821
H    -0.65386  -0.13680   2.63917
H    -1.44968   1.20316   1.78840
H    -0.24114   1.50020  -1.66173
H    -0.56650   2.51088  -0.14281
H    -3.01793   2.04421  -0.36439
H    -2.68382   1.05772  -1.89602
H    -2.80283  -0.00673   1.07581
H    -3.25959  -1.12646  -0.33837
H    -1.85530  -2.35765  -1.31631
H    -0.09341  -2.33578  -1.02316
H    -0.82426  -1.11456  -2.09555
27

C     3.53620   0.00820   0.63578
N     2.13368   0.07020   0.98380
C     1.16755  -0.23391   0.07179
O     1.50932  -0.56965  -1.08281
C    -0.22759  -0.06316   0.50885
C    -0.53095   0.60242   1.82511
C    -0.94636   1.80543  -0.88551
C    -2.28496   1.54558  -1.00246
C    -2.51153  -0.52345   0.16905
N    -1.22312  -0.83846  -0.03321
C    -0.97735  -1.71464  -1.18813
H     4.12852   0.38288   1.48053
H     3.75128   0.62738  -0.24809
H     3.86434  -1.02084   0.40729
H     1.88603   0.21129   1.95448
H     0.26848   1.29984   2.10744
H    -0.64981  -0.13839   2.63724
H    -1.45060   1.20183   1.79132
H    -0.24131   1.50113  -1.66166
H    -0.56722   2.51132  -0.14303
H    -3.01794   2.04368  -0.36506
H    -2.68334   1.05916  -1.89694
H    -2.80341  -0.00727   1.07543
H    -3.25990  -1.12138  -0.34088
H    -1.85523  -2.35798  -1.31586
H    -0.09338  -2.33578  -1.02406
H    -0.82527  -1.11457  -2.09577
27

C     3.53572   0.00762   0.63653
N     2.13239   0.06892   0.98344
C     1.16857  -0.23094   0.06975
O     1.50996  -0.56927  -1.08310
C    -0.23196  -0.04804   0.49842
C    -0.52983   0.60462   1.82402
C    -0.94064   1.78827  -0.87213
C    -2.28691   1.52209  -0.98932
C    -2.51197  -0.50008   0.15392
N    -1.22230  -0.84215  -0.03063
C    -0.97781  -1.71423  -1.18742
H     4.12814   0.38264   1.48092
H     3.75108   0.62732  -0.24780
H     3.86410  -1.02098   0.40747
H     1.88518   0.21347   1.95390
H     0.26792   1.30169   2.10668
H    -0.64576  -0.13998   2.63531
H    -1.45151   1.20049   1.79424
H    -0.24148   1.50206  -1.66159
H    -0.56794   2.51176  -0.14325
H    -3.01795   2.04315  -0.36572
H    -2.68286   1.06061  -1.89786
H    -2.80398  -0.00781   1.07505
H    -3.26022  -1.11630  -0.34338
H    -1.85516  -2.35831  -1.31542
H    -0.09336  -2.33578  -1.02496
H    -0.82628  -1.11458  -2.09599
27

C     3.53524   0.00705   0.63729
N     2.13111   0.06764   0.98308
C     1.16959  -0.22798   0.06770
O     1.51060  -0.56888  -1.08339
C    -0.23633  -0.03292   0.48799
C    -0.52871   0.60682   1.82293
C    -0.93492   1.77112  -0.85875
C    -2.28886   1.49859  -0.97617
C    -2.51241  -0.47670   0.13880
N    -1.22148  -0.84585  -0.02804
C    -0.97827  -1.71382  -1.18670
H     4.12777   0.38241   1.48131
H     3.75088   0.62725  -0.24752
H     3.86385  -1.02112   0.40765
H     1.88433   0.21566   1.95332
H     0.26736   1.30355   2.10591
H    -0.64171  -0.14156   2.63339
H    -1.45243   1.19916   1.79716
H    -0.24164   1.50300  -1.66153
H    -0.56867   2.51220  -0.14347
H    -3.01796   2.04263  -0.36638
H    -2.68238   1.06205  -1.89879
H    -2.80456  -0.00835   1.07467
H    -3.26054  -1.11122  -0.34589
H    -1.85508  -2.35864  -1.31497
H    -0.09333  -2.33578  -1.02586
H    -0.82730  -1.11459  -2.09621
27

C     3.53476   0.00647   0.63805
N     2.12982   0.06636   0.98272
C     1.17061  -0.22501   0.06566
O     1.51124  -0.56850  -1.08368
C    -0.24070  -0.01780   0.47756
C    -0.52760   0.60902   1.82185
C    -0.92920   1.75396  -0.84536
C    -2.29081   1.47510  -0.96303
C    -2.51285  -0.45332   0.12368
N    -1.22067  -0.84954  -0.02545
C    -0.97874  -1.71340  -1.18598
H     4.12740   0.38218   1.48170
H     3.75068   0.62719  -0.24724
H     3.86361  -1.02126   0.40783
H     1.88348   0.21784   1.95274
H     0.26680   1.30541   2.10514
H    -0.63767  -0.14315   2.63146
H    -1.45334   1.19783   1.80008
H    -0.24181   1.50393  -1.66146
H    -0.56939   2.51264  -0.14369
H    -3.01796   2.04210  -0.36705
H    -2.68191   1.06350  -1.89971
H    -2.80513  -0.00889   1.07429
H    -3.26085  -1.10615  -0.34839
H    -1.85501  -2.35896  -1.31453
H    -0.09330  -2.33578  -1.02676
H    -0.82831  -1.11460  -2.09643
27

C     3.53428   0.00590   0.63881
N     2.12853   0.06508   0.98236
C     1.17162  -0.22205   0.06362
O     1.51189  -0.56811  -1.08397
C    -0.24507  -0.00268   0.46713
C    -0.52648   0.61123   1.82076
C    -0.92348   1.73681  -0.83198
C    -2.29276   1.45161  -0.94989
C    -2.51329  -0.42995   0.10856
N    -1.21985  -0.85323  -0.02286
C    -0.97920  -1.71299  -1.18527
H     4.12702   0.38194   1.48209
H     3.75048   0.62712  -0.24695
H     3.86336  -1.02140   0.40802
H     1.88263   0.22002   1.95215
H     0.26624   1.30727   2.10438
H    -0.63362  -0.14474   2.62953
H    -1.45426   1.19649   1.80300
H    -0.24198   1.50486  -1.66139
H    -0.57011   2.51308  -0.14391
H    -3.01797   2.04157  -0.36771
H    -2.68143   1.06494  -1.90063
H    -2.80571  -0.00943   1.07391
H    -3.26117  -1.10107  -0.35089
H    -1.85494  -2.35929  -1.31409
H    -0.09328  -2.33578  -1.02766
H    -0.82932  -1.11461  -2.09665
27

C     3.53379   0.00532   0.63957
N     2.12725   0.06381   0.98200
C     1.17264  -0.21909   0.06158
O     1.51253  -0.56773  -1.08427
C    -0.24945   0.01243   0.45670
C    -0.52536   0.61343   1.81967
C    -0.91776   1.71965  -0.81859
C    -2.29472   1.42811  -0.93674
C    -2.51372  -0.40657   0.09343
N    -1.21903  -0.85693  -0.02028
C    -0.97966  -1.71258  -1.18455
H     4.12665   0.38171   1.48248
H     3.75028   0.62706  -0.24667
H     3.86312  -1.02154   0.40820
H     1.88178   0.22221   1.95157
H     0.26568   1.30912   2.10361
H    -0.62957  -0.14632   2.62760
H    -1.45517   1.19516   1.80592
H    -0.24214   1.50579  -1.66132
H    -0.57084   2.51352  -0.14412
H    -3.01798   2.04104  -0.36837
H    -2.68095   1.06638  -1.90155
H    -2.80628  -0.00997   1.07354
H    -3.26148  -1.09599  -0.35340
H    -1.85486  -2.35962  -1.31364
H    -0.09325  -2.33579  -1.02856
H    -0.83034  -1.11462  -2.09687
27

C     3.53331   0.00475   0.64033
N     2.12596   0.06253   0.98164
C     1.17366  -0.21612   0.05954
O     1.51317  -0.56734  -1.08456
C    -0.25382   0.02755   0.44627
C    -0.52424   0.61563   1.81858
C    -0.91204   1.70250  -0.80521
C    -2.29667   1.40462  -0.92360
C    -2.51416  -0.38319   0.07831
N    -1.21821  -0.86062  -0.01769
C    -0.98012  -1.71217  -1.18383
H     4.12628   0.38147   1.48287
H     3.75008   0.62699  -0.24638
H     3.86287  -1.02168   0.40838
H     1.88093   0.22439   1.95099
H     0.26512   1.31098   2.10284
H    -0.62552  -0.14791   2.62568
H    -1.45609   1.19383   1.80884
H    -0.24231   1.50672  -1.66126
H    -0.57156   2.51396  -0.14434
H    -3.01799   2.04051  -0.36904
H    -2.68047   1.06783  -1.90248
H    -2.80686  -0.01051   1.07316
H    -3.26180  -1.09091  -0.35590
H    -1.85479  -2.35995  -1.31320
H    -0.09322  -2.33579  -1.02946
H    -0.83135  -1.11463  -2.09709
27

C     3.53283   0.00417   0.64109
N     2.12467   0.06125   0.98128
C     1.17468  -0.21316   0.05750
O     1.51381  -0.56696  -1.08485
C    -0.25819   0.04267   0.43584
C    -0.52312   0.61783   1.81749
C    -0.90632   1.68535  -0.79183
C    -2.29862   1.38112  -0.91046
C    -2.51460  -0.35981   0.06319
N    -1.21740  -0.86432  -0.01510
C    -0.98059  -1.71176  -1.18312
H     4.12590   0.38124   1.48326
H     3.74988   0.62692  -0.24610
H     3.86263  -1.02182   0.40856
H     1.88008   0.22657   1.95041
H     0.26456   1.31284   2.10208
H    -0.62147  -0.14950   2.62375
H    -1.45700   1.19249   1.81175
H    -0.24248   1.50765  -1.66119
H    -0.57228   2.51439  -0.14456
H    -3.01799   2.03999  -0.36970
H    -2.68000   1.06927  -1.90340
H    -2.80743  -0.01106   1.07278
H    -3.26212  -1.08583  -0.35841
H    -1.85472  -2.36028  -1.31275
H    -0.09320  -2.33579  -1.03036
H    -0.83236  -1.11465  -2.09731
27

C     3.53235   0.00360   0.64185
N     2.12338   0.05997   0.98092
C     1.17570  -0.21019   0.05546
O     1.51445  -0.56657  -1.08514
C    -0.26256   0.05779   0.42541
C    -0.52201   0.62003   1.81640
C    -0.90060   1.66819  -0.77844
C    -2.30057   1.35763  -0.89731
C    -2.51504  -0.33644   0.04807
N    -1.21658  -0.86801  -0.01251
C    -0.98105  -1.71134  -1.18240
H     4.12553   0.38101   1.48365
H     3.74968   0.62686  -0.24582
H     3.86238  -1.02196   0.40874
H     1.87924   0.22876   1.94982
H     0.26400   1.31470   2.10131
H    -0.61742  -0.15108   2.62182
H    -1.45792   1.19116   1.81467
H    -0.24264   1.50858  -1.66112
H    -0.57301   2.51483  -0.14478
H    -3.01800   2.03946  -0.37037
H    -2.67952   1.07071  -1.90432
H    -2.80801  -0.01160   1.07240
H    -3.26243  -1.08075  -0.36091
H    -1.85464  -2.36061  -1.31231
H    -0.09317  -2.33579  -1.03126
H    -0.83338  -1.11466  -2.09753
27

C     3.53187   0.00302   0.64261
N     2.12210   0.05870   0.98056
C     1.17671  -0.20723   0.05342
O     1.51509  -0.56619  -1.08543
C    -0.26693   0.07290   0.41499
C    -0.52089   0.62223   1.81532
C    -0.89488   1.65104  -0.76506
C    -2.30252   1.33414  -0.88417
C    -2.51548  -0.31306   0.03295
N    -1.21576  -0.87171  -0.00992
C    -0.98151  -1.71093  -1.18168
H     4.12516   0.38077   1.48404
H     3.74948   0.62679  -0.24553
H     3.86214  -1.02209   0.40893
H     1.87839   0.23094   1.94924
H     0.26343   1.31655   2.10054
H    -0.61337  -0.15267   2.61989
H    -1.45883   1.18983   1.81759
H    -0.24281   1.50951  -1.66106
H    -0.57373   2.51527  -0.14500
H    -3.01801   2.03893  -0.37103
H    -2.67904   1.07216  -1.90524
H    -2.80859  -0.01214   1.07202
H    -3.26275  -1.07567  -0.36341
H    -1.85457  -2.36094  -1.31186
H    -0.09315  -2.33579  -1.03216
H    -0.83439  -1.11467  -2.09775
27

C     3.53139   0.00245   0.64337
N     2.12081   0.05742   0.98019
C     1.17773  -0.20426   0.05138
O     1.51574  -0.56580  -1.08572
C    -0.27130   0.08802   0.40456
C    -0.51977   0.62444   1.81423
C    -0.88916   1.63388  -0.75167
C    -2.30447   1.31064  -0.87103
C    -2.51592  -0.28968   0.01782
N    -1.21494  -0.87540  -0.00734
C    -0.98198  -1.71052  -1.18097
H     4.12478   0.38054   1.48443
H     3.74928   0.62673  -0.24525
H     3.86189  -1.02223   0.40911
H     1.87754   0.23312   1.94866
H     0.26287   1.31841   2.09978
H    -0.60933  -0.15426   2.61796
H    -1.45975   1.18849   1.82051
H    -0.24298   1.51044  -1.66099
H    -0.57445   2.51571  -0.14522
H    -3.01802   2.03840  -0.37169
H    -2.67856   1.07360  -1.90617
H    -2.80916  -0.01268   1.07164
H    -3.26307  -1.07060  -0.36592
H    -1.85449  -2.36127  -1.31142
H    -0.09312  -2.33579  -1.03306
H    -0.83540  -1.11468  -2.09797
