10

O -2.384298878 3.309011053 0.366309387
C -1.063967813 1.522924709 0.507961047
C -1.511953885 -1.337121451 0.538544185
N 0.608856699 -2.262314033 1.574122360
C 2.175191006 -0.905114525 0.116733202
N 1.758003634 1.566304336 0.588788904
H -3.367024927 -2.143822403 0.885999227
H -0.398152709 -1.331070737 -2.266281021
H 1.588544428 -1.378225224 -2.259494127
H 2.571519128 2.915469465 -0.495347749

