14

C 4.798193663 0.149587791 -1.965840495
C 2.870763156 0.246170427 -0.782818801
C 0.495051647 0.353777555 0.633507288
C -1.751742291 0.804376759 -1.126603617
C -3.976891931 1.955865273 -0.110087016
C 0.062450082 -2.063184350 2.163808317
H 6.520717576 0.074024219 -3.001370443
H 0.576131329 1.956479245 1.935412616
H -1.546608458 2.725014136 -2.087965954
H -1.859183029 -0.579063750 -2.667937226
H -1.685862225 -1.892079212 3.244303864
H -5.458594986 1.790842312 -1.572393355
H -0.086842421 -3.700611382 0.916739875
H 1.618950613 -2.395288410 3.470398993

