14

C 2.680434098 0.404204595 0.125484278
C 0.807876872 1.822062440 1.606761577
C -1.426064623 2.308745907 0.032145867
C -2.600979259 -0.402793668 -0.165930974
O -0.923862952 -2.052158913 -1.372202213
C 1.382018112 -2.248917745 -0.093302374
H 2.987352965 1.071147733 -1.814780739
H 4.487512313 0.154897336 1.088433266
H 1.124806393 -3.070490596 1.790489935
H -1.046489056 2.927454392 -1.911091198
H -2.818377850 3.545701027 0.918744534
H -4.305217596 -0.301356912 -1.314548899
H -3.107109860 -1.096959276 1.718804743
H 2.598125659 -3.486666058 -1.199044549

