11

O 3.964545443 -0.134399552 0.103526095
C 1.420202069 -0.191157684 -0.046332116
C 0.029005728 -2.030670289 -1.046703956
N -2.554598105 -1.283157770 -0.785339432
C -2.995524292 0.904913515 0.305716264
C -0.343210887 1.819251075 0.897803553
H 4.488437901 1.400137392 0.910191501
H 0.570796840 -3.791864310 -1.914852244
H -3.970218552 -2.389633707 -1.414551732
H -0.181616400 2.140408575 2.936304792
H -0.044150560 3.654255210 -0.011292758

