17

C -3.459040719 -0.480861297 0.496400515
C -1.923083986 1.552391095 -0.748293807
C -0.138883381 3.156786187 0.859759322
C 0.851525842 1.479641269 -1.073618626
C 1.757193792 -2.960942171 -0.748866281
C 3.755855900 -1.968251974 0.605241597
O 4.270153388 0.342776288 0.557927881
H -5.233167629 0.278133614 1.227160914
H -2.407403142 -1.333273213 2.048974347
H -3.896926828 -1.972922791 -0.861271953
H -2.874162452 2.477030006 -2.321449818
H 0.059592268 5.181055804 0.617674577
H 0.022240470 2.517114310 2.799758889
H 1.818126745 2.084987027 -2.759079775
H 1.593852008 -2.327421012 -2.689166163
H 1.024638153 -4.834446717 -0.358117822
H 4.978575996 -3.188498834 1.759522180

