13

O -3.556956179 -0.221021460 3.680629305
C -2.197113266 -0.772007319 1.711742288
C -0.455674952 1.367171668 1.055837720
N 1.407745335 0.976559854 -0.903265598
C 2.505577059 -1.525653549 -1.135091681
C 0.698895781 -0.578312206 -3.046937655
H -3.196034344 1.439863555 4.418764172
H -1.166867256 -1.429935179 -3.031221143
H 0.533623584 1.997307401 2.777719712
H -1.683784527 2.944459753 0.473185418
H 1.811240507 -2.991656174 0.121349368
H 4.513549017 -1.568062707 -1.534771497
H 1.370293439 0.086198950 -4.863836645

