13

O -2.952121648 -1.440130686 2.130995925
C -2.570784497 0.161301466 0.234697352
C -0.513037210 2.155307592 0.605038697
N 1.502499264 1.412540931 -1.138562107
C 2.455557483 -1.079249518 -0.391146152
C 0.378743823 -0.927359077 -2.181562520
H -1.637894437 -1.326549756 3.404036668
H -2.248497697 -0.786222028 -1.816884042
H 0.182718715 2.208704411 2.560619037
H -1.221917397 4.037859258 0.148581871
H 2.124278024 -1.737455678 1.533472782
H 4.331613914 -1.497411328 -1.097990499
H 0.568223922 -1.364833661 -4.177642904

