11

N -2.057002319 0.290262575 2.610202219
C -1.708600411 -0.430353510 -0.225028795
O -3.428472698 -1.147154238 -1.475912046
C 1.033817573 -0.662438485 -0.170955378
C 2.771527495 -0.224322774 -2.237635343
O 2.502678541 1.639578183 -0.313621159
H -2.236536297 2.175875068 2.894693589
H -3.466318300 -0.680582313 3.465524747
H 0.069836889 -0.681993919 2.542056389
H 4.574807796 -1.205124818 -2.249059985
H 2.059140072 0.334554505 -4.083143577

