11

N 3.323964172 -0.228643709 -0.270266117
C 0.674223687 -0.206832320 -0.088813254
C -0.674106221 2.112998306 -0.773350650
N -3.029550474 2.359772632 -0.422355905
C -1.910818416 -4.061666027 0.559605958
N -0.578552031 -2.173045733 0.498822161
H 4.063178092 -1.968668640 -0.036927970
H 4.186790917 1.019690113 0.886803192
H 0.536199659 3.566734170 -1.613289182
H -3.640457431 4.063612559 -1.063004469
H -2.660031745 -4.559092569 2.427053232

