11

N 3.834370789 -0.361786706 -0.344584094
C 1.217319447 -0.220277419 -0.113273737
C -0.378279310 1.736493109 -0.671474116
N -2.769274866 0.799369042 -0.194835450
C -2.501245013 -1.603711427 0.590971745
N -0.122589236 -2.283546958 0.670121582
H 4.520167461 -1.871065457 0.593588468
H 4.749156442 1.232135581 0.145501995
H -0.060522126 3.620615439 -1.365477793
H -4.402277256 1.738281130 -0.400077414
H -4.086826351 -2.786506353 1.089538794

