11

O 0.177839726 2.355683643 3.026412867
C 0.377343725 1.018529878 0.986694663
C 1.872713657 -1.445928347 0.556196060
O -0.175287405 -2.395475568 -0.987751115
C -1.669738836 -0.304465681 -0.606154542
N -3.851806121 0.216952653 -1.290503721
H 1.029965329 3.339502729 0.705383040
H 1.360730971 2.581790016 -0.933171724
H 3.647302114 -1.355807327 -0.479716425
H 2.061190651 -2.509445064 2.311058271
H -4.666348416 -1.197712745 -2.306810261

