9

O -3.413893347 -1.920903847 -3.499962095
C -3.466523562 -0.899399861 -1.515571142
C 2.328529356 2.265612304 4.368980225
N 2.487586526 1.278568703 2.399201484
C 2.684740538 0.119496737 0.086035168
N 0.851349871 -0.619349593 -1.260386457
O -1.435222879 -0.117547050 -0.118673516
H -5.154266177 -0.387974927 -0.422452640
H 4.569199070 -0.186156750 -0.645048677

