11

C -2.786304643 -0.697525975 -2.331354043
C -0.580572602 0.010963095 -1.407750399
C 2.051033241 -1.053099432 -1.182636756
H 2.215822631 -2.726648220 0.001727493
H 3.021565795 -1.363236124 -2.969404101
C 2.603335445 1.476032043 0.124414201
H 3.891004823 2.745842565 -0.864312919
H 3.089700078 1.380969692 2.125144709
O 0.004780894 2.247595164 -0.221060786
H -2.970997858 -2.525386548 -3.221788231
H -4.420171148 0.524396127 -2.214194368

