14

O -3.639165048 -1.267781371 2.762494869
C -2.697820977 -0.642298672 -0.626437577
C -0.216672124 0.044852839 -0.012925991
C 2.321766763 -0.999695790 -0.854009112
C 3.120073420 1.790147139 -0.790348056
O 0.599404592 2.612562373 -0.196898313
H -4.669422056 0.044273014 3.501971441
H -3.108701596 -2.547946911 -1.240864528
H -4.084274975 0.789033997 -1.101821522
H -1.393528680 -0.592378968 2.296256292
H 3.288675880 -2.240925356 0.470102198
H 2.341676672 -1.849974451 -2.730912972
H 3.778777201 2.588647870 -2.576342748
H 4.446195001 2.279160374 0.715921268

