14

C 4.733303302 -0.048480905 1.230112780
N 2.436337211 1.441387335 1.088459269
C 0.506092977 0.457670030 0.184796507
O 0.069048136 -1.917062959 -0.776908551
C -2.471619909 -1.166480788 -1.513893991
C -4.295327242 -1.159290267 0.516330757
C -2.108044162 1.429865392 -0.331149786
H 6.302716162 1.081604306 0.519098469
H 5.126653499 -0.475462671 3.209834012
H 4.642545766 -1.824701197 0.179398958
H -2.892023368 -1.427655187 -3.497721806
H -3.227217300 1.035189042 1.636552750
H -6.057994059 -0.395923456 -0.281148029
H -2.616860688 3.187729413 -1.233367928

