10

O -2.099239058 3.836018404 1.446996534
C -1.188159291 1.833289832 0.737792921
C -2.090353075 -0.646823962 0.404532972
N -0.118767019 -2.117660052 -0.466437301
C 1.966372074 -0.777357625 -0.714765039
N 1.414661147 1.584978005 -0.018083507
H -3.944936227 -1.405934977 0.721533282
H -0.237610780 -3.968027188 -0.865356558
H 3.759445265 -1.480515721 -1.364119968
H 2.619882983 3.051596642 -0.003542254

