10

O -2.398315732 3.412611622 0.473785482
C -1.097431518 1.569836688 0.218794513
C -1.818602087 -1.209429954 0.022557472
N 0.531630415 -2.612984255 -0.276130901
C 2.283625873 -0.977224471 -0.252292119
N 1.512304581 1.511486877 0.031369605
H -2.830436948 -1.810824371 1.717580219
H -3.077459169 -1.515395209 -1.583598769
H 4.275334167 -1.419947901 -0.438127654
H 2.619350402 3.051870974 0.086062153

