10

O -2.253606553 3.696972034 0.921810596
C -1.188324869 1.704201979 0.515619918
C -1.953971692 -0.882632472 0.460724073
N 0.230395504 -2.491196848 -0.013367790
C 2.128454678 -0.925062172 -0.404400011
N 1.432716365 1.485517637 -0.067072749
H -3.641574940 -1.714164691 1.233601668
H -1.280500929 -2.416041665 -1.583784586
H 3.996881643 -1.509987361 -0.974052358
H 2.576615209 3.003453469 -0.153909595

