10

C -2.654874380 -0.590569971 -0.198982719
C -0.381758106 0.391220645 1.186810575
C 6.058935521 -0.983539123 -1.775404969
N 4.209294834 -0.070969817 -0.977631329
C 2.017384702 0.814046677 -0.009722603
N 0.870598205 2.849389938 0.255198253
H -4.366738386 0.331835284 0.488582926
H -2.864471596 -2.621553237 0.101421601
H -2.493833904 -0.245942885 -2.224214036
H -0.414777745 0.191038045 3.232052259

