15

C 3.969973983 1.473027492 -0.071199022
O 1.508705522 1.080632987 -0.028246190
C 0.446683181 -0.870681580 1.010934010
C -2.295920412 -1.178160524 0.660544054
C -4.015208944 1.038281333 0.490512431
N -3.502138663 -0.510848435 -1.726274717
H 4.496789565 3.159977462 -1.089079269
H 4.080478251 -1.858798338 -1.391354984
H 5.066248876 0.833234351 1.535720442
H 1.399241133 -1.770345606 2.585664522
H 2.919028235 -2.787675148 -1.067871458
H -3.015313353 -2.899460102 1.507918772
H -3.149630323 2.892235811 0.609726786
H -5.921357412 0.910160774 1.229462979
H -2.229222698 0.358347782 -2.864727975

