16

C 5.301771887 0.825994546 -0.116039048
O 3.058934524 1.309454934 -1.454462124
C 1.309390287 -0.611361701 -1.188444300
H 2.074452655 -2.458217159 -1.785340771
C -0.196696452 -1.088386571 1.295292930
H -0.038517910 -2.744669064 2.513571829
N -2.320932732 -0.852481098 -0.177366047
C -4.937163234 -1.380522110 0.385643648
H -5.321044164 -0.863536147 2.338333841
H -5.318148140 -3.386513899 0.109021532
H -6.133938599 -0.283417175 -0.879092259
C -1.235275058 -0.187953672 -2.346578829
H -1.998589014 1.054857463 -3.775395687
H 6.561184417 2.423044083 -0.427847090
H 6.222824853 -0.903559394 -0.800619077
H 4.924886836 0.631950324 1.910893816

