13

O 1.060491076 -5.083018249 0.571521494
C 1.633721487 -2.904604409 0.350131763
N 0.933203698 1.637937164 0.898130759
C -0.558108180 2.403098062 -1.100851809
C 0.560964217 -0.814038702 1.997615578
C -2.158281945 0.971276974 -2.418783072
H 3.049266156 -2.265765542 -1.059424402
H 1.518695464 3.011794890 2.064064811
H -0.277631098 4.368404539 -1.613876755
H 1.581129426 -0.907423657 3.791479959
H -1.429576509 -1.244980427 2.393380221
H -3.149033151 1.778479573 -4.009903159
H -2.512341126 -0.999493741 -1.998823774

