13

O 4.444899178 -3.086050753 0.514202585
C 2.841162391 -1.945922176 -0.628378099
N 1.837125503 0.297835955 0.167881417
C -0.093363771 1.652601212 -1.037662769
C -1.717084998 0.619384704 3.891530394
C -1.886725863 0.672055982 -2.493344503
H 2.055601238 -2.596161440 -2.444111506
H 2.642795591 1.077299812 1.710265581
H -0.009369810 3.668045732 -0.687619464
H -1.103244599 -1.364248753 4.168047120
H -3.604162255 0.413586159 3.014666991
H -3.227469881 1.912463668 -3.405525584
H -2.082284341 -1.337141746 -2.822764358

