17

C 1.773396417 -1.835538417 0.099245015
C 1.280987930 1.023864801 0.350568347
C 0.113490677 1.789950210 -2.234966540
C -0.886496547 -0.670378340 -3.247350348
C -1.943882009 0.235778407 3.821699458
C -0.508103154 1.748908968 2.440859231
C 0.006965890 -2.635984659 -1.979909978
H 3.735386104 -2.197378035 -0.452832558
H 1.479440864 -2.854238994 1.868490781
H 3.046900427 2.047558110 0.660775470
H 1.541186418 2.572478070 -3.513055838
H -1.354276763 3.228252417 -2.025000639
H -2.140931236 -0.780887709 -4.860814840
H -3.216522792 0.993543201 5.234021690
H -1.931848989 -1.799925470 3.597007091
H -0.653154676 3.776863476 2.754275808
H -0.402301149 -4.596042422 -2.405677595

