15

C -1.927463502 -0.648946332 -2.329294733
C -1.929951572 1.410596402 -0.318865149
C -3.149738284 0.951993207 2.214784832
C 0.408377960 0.079806592 -1.010407457
C 2.793195379 -0.249469738 -0.661383338
C 5.216048373 -0.560410414 -0.311806058
O 6.314343345 -2.177941427 1.375601698
H -2.144484129 -0.099428072 -4.290331146
H 5.005185211 -3.059842273 2.271862327
H -2.775738807 -2.450935742 -1.843171021
H -2.095552505 3.326780488 -1.036912321
H -2.891890861 -1.009899102 2.799855832
H -2.313679472 2.157402145 3.664562154
H -5.175305764 1.341258968 2.141968639
H 6.613420245 0.484606942 -1.380817475

