12

N 1.046892343 2.019448831 1.841823041
C 0.541694642 0.123780765 0.111572907
C -1.866231651 0.165027836 -1.373677050
C -1.439199543 -1.835769682 0.582485231
C 3.362604914 -1.429716784 -0.823983008
N 2.956097424 -0.206507495 -2.647232725
H 2.288258272 1.499674672 3.192996477
H 1.572723244 3.666015448 1.036951816
H -1.807640201 -0.375525809 -3.338277128
H -3.134762355 1.701887575 -0.918645361
H -2.402483353 -1.679277946 2.379013427
H -1.050310989 -3.735896764 -0.053536414

