21

C -1.019007260 3.190755413 0.991183443
C -0.873948708 0.385154322 0.306102959
C -2.158839943 -0.056677176 -2.247603195
C -2.174198957 -1.210118967 2.335685371
C 1.892219335 -0.359154317 0.052732713
C 3.932138095 0.169317439 -1.698758188
C 3.167313417 -2.488116614 -1.282714025
H -0.088112166 3.568572779 2.799025581
H -0.106382888 4.347916601 -0.451502871
H -2.983042443 3.797827114 1.169293967
H -4.112368834 0.599010055 -2.155055861
H -1.202950008 0.973144288 -3.755061762
H -2.189479736 -2.057009916 -2.745183598
H -1.297565855 -0.930890465 4.189019565
H -4.163884488 -0.693494755 2.515348153
H -2.067171275 -3.218710093 1.875038039
H 2.482206212 -0.596213279 2.593653963
H 3.458914882 1.277170664 -3.350422889
H 3.278788607 0.618372245 1.734788443
H 4.421032089 -3.769868598 -0.263398399
H 1.862758920 -3.493664337 -2.522407527

