8

C 3.197199889 -0.636817786 0.206599524
N 1.926358390 -1.868286237 2.220715189
H 3.146977677 -2.755057795 3.391808628
H 0.639586689 -3.133302069 1.598058028
H 4.584810816 0.730181709 0.849096958
C 2.139426352 -0.444048223 -2.279354298
H 0.774754849 0.278348646 -3.624537868
N 3.877346469 -2.048695650 -2.212281511

