12

C 3.007427960 -1.432281898 -0.140309576
C 1.409436810 -2.989937997 0.438518865
C -2.710003852 -1.900154862 0.154078253
C -3.288323711 0.307363860 -0.184020510
C -0.317686942 3.293390520 -0.006287761
C 1.897419351 2.703793815 -0.263636580
H 4.880090689 -0.843098041 -0.578910776
H 0.788589231 -4.821777653 0.991502316
H -3.126400827 -3.861049603 0.326058693
H -4.613526338 1.770715822 -0.574750469
H -1.794962388 4.630090732 0.278333358
H 3.860237493 3.108567425 -0.438047378

