10

N 3.224474042 0.312015591 -0.803598060
C 0.749382044 0.045189455 -0.216370750
N -0.994039084 1.806371949 0.007921108
C -3.440698262 0.775587500 0.545925664
C -2.875454382 -1.694110067 0.594379848
O -0.210953831 -2.168297153 0.114123320
H 4.036560694 1.997267282 -0.490884934
H 4.323426222 -1.207959502 -0.508215347
H -0.665752385 3.663180783 -0.209487139
H -3.913794448 -3.412844361 0.896639822

