10

N 3.389585668 0.151101840 -0.778375318
C 0.929952443 0.108954352 -0.127303196
N -0.515947691 2.057597828 0.378166021
C -3.126355342 1.018890740 0.777041134
C -2.773720107 -1.476502888 0.558489300
O -0.206619045 -2.068624267 0.127979699
H 4.312185905 1.789433162 -0.536512938
H 4.386070984 -1.456901892 -0.643601147
H -2.260527977 3.060178437 -0.482497535
H -3.983429722 -3.104558503 0.687473974

