14

C 4.692323004 0.640929679 2.178910346
N 2.250048463 1.724333307 1.640400327
C 0.658092021 0.362192714 0.484618828
O -2.084341667 -3.789479306 -2.207739063
C -3.794824302 -2.285017429 -2.285168267
C -3.756293278 0.311955233 -1.259632664
C -1.831185452 1.437817114 -0.068837620
H 6.149676768 1.830063408 1.329876184
H 5.001598511 0.681448185 4.219192577
H 4.912392987 -1.303257162 1.494156501
H -5.605899931 -2.818053800 -3.192378442
H 1.048607250 -1.573459822 -0.113232276
H -5.495427373 1.366218017 -1.522336003
H -2.061768284 3.365949881 0.594279220

