14

N -1.235875481 1.768868199 -3.794957036
C -0.507842334 0.836801965 -1.757108452
C -0.451421556 1.655779278 0.977013370
C 2.235025083 0.522117514 0.967888090
C 1.095546460 -1.504217819 -0.890731291
C -0.880848968 -2.792123375 0.577446276
C -1.904740736 -0.587709360 2.085233788
H -0.860165972 3.577397970 1.567137327
H 3.635848125 1.696217527 0.023904015
H 2.952178831 -0.200981387 2.759530361
H 2.258902907 -2.570457726 -2.202754722
H -0.850821919 0.621955978 -5.289263657
H -3.961599908 -0.502139216 1.939039662
H -1.473201612 -0.941033306 4.082225057

