13

C 3.119222192 -0.435137578 1.030502540
C 0.441797616 -0.203648736 0.229300672
C -1.968454685 -1.589211275 0.907696930
N -3.388682833 0.447125283 -0.463972248
C -0.991365386 1.420837792 -1.079536738
O -0.727659907 3.481577611 -2.529786549
H 4.283114131 1.037807598 0.171358759
H 3.323944104 -0.259863779 3.080737636
H 3.932662834 -2.254245790 0.483922181
H 1.038823533 3.834272807 -2.746132316
H -2.474500816 -1.662916773 2.907397197
H -2.212534338 -3.451906228 0.049106914
H -4.432050987 -0.158003989 -1.953369020

