14

C 3.207088089 -1.474403251 -1.491439699
C 0.891626926 -0.022718231 -0.862226888
C 0.201344347 2.398957672 -0.882033580
H 1.204633584 4.132874498 -1.309607568
C -2.493954904 1.900207604 -0.067615837
H -3.143410914 2.777304520 1.684733057
H -3.913333336 2.177379820 -1.536602755
C -1.657313886 -0.898883569 0.125790621
O -3.103177454 -2.538592238 -1.399730610
H -2.523048295 -4.236188074 -1.148701545
H -1.592526043 -1.589186009 2.081043358
H 3.912470997 -2.496014081 0.160828411
H 2.804074929 -2.877567568 -2.954097168
H 4.707792453 -0.241710825 -2.179912449

