16

C 2.834137769 -1.607397357 -0.412417193
C 0.744640476 -0.217383775 0.929617489
C 0.130351777 2.413624441 0.778283497
C -2.017203194 1.937023834 -1.054780097
C -1.936977555 -0.881191159 0.118805570
O -2.264795564 -2.933990652 -1.507111500
H 3.141619642 -3.459346835 0.441135229
H 2.318523029 -1.939744548 -2.386312059
H 4.593682532 -0.541738371 -0.317943850
H 2.581813033 0.856682640 2.874262929
H -0.349636693 3.444036615 2.474761825
H 2.787938954 2.590786794 1.851670763
H -3.780428822 2.997986114 -0.901135990
H -1.445766832 1.770013467 -3.027648408
H -3.247172884 -0.954589917 1.714199065
H -4.008747497 -3.418104073 -1.536797189

