8

N 1.875218773 -0.280412945 -0.158065046
N 1.054444085 2.007018345 0.291724165
C -1.432578377 1.828874052 0.318726443
C -2.349325414 -0.706598399 -0.029794235
N -0.149562147 -1.890642245 -0.217240969
H 3.637946874 -0.819913162 0.312434203
H -2.550454464 3.512143100 0.581645437
H 0.152744956 -3.728162928 -0.608050183

