12

O 2.181829274 3.680089372 1.559034068
C 0.932710045 1.941528147 0.878731397
N 1.544960919 0.362015949 -1.329603119
C 0.645200876 -2.132893815 -0.434367080
C -2.061241976 -1.113020587 -0.345658196
O -2.911310934 -1.031803390 2.225029566
C -1.786722558 1.180706117 1.292458020
H 3.250748283 0.599206208 -2.169039872
H 1.475976882 -2.665459341 1.378956699
H 0.951469507 -3.572273770 -1.867508728
H -0.744168252 0.371666345 -2.390023519
H -3.048135325 2.796643713 1.167163149

