14

C -2.214166986 -2.116151408 -0.186364469
C -0.658182350 0.243430645 -0.033336205
N -1.420900266 2.325217384 0.881632203
O -3.880666528 2.166795331 1.730363158
C 1.948066940 0.246757735 -1.125120825
C 3.985703308 1.887210068 -0.159453484
O 3.684861006 -1.525168494 0.096611549
H -3.882365921 -1.802140475 -1.359044957
H -1.117780977 -3.668689108 -0.978499545
H -2.894178771 -2.656367718 1.683552998
H -4.197474540 3.830631210 2.378945170
H 1.898545042 -0.314119763 -3.113438005
H 5.418504200 1.946826486 -1.666648094
H 3.391627687 -1.435707442 1.894494716

