14

C -2.323797519 -2.128610297 -0.223711901
C -0.731358120 0.199906587 -0.041463218
N -1.450961841 2.289737341 0.885733229
O -3.924750003 2.183988230 1.716763253
C 1.886188255 0.155418673 -1.101343214
C 3.992134594 1.564963651 0.047962704
O 3.530685206 -1.729961629 -0.020851087
H -3.959943998 -1.789151858 -1.434272932
H -1.234151125 -3.702772964 -0.979608001
H -3.046900730 -2.645732282 1.635686557
H -4.197644445 3.841546703 2.398956274
H 1.905378386 -0.107254600 -3.145096625
H 5.484683921 1.874165874 -1.352418047
H 4.109673745 -0.595063192 1.615361891

