10

O 3.819012626 -0.260358755 0.648374614
C 1.500194384 0.293046425 -0.101889800
C -0.710376906 -1.110146503 0.939861222
N -2.635441703 0.217298776 -0.473329605
C -1.770119424 2.012006542 -2.013429335
N 0.919184576 1.993660362 -1.711233669
H 4.951881857 0.857676674 -0.247131315
H -0.621801267 -3.125884989 0.505629144
H -4.488105820 -0.165836582 -0.322344475
H -0.887293463 -0.869392050 2.982010048

