10

O 3.961443174 -0.549001306 -0.112053975
C 1.607023777 0.290913000 -0.266078730
C -0.697092869 -1.090809540 0.501699345
N -2.501426465 -0.284299582 -1.474026742
C -1.818268096 1.964711156 -0.118195434
N 0.768548459 2.456504746 -0.924561451
H 5.071070550 0.785754623 -0.670322045
H -0.993229431 -2.851608835 1.498961867
H -4.260235708 -0.845891434 -0.923064145
H -1.498317527 0.680646450 2.094895769

