15

C -2.530573714 -0.612666519 -1.330433162
O -1.694328443 -3.014537828 -0.206071497
C 0.458319529 -3.166054821 1.201406631
C 2.260829615 -1.398060111 1.394628576
C 1.683269917 0.747778026 -0.313632119
C 0.805450275 3.439762054 -0.301660043
C -1.095076901 1.364333450 0.047127029
H -2.147795023 -0.678981261 -3.356105541
H -4.568294836 -0.589791328 -1.019728059
H 0.527502138 -4.965518820 2.175458743
H 3.935221391 -1.692653957 2.528117656
H 2.039650929 0.219224690 -2.269574568
H 1.009287643 4.647995207 1.337334536
H 1.033619530 4.409003849 -2.089146882
H -1.581677485 1.262339262 2.038947819

