15

C -2.582701129 -0.607044395 -1.146923767
O -2.001357576 -2.918285497 0.368812802
C 0.311720434 -3.039086844 1.305804040
C 2.271264399 -1.410473892 1.058610421
C 2.308007232 0.864455291 -0.431651487
C 0.615975449 3.033232794 -0.236745815
C -1.803534393 1.678378210 0.177653512
H -1.687866033 -0.814639427 -2.999773133
H -4.628233207 -0.780923935 -1.335081983
H 0.636074141 -4.852482698 2.207126811
H 4.093818262 -2.197449939 1.592274691
H 3.464964897 0.736497419 -2.139586488
H 0.975666127 4.235705268 1.400839425
H 0.736605644 4.203864895 -1.933475382
H -2.648557291 1.883875136 2.040429610

