13

C -1.456469561 0.822133193 -3.142528128
C 0.715822889 -0.539468545 2.892290236
O 0.921525153 -3.097555424 2.174665776
C 0.686152488 1.315578063 1.136113721
O 0.658336759 3.624457082 1.053266521
N 0.744307374 0.044386775 -1.638413847
H -1.605301972 2.868835446 -3.003409609
H -3.137207037 -0.034763988 -2.324363851
H -1.249824116 0.238510006 -5.105562795
H 0.848910820 -0.102896665 4.882409270
H -0.517112159 -3.986350993 2.824252631
H 0.857694739 -1.860322723 -1.354543913
H 2.370631150 0.677794759 -2.435326963

