14

C 3.062145906 0.287848923 0.804544227
N 1.168728277 -1.571134665 0.222479573
C -0.843221951 -0.161486754 -1.120659351
C -3.446363623 -1.243479531 -0.613119544
C -0.566315317 2.614654943 -0.444791433
N 1.631458521 2.701661580 0.655146958
H 4.569260637 0.323560740 -0.613534282
H 3.905027422 0.013608579 2.666044268
H 2.409510243 4.341924033 1.233324275
H 0.436590097 -2.257518947 1.851220933
H -0.469130860 -0.246449256 -3.164184087
H -4.861967687 -0.217600433 -1.699191597
H -3.525841139 -3.238611328 -1.130239205
H -3.936091081 -1.059830220 1.385934985

