14

C 3.340400425 -0.154122831 0.699787089
N 1.032612211 -1.259116674 0.567924513
C -0.841516681 -0.178295339 -0.959047781
C -3.410631113 -1.394235569 -0.722285412
C -0.887272185 2.860592820 -0.257093743
N 1.052207367 3.684808642 0.624555127
H 4.291476812 0.202851933 -1.078664913
H 4.512436006 -0.688837317 2.289103811
H 2.676803273 4.072189326 1.497571255
H 0.368404546 -1.879996000 2.246510574
H -0.208640655 -0.081875068 -2.921895365
H -4.782554006 -0.293153327 -1.789711708
H -3.404926654 -3.327390227 -1.437855626
H -4.034724769 -1.416091650 1.246973540

