14

O 3.677599035 3.371496548 0.518581780
N 3.313196872 0.875205565 -0.309593604
C 1.133099513 -0.016541415 -0.602499264
C 0.031416092 -2.576833132 -1.129003702
C -2.418504905 -1.588647003 0.165969902
C -1.376856646 1.149572123 0.074810346
O -1.473845026 2.492426153 2.339075312
H 5.267595339 1.580850673 0.109934061
H 0.981483498 -4.182216457 -0.261425147
H -0.196457950 -2.936948980 -3.146284280
H -2.566609279 -2.213697937 2.120283049
H -4.191653976 -1.929666185 -0.816132953
H -2.168563850 2.225590871 -1.513734480
H -0.006975981 3.579923400 2.370372673

