10

O 5.005571849 0.588398165 0.767552006
C 3.371861001 -0.598697607 -0.257147846
C 0.666347573 -0.048205817 0.001023967
N -1.256690455 -1.262235989 -1.046106349
C -3.614621134 -0.259544642 -0.416051099
C -2.820265290 1.673339350 1.114640725
O -0.222603029 1.794003711 1.362403057
H 3.782614876 -2.229880115 -1.500893110
H -1.043180410 -2.771206166 -2.189251608
H -3.813116095 3.110132515 2.157747209

