10

O 5.100192004 0.777629160 0.896150572
C 3.581624871 -0.577385654 -0.093368854
C 0.826011553 -0.163271732 0.029051988
N -0.932397314 -1.591650118 -0.950776091
C -3.373870120 -0.478545778 -0.442545909
C -2.731544141 1.589018693 0.939483390
O -0.173411871 1.720634886 1.301050415
H 4.104345057 -2.266874830 -1.200815732
H -2.543912365 -2.083838376 -2.318218972
H -3.801120680 3.070387115 1.833906185

