12

O -3.869665922 1.253175848 -0.051064444
C -3.027502256 -1.243151531 0.306831051
C -0.320321693 -1.809120310 0.634938813
N 1.217355957 2.640460362 -0.973051918
O 3.947761784 2.347568441 -1.331300773
C 4.076864093 0.202107532 -0.273672122
C 1.322389070 0.203860706 0.170769655
H -2.782851169 2.115862167 -1.232537582
H -4.117183346 -2.029639708 1.873599882
H -3.482760939 -2.476920213 -1.324512574
H 5.782696622 -0.912763777 -0.088577511
H 1.082229692 -0.215529236 2.427268283

