19

C -2.075817698 -3.583287774 1.343687644
C -2.904999248 0.235790577 -1.183055992
C -0.659513435 1.465899351 -0.233583604
C 1.592930407 -0.170334206 0.051748940
C 3.764293244 0.692701901 1.650572402
C 0.158401322 3.195340304 -2.427024810
O 0.521296561 5.421173986 -2.210208973
H -3.002533040 -4.555327006 -0.206255122
H -0.865530149 -4.945583287 2.322298626
H -3.466768999 -2.876515123 2.675805138
H -2.772068354 -0.808731142 -2.942663266
H -4.753423179 1.008114274 -0.755775706
H -0.999853072 2.637054717 1.423555313
H 2.143668201 -1.144102103 -1.684141705
H -0.209041428 -2.126635779 0.896369666
H 5.113918484 -0.843801284 1.915295366
H 3.126437904 1.319445349 3.509446177
H 4.795595176 2.265533332 0.781936677
H 0.422720830 2.181377289 -4.234913813

