14

O 1.294746062 3.258451601 -1.490888844
C 2.319266863 -0.464499462 -1.392700828
C 0.196604876 -0.954622250 0.062120211
C -1.600104658 -2.943147962 0.699031936
N 0.104523983 -1.837715192 2.608509591
C -1.122108866 2.025442268 -0.508838295
O -1.991071853 2.924792051 1.447877902
H 1.959951295 4.128050953 -0.031357889
H 2.270688411 -0.620231150 -3.431744891
H 4.154972181 -0.162950838 -0.537228823
H -1.209768801 -4.891319215 0.204387902
H -3.584389125 -2.422558877 0.768675770
H -0.867306113 -0.524886114 3.635345949
H -2.268018247 1.759446761 -2.229753333

