11

N 3.968352202 2.697260881 1.713110960
C 1.798572445 2.530484084 1.839555842
O -0.602050397 2.335383695 2.042857435
C -1.849381303 0.652750181 0.238672504
C -0.536597522 -1.876475819 -0.048143475
O 1.535840118 -1.821791094 -1.704309977
H 2.947566463 -1.006502603 -0.900351206
H -1.944752776 1.632819918 -1.572768654
H -3.734882699 0.435086480 1.029230735
H -0.024196545 -2.607828553 1.823637338
H -1.908517183 -3.184911397 -0.865210407

