11

N 4.052803590 1.767355379 1.751410040
C 1.895189209 1.892193653 1.107372045
O -0.452002212 2.542233891 1.211859594
C -2.153262908 0.599954729 0.259865537
C -0.520154127 -1.760606770 -0.140460149
O 1.719578435 -0.795819323 -1.124564735
H 3.637474877 -0.194991069 0.298726356
H -2.913655196 1.320229302 -1.512753542
H -3.648779785 0.369504574 1.653493181
H -0.234711411 -2.739605051 1.669180063
H -1.456996114 -3.061022596 -1.446174957

