15

C 4.123957202 1.039605785 0.011023264
O 1.476801540 0.948363988 0.142062486
C 0.531284878 -1.526263250 0.533972957
C -2.287556371 -1.681201158 0.656561588
C -3.651899175 0.689737658 1.130331461
N -3.598647071 0.312366116 -1.619161847
H 4.845203303 -0.115996737 -1.553547192
H 4.989033193 0.371967001 1.773142816
H 4.665307479 3.000971900 -0.300806321
H 1.219288466 -2.274151239 2.348964533
H 1.254164949 -2.788223849 -0.947657929
H -3.501571613 -1.904450625 -1.579093776
H -2.553590899 2.322424936 1.705350762
H -5.537267459 0.625214641 1.935174000
H -2.056838121 1.184751378 -2.359544712

