9

C 0.032012622 -1.526389824 0.361168690
C 2.422015505 -0.468453714 0.759949695
C 4.472481564 0.453148841 1.047425775
H 6.291936881 1.269326676 1.310142700
C -1.941741781 -2.708103921 1.169855045
H -2.923063726 -3.602303521 2.708484229
C -2.006097103 -2.004659230 -1.565597068
H -3.182155496 -0.434083980 -2.184587500
H -1.704575143 -3.452035013 -2.996332528

