13

O 2.235535574 4.081405539 2.012220251
C 0.748087279 2.671540990 1.199759564
C 3.242599936 -0.826169157 -0.840330122
O 1.358989116 -2.263825265 0.019560328
C -0.890329686 -2.076549230 -0.977395151
C -2.626000216 -0.849256923 0.878054101
C -1.574276165 1.791246789 0.622557270
H 5.078090505 -1.372847158 -0.119634215
H 3.057321416 -0.114522468 -2.759674226
H -0.947834165 -1.455542688 -2.946569085
H -2.427226161 -1.655750913 2.759685905
H -4.599349877 -0.890026460 0.312247592
H -2.603139367 3.103734734 -0.566605144

