12

C -2.191004915 1.585984095 -0.474246103
C -0.867533277 -0.782439949 0.356180002
N 0.143455460 -2.587959235 -1.448102345
C 1.904748805 -1.223580148 0.088750855
C 4.087929932 0.386626003 -1.605499580
N 3.196757844 1.996819833 -0.328315008
H -1.351973356 2.379178759 -2.178032455
H -4.176226384 1.168059598 -0.850154770
H -2.095958399 3.019177729 1.003544595
H -1.714118260 -1.697646670 1.987783182
H 0.102552942 -1.938683108 -3.248593750
H 2.967129513 -2.258628216 1.487626968

