8

N -1.640174467 1.446934211 -0.136847900
C -1.094471848 -2.599808498 -0.486686926
N 1.123560100 -2.329049257 -0.039863206
C 2.240671188 -0.005507248 0.368404187
N 0.674806913 1.883775774 0.431723221
H -2.770276364 2.904198231 0.399469829
H -2.778026490 -1.481924361 0.244616392
H 4.243910950 0.181383057 0.650975085

