21

C 4.065078759 0.325848707 -1.481286540
C 3.014537658 0.096021690 1.188125673
C 0.381904371 -1.089370608 1.323126215
C -0.364862708 -1.611345316 4.072093253
H 0.977578454 -2.897437094 4.968911672
H -0.393450749 0.148927691 5.150151374
H -2.240233074 -2.460423263 4.206263940
C -1.690770032 0.419005081 0.031969064
C -1.739180507 2.925711100 -0.032321592
H -3.294277520 3.931999540 -0.906077662
H -0.244034545 4.069069672 0.773650776
C -3.766765157 -1.131779067 -1.126114651
H -5.303228752 0.046405778 -1.828206922
H -3.031593853 -2.251276860 -2.700764055
H -4.548784378 -2.469482761 0.241753684
H 0.485198370 -2.917883930 0.348372561
H 4.289310316 -1.069576294 2.326067647
H 2.989851447 1.950077476 2.105367856
H 4.187840244 -1.527256377 -2.385890178
H 5.958873540 1.142724739 -1.468357450
H 2.867970764 1.520863150 -2.660602310

