16

C 5.546330075 0.509200424 4.585986868
C 3.553945146 0.368962809 2.687274188
C 1.922821900 0.255472698 1.120531474
C -0.110197111 0.113649603 -0.736213450
C -2.678953535 -0.372082954 0.440328032
C -4.740675370 -0.384799564 -3.458825347
N -4.741610633 -0.595833860 -0.727107294
H 5.477246526 2.308247681 5.590322578
H 7.404258931 0.335741083 3.709167042
H 5.344288816 -1.006021781 5.969251368
H 0.295054203 -1.375608785 -2.115829002
H -0.188094665 1.874038431 -1.823246296
H -2.719653304 -0.542899381 2.493852159
H -3.657459997 -1.917045120 -4.334057916
H -3.928715895 1.407016165 -4.105924018
H -6.674466827 -0.499152504 -4.151993386

