16

C 4.704622740 1.671604713 3.784970136
C 3.058330606 0.295522590 2.054543540
C 1.725549950 -0.850863833 0.623998942
C 0.018011773 -2.186512658 -1.083968127
C -2.765500365 -1.505282132 -0.638104935
C -3.574236609 1.170397623 -1.601868339
N -4.521042915 -1.871575929 -2.465268067
H 4.466940112 3.707901738 3.563967762
H 6.683687406 1.216835904 3.427146998
H 4.280536620 1.186449014 5.743599946
H 0.217178135 -4.225581079 -0.815294236
H 0.484106486 -1.794055357 -3.057089245
H -3.305730281 -1.734634468 1.357433890
H -1.926935758 2.093000411 -2.407467317
H -4.591778349 2.181619836 -0.140192054
H -4.915293074 0.884225852 -3.243458627

