11

C 4.906598936 -0.743468808 -0.243949016
C 2.691501525 -0.261444592 -0.065228603
C 0.121832250 0.393011974 0.165390588
C -1.730236603 -1.424750697 0.909032324
N -3.943605879 -1.543259750 -0.031714064
N -2.686370521 2.666043890 -1.997223233
C -0.668276019 2.862148650 -0.861716379
H 6.862582978 -1.190294588 -0.394134357
H -1.080173311 -2.680059705 2.421166678
H -5.091627161 -2.683732747 1.013505153
H 0.640567702 4.466524108 -0.898344525

