17

C 4.376994478 -0.561047743 -0.607471379
C 2.316611439 1.278905357 0.092038941
O 1.152154056 2.515889900 -1.482771903
C -3.858646362 1.863830546 -0.067298552
C -2.729037514 0.071224042 1.505352127
C -0.877684036 -1.824147601 0.442858791
O -1.010597979 -2.266056087 -2.032051377
H 6.114506943 0.525862498 -0.886217604
H 3.935875009 -1.521322637 -2.373773802
H 4.724129948 -1.940365361 0.882732722
H 2.255798087 1.846739183 2.102194911
H -4.348262269 1.426249930 -2.001472585
H -4.399194659 3.693378286 0.651808511
H -2.299230985 0.631585324 3.434582485
H -3.942022799 -1.691546388 1.609322496
H -0.464635712 -3.514139255 1.537769453
H -0.894523706 -0.608608881 -2.854413604

