18

C -1.930704590 -0.783108591 -2.756670676
C -2.177765399 0.230254171 3.119299501
N -0.154103405 -0.614886362 1.491316980
C 0.462224969 1.029486737 3.593354383
C -0.025599326 0.497371437 -1.030725263
C 2.687325343 0.179186193 -1.955529941
O 3.444836120 -2.371278343 -1.941110953
H -3.840341738 -0.623500678 -1.993493462
H -1.480215330 -2.781786800 -2.971494931
H -1.910766656 0.092196015 -4.623743728
H -3.462759246 1.649663954 2.376452092
H -3.055638634 -1.203511011 4.287292731
H 0.941417903 2.979485676 3.163349471
H 1.544296075 0.185293883 5.111967209
H -0.438303606 2.540105530 -0.947303700
H 2.861007482 0.863741523 -3.894968335
H 3.945796090 1.327243323 -0.766306658
H 2.823793824 -3.071669370 -0.378653079

