18

C -2.411202190 -0.680684263 -1.927476805
C -2.477273271 -0.329552079 1.715479052
N 0.171254446 -0.208941405 1.746683910
C 0.910239519 1.314527545 3.738942190
C 0.636868771 0.877569046 -0.660181869
C 2.877788591 -0.062747543 -2.133713257
O 3.268703951 -2.657503538 -1.762340764
H -4.429402933 -1.107075736 -1.641380094
H -1.542865364 -2.435350452 -2.554632649
H -2.478519696 0.698645335 -3.468081225
H -3.464774734 1.480648191 1.857799788
H -3.395536189 -1.904870692 2.676770637
H 0.112173217 3.205466553 3.882679446
H 2.316330078 0.677601175 5.077614237
H 0.237921678 2.903211530 -0.811167660
H 2.536684465 0.272500435 -4.146434322
H 4.558303760 1.036634493 -1.613603028
H 2.705790802 -3.009196857 -0.061541690

