12

O -3.062698008 -1.474473681 3.452116649
C -1.558152832 -1.468390841 1.769684485
C -1.076975800 0.835439888 0.117546748
C 1.638993218 1.827218180 0.750259482
C -0.904666679 0.414527186 -2.601094778
C 0.177643818 -1.830956889 -3.441124169
N 1.056265743 -3.600613898 -4.402468118
H -0.393755902 -3.150765690 1.309990180
H -2.431930086 2.315985996 0.583959879
H 3.036284607 0.322665293 0.583076130
H 1.600901688 2.519185393 2.688520217
H 2.164903564 3.374132036 -0.501148792

