12

O -3.417795878 -2.035044571 3.216726731
C -1.703467971 -1.683032908 1.787122330
C -1.221895174 0.824753298 0.539502673
C 1.575111348 1.631940760 0.641021350
C -0.471284959 0.946063908 -2.125703993
C 0.482365217 -1.337168392 -3.218045099
N 1.155330270 -3.083206242 -4.337833268
H -0.362271969 -3.209022771 1.267096704
H -2.537100167 2.267657668 1.167005943
H 2.839388184 0.166397812 1.319655317
H 1.800518220 3.485983942 1.487906610
H 2.107919988 2.108630468 -1.435137387

