14

N 1.342453370 -3.110790688 -1.993298895
C 2.158308023 -1.245699808 -0.414376953
O 4.222637415 -0.589948912 0.252031639
C 0.326200480 4.058168371 -1.205732743
C -1.287634342 2.255712369 -0.570047243
C -1.336787442 -2.503321369 -1.800238333
C -0.579847797 -0.393471574 0.103219449
H 2.303883699 -4.343618267 -3.074076862
H 2.347130006 3.726797412 -1.238710391
H -0.332023992 5.936440677 -1.683055830
H -3.300490316 2.669041034 -0.515863352
H -2.163481262 -1.790744235 -3.550859280
H -2.498278767 -4.023266830 -1.030011854
H -1.157617065 -0.846211970 2.032973166

