17

C 1.888055096 -0.850117712 1.994647347
C 2.107859214 1.275774232 0.144688374
C 1.878041967 -1.447982139 -0.769926032
C -0.402861377 -2.347389087 -2.119022752
C -2.521933376 -3.175155194 -1.077448099
C -1.859110539 3.585899942 1.283188762
C 0.051963349 3.130871825 -0.265917498
H 3.537614700 -1.361753540 3.088302134
H 0.123279024 -1.039335479 3.009774641
H 3.984293912 2.067240553 -0.098339193
H 3.626073705 -2.206272938 -1.527106560
H -0.274608556 -2.283881685 -4.169375182
H -2.758085363 -3.300356844 0.953520011
H -4.107172730 -3.761883276 -2.230735141
H -2.058109056 2.606753506 3.071577794
H -3.294465302 4.968556366 0.819151413
H 0.168375505 4.186121538 -2.025615990

