17

C 2.274864649 -1.204916570 2.008488457
C 2.383345397 1.076510776 0.384337790
C 2.195241322 -1.488953632 -0.800931448
C -0.472305619 -0.891042698 -1.728963816
C -2.482615904 -2.151809746 -0.432770280
C -2.395159134 2.757159586 0.679095835
C -0.213340272 1.994640355 -0.705168065
H 4.051350145 -1.687443472 2.901097852
H 0.604780825 -1.603522624 3.126825298
H 3.967229969 2.367672217 0.430583527
H 3.595977474 -2.537022064 -1.854919732
H -0.617705210 -0.733513598 -3.785057366
H -2.139695978 -3.934661503 0.512249591
H -4.436903634 -1.657939650 -0.775182645
H -4.050289139 1.587585884 0.805655858
H -2.564635536 4.676069980 1.387359121
H 0.346045552 3.459736724 -2.079276540

