13

C -3.714803792 -1.194807707 0.699120148
C -2.172508616 0.946532333 1.850436073
C 0.647909156 0.335241326 2.016739417
C 1.830776364 0.062563031 -0.552055784
O 3.128414066 -1.673931911 -1.216700827
H 1.421288057 1.642402983 -1.880520702
H 0.997107583 -1.390647773 3.092093057
H 1.636768368 1.888536977 2.966389912
H -2.430021859 2.673644293 0.739846637
H -2.870783981 1.376346685 3.744818766
H -5.718682679 -0.714902989 0.627704884
H -3.105789263 -1.620245038 -1.227856277
H -3.517568919 -2.927791802 1.802897140

