16

C -3.665278663 -0.963315085 -0.725888062
C -1.888216819 0.608053566 0.929737071
C 0.797214149 -0.120480982 0.601204348
O 1.588289939 -1.069891651 -3.325706935
C 2.909948290 1.605965171 0.491087833
O 4.983889736 0.785374618 -0.552148021
H -5.622236632 -0.470491860 -0.313522704
H -3.291770080 -0.616189063 -2.717861768
H -3.425231893 -2.980362585 -0.366343062
H -2.126496865 2.621533999 0.554189077
H -2.372149394 0.271200265 2.915103066
H 1.316344366 -2.063015068 1.014944236
H 1.725421600 -2.850072601 -3.635416700
H 2.762980510 1.485604111 2.725698594
H 2.325188074 3.585211817 0.139896104
H 3.321240038 -0.492061364 -2.660213537

