10

O 4.039882323 -2.153909062 -1.193299592
C 2.495196435 -1.324718441 0.063180026
O 2.270832332 2.196625263 0.870238288
C 0.068573626 1.629080395 1.592397580
C -1.714451570 -0.068709686 -1.545155107
C -0.437102459 -0.915956810 0.709039226
H -1.163885022 2.832120883 2.699827356
H -3.426514205 -0.995072594 -2.165502985
H -0.736763681 1.159257442 -2.843749237
H -1.357249491 -2.366178010 1.833291778

