8

O -1.951088858 -1.366491045 0.912423041
C -1.052390482 0.490162548 -0.664922644
H -1.138786549 0.041191135 -2.671651671
C -1.191878726 3.083204749 0.204349446
H -1.886470637 3.416879871 2.105452006
H -1.415984087 4.622577219 -1.133232550
O 1.158646532 1.759070271 0.072596720
H -1.050565120 -2.906845719 0.584499396

