10

O -2.894559154 -1.477979255 0.762721300
C -1.346419905 -0.170841522 -0.580464037
C -0.083981545 2.139523087 0.292121310
O 2.320013116 1.954668812 -0.433155161
C 2.990058920 -2.188994076 0.438469335
O 5.095960813 -2.542476154 0.495125725
H -3.454142492 -2.991979298 -0.090896356
H -0.922582095 -0.795470423 -2.494651589
H -0.488245931 2.443718821 2.323516857
H -1.209689886 3.646748764 -0.704867580

