13

O 4.998771858 1.776278779 -1.738776521
C 4.472061402 -0.139984354 0.040216433
C 1.776024762 -0.371153606 0.634655675
C -0.424748771 -0.494718980 1.158935697
C -3.124936970 -0.633196844 1.685668131
C -4.709532872 -0.066434758 -0.642239694
O -6.662585477 1.069264130 -0.566371820
H 4.242715302 3.319222906 -1.160024747
H 5.519205098 0.157018496 1.804329949
H 5.155992914 -1.899387727 -0.788637155
H -3.688450239 0.649048302 3.198122604
H -3.613606086 -2.554790800 2.286675191
H -3.940910922 -0.811165563 -2.442185044

