12

N 3.488173436 1.788788728 -1.181214926
C 3.803055495 0.908150295 0.915018618
C 1.769952751 -1.236912411 0.819717235
O -0.228556800 -1.436486368 2.533316765
C -2.223568827 -0.445979976 1.355062567
C -1.631993333 1.419831097 -0.586668763
C 0.488387547 -0.236772006 -1.556198761
H 2.714694946 -3.055101480 0.735532260
H -4.043067324 -1.097114177 2.024444757
H -3.184774883 1.701384624 -1.903947466
H -0.966113883 3.257549124 0.112636162
H 0.222910960 -1.472002637 -3.177452667

