10

N -2.744374890 2.644626944 -1.625967298
C -1.917494894 0.859942380 -0.000970223
O -3.219882309 -0.691015585 1.027502581
C 3.534509955 -2.656354981 1.279930099
C 2.044881842 -0.758913955 0.820435614
N 0.763608110 1.107188798 0.385558024
H -4.601489312 2.753071164 -1.987194929
H -1.564637050 3.987409938 -2.250910083
H 3.786038890 -3.303828876 3.200148996
H 4.483072194 -3.612782468 -0.254312180

