10

N -1.746082316 2.219294436 0.199119024
C -1.500556437 -0.239171373 -0.453977071
O -2.885435953 -1.950587306 -0.600981360
C 2.230464286 -1.529681330 1.300236813
C 1.918263635 -0.823921592 -1.151920486
N 1.224632347 -0.099376539 -3.167856108
H -3.561341968 2.794065730 0.212484812
H -0.501042514 3.426310095 -0.573945691
H 3.037716094 -0.213794619 2.632348410
H 1.961795649 -3.487186640 1.804449229

