13

N 1.557873266 -3.170798412 1.422543232
C 3.067513862 -1.327383560 0.894399268
C 1.514354007 1.046333947 0.724302052
C 0.908769747 2.246175299 -1.892584279
C -1.630445930 1.079625990 -1.494457176
C -1.158917273 -2.498428811 1.718479597
N -1.179174475 0.043710972 0.655378147
H 1.816962504 2.399134361 2.253136823
H 1.969565447 1.276764789 -3.385139010
H 1.011615937 4.283822665 -2.161963774
H -3.339635804 0.877686738 -2.615422039
H -1.704419316 -2.463580221 3.706272151
H -2.402909581 -3.737997138 0.643075973

