15

C -2.127508265 -1.992238513 -0.542438968
C -2.206664376 0.842737482 -0.665365954
C -2.433278651 2.392201259 1.657212465
N -0.084527525 2.389721050 0.238755104
C 5.332694118 -1.140079254 -0.968856065
C 3.504357920 0.033692267 0.192948880
N 1.897585836 1.103072011 1.460668986
H -1.466679354 -2.667922259 1.286565324
H -0.881409725 -2.756150529 -2.000958163
H -4.018849879 -2.747576464 -0.866392317
H -2.999713531 1.601648715 -2.398367737
H -3.448740351 4.169472994 1.652457196
H -2.417307517 1.382019416 3.440259487
H 5.194221564 -3.140286081 -1.363861567
H 7.002246986 -0.118894406 -1.557683235

