15

C -2.931354578 -1.935559996 -0.107892364
C -1.699525247 0.573346119 -0.651136997
C -1.798692537 2.689067822 1.136765166
N 0.552291055 1.280751771 0.777218825
C 4.776753945 -0.062881034 -1.204436032
C 3.874966037 -1.499179733 0.700341251
N 2.559200495 -2.246042451 2.329993553
H -2.945209351 -2.302128351 1.918917045
H -1.900536397 -3.471715320 -1.017059425
H -4.872339467 -1.938700040 -0.808310867
H -1.566028757 1.054043765 -2.645695924
H -1.776930545 4.633537914 0.482599637
H -2.681588588 2.412893306 2.970137390
H 4.455235432 -0.621200523 -3.143558048
H 6.150768141 1.394840244 -0.806272400

