11

O -4.473413256 -2.561303571 -0.109549483
C -3.480703840 -0.508518592 -0.065124195
C -0.759817924 -0.153405586 -0.009126395
C 0.643735374 1.989537717 0.043403891
N 3.109618340 1.209662428 0.079589954
C 3.398061619 -1.363607625 0.053125984
N 0.967077738 -2.118797932 -0.001394316
H -4.608957698 1.251229581 -0.064200346
H 0.068413547 3.942882171 0.056926866
H 4.604837755 2.375252702 0.121814240
H 0.440074885 -3.944022167 -0.034293446

