11

N 2.302903876 0.582513823 -1.439645783
C 2.621256020 -1.394232810 -0.277117508
C 0.491841551 -2.750882275 0.627508712
C -1.613487887 -1.271990774 0.558406530
C -1.460588578 1.281922834 -0.322278561
N -0.616372688 3.380463903 1.128716331
O 0.550011629 2.933860374 3.045187428
H 3.398669411 2.146760152 -1.415586281
H 0.522370227 -4.713780863 1.176259233
H -3.447266308 -2.103849896 0.944763833
H -2.894175313 1.913898273 -1.647364308

