11

N 2.769076256 -2.211808059 -1.457713775
C 1.142529171 -0.793485587 -0.521970569
C -0.818625275 -1.585069260 1.385080168
O -3.303348375 -1.153849953 0.584969938
C -0.563229583 3.307448212 -0.388831767
O 1.184531660 1.817875676 -1.237942388
H 3.943194769 -1.265677860 -2.653923017
H -0.563539083 -3.607344214 1.658641854
H -0.401701218 -0.627632735 3.177603391
H -0.038856511 5.167421392 -1.196175170
H -3.482520509 0.668996081 0.544909104

