11

N 3.423026961 -1.700157663 -0.327505921
C 1.261294754 -0.783182857 -0.347731925
C -1.061585114 -1.775715338 1.059052163
O -2.822666489 0.076156738 1.532156853
C -0.741379054 2.981539034 -0.657777381
O 0.617416384 1.328950747 -1.862109932
H 4.649273607 -0.746154297 -1.458451317
H -1.846070125 -3.294151305 -0.123462384
H -0.311048391 -2.652636113 2.780383735
H -1.660634853 4.237786253 -2.024275721
H -1.612465886 2.115189821 1.350595198

