14

O 4.983912904 3.597829386 1.256054657
C 3.152179658 2.245397374 0.988256333
C 2.105801208 1.538152803 -1.433492097
C -0.244463570 0.269471430 -1.567480275
C -0.694962373 -2.250178098 0.117482931
C -3.117390859 -1.055590336 1.002002503
N -2.089621449 1.359652636 0.165063911
H 2.211973543 1.388005917 2.651501219
H 3.104546957 2.174435116 -3.106897210
H -0.951329384 -0.111695362 -3.475668513
H 0.735076893 -2.404843942 1.573603592
H -0.743577146 -3.928067474 -1.065895674
H -3.560328244 -1.172801355 3.011562662
H -4.800952550 -1.581743663 -0.090718797

