8

C -4.071405695 0.456468315 0.276795026
C -1.226685969 0.347890151 0.311511771
C 0.061452627 -1.669425689 -0.303048443
O 1.201049227 -3.459311101 -0.848478073
H -0.113203930 1.974309982 0.858894470
H -4.820201470 0.869673505 2.154249118
H -4.737246575 1.922507223 -1.012827743
H -4.877761394 -1.334619302 -0.342218913

