11

C -3.360877327 -0.452653884 0.015901478
C -0.343480173 -0.618275302 -0.237281911
C -0.138119194 1.911505426 0.038971085
N 4.418537631 1.992551565 0.329027094
C 5.144773743 0.078948449 -0.375188398
O 0.720142690 -2.560565368 -0.785382083
H -3.792433893 -1.849065247 1.465526829
H -4.195600555 1.360044339 0.527802585
H -4.087144978 -1.012659992 -1.821891514
H -0.250730657 2.821249667 1.871409009
H 5.807890488 -1.709403299 -1.036719531

