12

C 3.934464707 0.727506556 0.679412818
C 1.890148781 -0.455436941 1.491674308
C -0.732291966 0.316854348 0.877399688
O -0.837027655 2.513095165 -0.510054599
H -2.535755135 3.147748213 -0.445104296
O -2.507895130 0.103366734 2.856250021
C -2.762395054 -1.558584862 0.736757596
H -4.369428411 -1.180311051 -0.485435360
H -2.396751681 -3.540640812 1.127627887
H 2.024088600 -2.109947040 2.694506303
H 3.798610123 2.383559012 -0.513640978
H 5.802217039 0.069925044 1.193668882

