11

O 1.753714958 1.996342545 1.594473860
C 1.954085075 0.556693569 -0.578785393
C 0.671848320 -1.956380960 -0.038592554
C -1.487061449 -0.445952008 -1.007034031
O -3.115357476 0.677303997 0.663470975
H 2.475179983 3.617939682 1.227465841
H 0.026500707 1.253872420 -2.049759055
H 0.541249763 -2.465358963 1.945783754
H 1.300845985 -3.511445130 -1.216256004
H -2.425247599 -1.024859761 -2.737023440
H -2.102625731 1.411616892 1.998059682

