16

C 3.873850759 -0.732255475 0.773620956
C 1.927394357 0.801728762 -0.662940623
C 0.868345122 -0.286997261 -3.173365945
N -1.703660308 -0.424941259 -2.027637714
C -4.567256318 0.396825894 2.233325785
C -0.792991443 0.463352418 0.027341956
O -1.928923901 0.953456157 2.198389379
H 3.303691361 -2.712283032 0.895593178
H 4.110304214 -0.016994231 2.693167696
H 5.705987404 -0.650039784 -0.170520514
H 2.485236482 2.784624753 -0.795800370
H 0.950361145 0.968181754 -4.806819601
H 1.605700194 -2.143658450 -3.687820280
H -5.232443958 0.903042686 4.109349090
H -5.552243992 1.496824606 0.794526165
H -4.882538811 -1.607639260 1.867705241

