16

N 2.850118181 0.906608410 2.289924481
C 2.395242811 -1.312847049 1.219911679
O 4.203394580 -2.888648412 0.767813545
C 0.091612241 -2.382464690 0.258707475
C -2.288488327 -0.938748835 -0.412658341
C -1.944486155 1.517800660 -1.845618311
O -1.293403298 3.478068900 -0.098669083
H 4.648331125 1.502703525 2.416256149
H 1.438479047 2.190113172 2.314943699
H 2.469214628 -3.718921166 -0.558556385
H -0.324949084 -4.050699852 1.400748095
H -3.447009399 -2.178618951 -1.591472653
H -3.448767487 -0.506657986 1.253664040
H -0.465716446 1.308379624 -3.282061499
H -3.711803096 2.026197213 -2.795969572
H -1.096189760 5.029830339 -1.010314709

