10

N -2.733114900 0.121350350 0.274825780
C -0.268515513 -0.274995667 -0.829207458
C 1.710382442 1.596718873 -0.108597477
N 3.593189391 0.531701563 0.918399678
N 2.959214244 -2.157007854 1.042897462
N 0.866251835 -2.596136534 0.149407549
H -3.742936523 -1.498679882 0.178474749
H -3.695105306 1.480728901 -0.658912899
H 1.655104437 3.615276680 -0.435242496
H -0.257297040 -0.505320476 -2.903649304

