10

N -2.985486369 0.229819780 0.091655969
C -0.390438658 -0.053230486 -0.179732683
C 1.606110491 1.687250776 0.029137800
N 3.716427521 0.413371921 0.417696937
N 3.214721808 -2.041149539 0.442480714
N 0.786812889 -2.465698679 0.132304526
H -3.921812631 -1.429927035 0.071006875
H -3.775530349 1.511875027 -1.071695527
H 1.560171154 3.720745866 -0.091766045
H 0.261587758 -1.387136946 -2.061509202

