15

O 2.868429268 2.026167129 -2.403768008
C 3.608328364 -0.032187951 -0.853021182
C 1.613237593 -2.046500884 -0.568119476
O -4.896520327 -1.058306024 3.418657914
C -4.057795887 0.817212100 2.459627273
C -1.953247190 0.884593725 0.545246779
C -0.791499013 -1.638674629 0.017908027
H 2.326443476 1.358029702 -3.999910609
H 5.354197841 -0.883532587 -1.569566060
H 4.060893885 0.799858632 0.984095496
H 2.219282550 -3.982659167 -0.873760170
H -4.848402325 2.698755333 2.946044705
H -0.560219987 2.283455419 1.157453906
H -2.769639583 1.707146852 -1.176561230
H -2.059131851 -3.242462023 0.170732711

