11

O -3.280415774 1.465242898 1.501917417
C -2.234243776 1.369681999 -0.904364342
C 3.218402918 -2.395567314 0.196902395
C 1.754483509 -0.451550738 -0.367507266
O -0.632155851 -0.720876319 -1.263959551
H -1.995440257 1.892013506 2.709188038
H -3.795339876 1.124495023 -2.218270507
H -1.187106336 3.108459767 -1.348564366
H 5.141520938 -2.072818306 0.800506430
H 2.539324336 -4.317118619 0.033414572
H 2.411089600 1.496281423 -0.213337796

