11

O -4.564129369 0.995683580 0.233074606
C -2.142754122 0.605813484 0.312814359
C 2.194379815 -1.810503042 -1.030832826
C 2.712422588 0.170752157 0.576054739
O 1.630391809 0.560455390 2.674305659
H -4.971490392 2.598349101 -0.531669116
H -1.548649815 -1.116773904 1.190565631
H -0.887325021 1.972775430 -0.509542521
H 3.137438207 -1.929151235 -2.842515057
H 1.212682967 -3.482219136 -0.371817504
H 3.977067524 1.661224372 -0.163959460

