16

C 3.911232074 1.227757312 1.077520532
C 1.957667864 0.267274038 -0.826375893
C -0.469927020 -0.190969165 0.545781893
C -2.951650369 -2.906636772 -0.541800864
C -2.302833502 1.858776190 0.430918236
O -2.898162200 0.221973467 -1.602507879
H 4.188320631 -0.130543887 2.603849281
H 3.312351862 3.014079248 1.920777726
H 5.728510350 1.538230357 0.156080795
H 2.640511404 -1.491897390 -1.671639012
H 1.725267795 1.640223619 -2.366502797
H -4.206971075 -3.316103271 -2.129452982
H -1.351279600 -4.190779429 -0.590296395
H -3.937781970 -3.015637478 1.247466022
H -1.664484622 3.654508584 -0.346719542
H -3.766493377 2.051581866 1.867416868

