9

O -2.119904650 0.682785185 3.311512011
C 1.434296648 1.465815088 -1.734394492
O 0.852899484 -0.916889654 -2.331873812
C -0.765196179 -1.762285867 -0.340715901
C -0.945918588 0.538012624 1.391710139
N 0.546215850 2.454748359 0.274177642
H 2.669516753 2.408266028 -3.068996220
H -2.597478730 -2.291563799 -1.116380804
H 0.093041138 -3.376223925 0.606290659

