9

O 0.955849571 0.910526852 2.247842642
C 1.276580560 1.478011362 -0.808341575
O 1.168880702 -1.084180003 -1.685121981
C -1.165041327 -1.895894795 -0.394969049
C -1.153820209 0.671900325 0.902684867
N -1.206378406 2.507738112 -0.832583851
H 3.009410547 2.445832385 -1.323639597
H -2.704455106 -2.184762753 -1.717446087
H -0.748824783 -3.517403190 0.788658282

