19

C -5.124100347 1.863868492 0.430455253
C -3.157122823 0.514474989 -1.178868888
C -0.735883882 -0.065625294 0.270237129
C 1.228004507 -1.401038281 -1.365758266
C 4.150245843 -4.366128572 0.217200888
C 3.669099292 -1.973822735 0.041852501
C 5.312700778 0.099818376 1.068698951
H -5.662544339 0.718519415 2.061818569
H -4.397081851 3.660757644 1.142642233
H -6.834979125 2.262613686 -0.649433390
H -3.950267579 -1.249513691 -1.913817922
H -2.701163146 1.672533778 -2.832527836
H -1.165138005 -1.253115603 1.908514632
H 0.048559064 1.698684111 1.013867375
H 0.428777913 -3.155257115 -2.114098769
H 1.715826742 -0.236675687 -3.006315289
H 4.317757932 1.150655258 2.537634147
H 5.805196552 1.414961519 -0.443771435
H 7.051345283 -0.649544222 1.875365642

