10

O 4.569552940 -0.534163044 -0.044556076
C 2.293754691 -0.603656759 -0.165038041
N 0.775708348 -2.648760757 0.387171832
N -1.578283952 -1.812110594 -0.026264151
C -1.943549323 0.487785934 -0.774253070
C 0.591835218 1.633289061 -0.975621530
H 1.060174717 2.250879281 -2.887825928
H -2.983341133 -3.069456954 0.281268821
H -3.808801340 1.230214542 -1.125910107
H 0.860299217 3.244909918 0.284571287

