10

O 4.329901048 -0.180219779 -0.855032607
C 2.021477679 -0.521207781 -0.182011561
N 0.717578426 -2.628154069 0.189515984
N -1.727243107 -1.856008611 -0.080401233
C -2.059638411 0.539541186 -0.654214945
C 0.355115992 1.666885085 -0.668768180
H 2.512382417 1.426104345 -2.058616617
H -3.091717588 -3.169375921 0.094316382
H -3.926875264 1.338904918 -0.846766302
H 0.706364413 3.562461215 0.015520245

