11

C -2.111928985 3.033161948 -0.270400911
N 1.364224508 0.669820077 -0.134097233
C 0.393796267 -1.515623374 0.305880217
O -1.562992137 -2.545983788 0.905199752
C 2.777188019 -3.349443728 -0.037228682
O 3.526539941 -4.050147636 -2.021324781
H -3.228289191 1.456287580 -0.939505311
H -2.932200155 3.908270778 1.403193816
H -1.568689681 4.363630013 -1.728891969
H -0.133237881 2.394736553 0.664050422
H 3.395733268 -4.099305838 1.810386654

