10

C 2.019205491 -3.802897854 0.931433875
C 3.056328554 -1.918607300 -0.305976442
C 5.220888283 -0.239663552 -0.655170126
H 5.553653841 1.232844228 0.729049158
H 6.917808693 -0.998419186 -1.515426503
C 2.857795855 -0.025923490 -2.306584306
H 2.997573605 -0.641040663 -4.255384460
H 1.630978399 1.586806183 -2.008043068
H 3.005728133 -4.737968942 2.463768570
H 0.143598096 -4.476310357 0.458241200

