9

C -4.368548498 3.193149204 0.389780693
C -3.507773392 0.845445043 0.307482289
C -4.135546684 -1.046766770 -1.695010181
H -5.037085545 -2.714775089 -0.875283913
H -5.407274881 -0.253094837 -3.110209711
H -2.426150699 -1.701919587 -2.651858321
H -2.239997936 0.205871696 1.793687503
H -5.637331386 3.918466418 -1.049343771
H -3.841974103 4.476501749 1.894917901

