21

C -2.510491481 2.309850963 -1.136216427
C -2.332355031 -0.188923952 0.292605042
C -4.444883078 -1.976824962 -0.515950563
C 0.245912895 -1.462495652 -0.034823854
C 2.460763168 0.060554195 0.916336966
C 5.092025780 -0.610459867 0.112915010
C 3.894902780 1.786301452 -0.815494831
H -2.227584797 2.011120184 -3.163486457
H -4.369060878 3.172784949 -0.886479274
H -1.091141924 3.661188842 -0.498734176
H -2.576160428 0.212974742 2.312680695
H -6.301954622 -1.124478771 -0.224362666
H -4.278650995 -2.439801513 -2.524539686
H -4.385736823 -3.747588197 0.543450141
H 0.210888995 -3.284002625 0.949284417
H 0.536726344 -1.898239246 -2.042180857
H 2.269960564 0.709460030 2.854350506
H 6.599177096 -0.467642965 1.487387540
H 5.311911628 -2.146474785 -1.222423409
H 3.307170800 1.859526846 -2.774918873
H 4.588579988 3.563170335 -0.077341426

