13

C 1.810936696 -1.948921947 0.764786714
C -1.007351468 -1.870388463 -0.013935048
O -4.681141022 2.174280782 -1.308796610
C -2.460007164 2.601335132 -0.953737613
N -0.715839538 0.826661676 -0.469562568
C 1.935809250 0.933277359 0.276217847
H 2.148904859 -2.497546479 2.716148410
H 3.008299691 -3.072541252 -0.470998363
H -1.507792519 -2.943481027 -1.702362330
H -2.366596037 -2.300781052 1.477024169
H -1.645900130 4.527546313 -1.008518147
H 2.291335974 2.090867402 1.948233179
H 3.211919873 1.516242656 -1.237197325

