14

C 4.047381153 0.703582623 -0.140253659
C 1.437853037 -0.440923088 -0.010854303
O -0.028313030 0.988889561 1.709003508
C -2.459914889 0.165310426 2.033746159
C -4.440491468 1.765790837 -0.063529852
C -4.456072373 -0.433141366 -0.911179733
H 5.227730187 -0.371963259 -1.444425221
H 3.944777623 2.652227101 -0.800885434
H 4.942365820 0.689597856 1.716032836
H 1.524539404 -2.415384230 0.629933117
H 0.532456149 -0.414467905 -1.875396294
H -3.248753621 0.976690415 3.741450783
H -2.544130175 -1.902632009 2.236286910
H -4.544791537 -2.269223174 -1.757541521

