16

C 2.567173873 2.513557656 -0.638457161
C -0.140445126 2.624488851 0.103040000
N 3.456756002 -0.109490675 -0.940160309
C 1.678166674 -1.605639231 0.549458091
C -0.698331527 0.028950245 0.657204983
C -3.122569200 -0.742755341 1.934036045
C -3.109091786 -0.711805861 -0.848959839
H 3.486766988 3.403359239 1.015803362
H 3.064090869 3.709212584 -2.242445471
H 3.308580555 -0.596856806 -2.782579313
H 2.420859579 -1.872445637 2.464059531
H 1.391214540 -3.476306636 -0.271615892
H -4.151620506 0.726473896 2.911270437
H -3.067554321 -2.562559237 2.868546564
H -2.938208029 -2.479085442 -1.865070925
H -4.097970973 0.785208247 -1.821384633

