15

C -3.377142351 0.698317997 1.353530793
C -1.635349978 -0.631367570 -0.375059046
C 0.567192207 -2.075965097 0.524918769
N 1.923906659 0.240958222 0.884264761
C 2.925998773 1.290274951 -1.568402027
O 4.868107331 0.135357567 -2.370116199
H -3.653444121 2.660884428 0.779916220
H -5.236526825 -0.211523432 1.226682473
H -2.718889949 0.666852640 3.301653745
H 1.067871080 1.077186353 -2.737155456
H -2.199121326 -0.732775528 -2.341220416
H 1.444656788 -3.347449727 -0.842431781
H 0.212379025 -3.052050479 2.306994925
H 3.129896046 0.287174593 2.376685530
H 3.044259686 3.370968615 -1.274934665

