14

C 2.148533094 -1.767479175 0.876630041
C 0.176220419 0.164492628 0.193861617
C -1.128197242 0.045489884 -2.347410630
C -2.569092039 -0.604399308 -0.028010106
C 0.587199247 2.750420861 1.177400230
O 2.353446944 3.385560495 2.454565717
H 2.293419643 -1.971345002 2.922984301
H 1.680047065 -3.605789328 0.068441496
H 4.001188914 -1.196771076 0.175833649
H -0.901037195 4.138299108 0.644296491
H -1.561508665 1.807663747 -3.293880262
H -0.536404845 -1.464161370 -3.592537926
H -3.995105168 0.710665770 0.624351660
H -2.984097420 -2.569621956 0.353442072

