15

C 4.590679776 0.344339734 0.281393580
N 2.148744063 -0.270183914 0.353003221
C 0.987690587 -2.430696794 0.936606773
C -1.699398106 -2.200706126 0.516900906
C -2.232385060 0.140659553 -0.284294121
N -4.532352774 1.385088086 -0.658427220
C 0.205609232 1.598800218 -0.379156880
H 0.664484511 2.350725493 -2.241353644
H 5.093600526 2.268212586 -0.142896970
H 5.972399122 -1.069427081 0.765342066
H 2.053486087 -4.065186096 1.515866922
H -3.042420794 -3.699439223 0.866038806
H -6.034289070 0.226043767 -0.483382570
H -4.635392699 2.328745710 -2.314450688
H 0.199438917 3.146049840 0.983255135

