13

C 2.320431369 1.028885804 -1.341160986
C -0.233006859 -0.253017207 -1.481766776
C -0.931410348 -2.479011705 0.156333754
C -2.186818472 -0.153995029 0.528145703
O -1.032509637 0.677422880 3.354571764
H 3.227284688 0.729428520 0.490327767
H 2.193503927 3.061714236 -1.705118231
H 3.590168569 0.222913114 -2.753612400
H -1.070994382 -0.088169424 -3.363127461
H -0.122867990 -1.102191984 2.941012893
H -1.821154596 -4.198506822 -0.493637792
H -4.092825306 0.576464961 0.533090833
H 0.151334333 2.060704160 3.193981666

