10

C 4.374722517 -2.385381728 -2.101524550
C 2.628265525 -1.363183590 -1.095104736
C 0.522670788 -0.087289587 0.094646820
H 1.153047386 1.422538565 1.371021834
C -1.597978225 -1.432047704 1.531247328
H -1.986867458 -1.300732639 3.545415413
O -3.327484657 -0.284427970 -0.006164154
C -1.620540213 0.801231990 -1.483259944
H -1.949898765 1.023220594 -3.487936067
H 5.924300755 -3.308408835 -2.991766930

