17

C -2.757646928 -1.672572877 -1.276203937
C -1.763364579 -0.502909507 1.103466869
C -2.782699821 1.522756618 2.173437908
H -2.030635877 2.308110449 3.911040134
H -4.409639610 2.458616061 1.355947016
C 0.445678546 -1.773023461 2.336220220
H 0.103147923 -2.399170493 4.266093236
O 1.861670230 -3.520684360 0.873634712
C 3.074211070 -1.249720011 1.628539575
C 3.796758626 0.596754950 -0.394312691
H 2.270595701 0.881053077 -1.746001001
H 5.459852863 -0.074878697 -1.413006143
H 4.256176558 2.422320488 0.451336594
H 4.497318065 -1.540828352 3.087061019
H -4.387496706 -0.633517758 -1.985534748
H -1.306399398 -1.731638138 -2.741017905
H -3.309886261 -3.633198181 -0.937108836

