17

C -1.824298364 -1.284403119 -1.902449556
C -2.235188488 2.037080467 2.521934321
O -1.503786772 4.356112683 1.976573043
C 0.020224340 0.350604082 2.243208675
C 0.557017203 -0.346633370 -0.562039113
C 2.613915323 -2.352924416 -0.651699172
O 1.575999803 1.768578220 -1.863209185
H -3.260863061 0.192126244 -2.004365812
H -1.346038823 -1.854194568 -3.825573642
H -2.653035828 -2.895942471 -0.916607632
H -2.951602030 5.451295711 2.110826802
H 1.728857330 1.255128993 2.986264955
H -0.343075772 -1.386392204 3.291249102
H 4.308276288 -1.691101434 0.317288531
H 1.974632559 -4.104031627 0.228746207
H 3.103481284 -2.742870139 -2.616314368
H 0.528284824 3.218457607 -1.557026820

