10

O 1.753991821 -1.419147621 -3.134654811
C 4.080068199 -0.796022790 0.582617304
C 1.509965610 0.092185924 0.687430510
N 0.285688323 -0.585730250 -1.335741818
C -2.271613016 -0.170540923 -0.975857689
C -2.428154035 0.881385555 1.337310745
O -0.056848423 1.112150671 2.383125547
H 5.478729942 0.741266445 0.671878744
H -3.690743610 -0.592633155 -2.367779137
H -3.984245384 1.551639400 2.457171271

