11

N -1.249218667 1.616147129 -1.355224441
C -2.348248742 0.979653601 0.741105289
O -1.233989459 -0.425005490 2.406148231
C 0.966725701 -1.789620189 1.414444093
C 2.568724166 0.004038345 -0.074442907
C 1.507580964 1.717541442 -1.608731806
H -2.261285719 2.648598865 -2.592596680
H -4.178618664 1.719375478 1.295261920
H 0.185433760 -3.331313639 0.272240767
H 1.875543447 -2.573525337 3.081574766
H 4.595875086 -0.040017199 0.201113007

