11

N -2.433099392 0.799617881 -1.719909949
C -2.629362643 0.986990859 0.639264093
O -1.072091255 -0.191324717 2.256335034
C 0.929221459 -1.601243029 1.142697829
C 2.996362688 0.068669246 0.222477438
C 3.989312723 1.461653287 -1.473929137
H -3.786367192 1.817736951 -2.610598778
H -4.025449974 2.073734086 1.696027024
H 0.218973073 -2.703210665 -0.444576722
H 1.601119214 -2.854955238 2.624156315
H 4.639901264 0.668206232 1.448950983

