11

C 4.389204112 -0.492847962 0.643677095
O 2.361929585 1.038019247 1.415705674
C 0.077221296 0.381978656 0.265367928
C -1.961558356 2.139040565 1.211462279
O -4.117134516 2.012325697 0.530657338
H -1.311158145 3.569374873 2.597265475
H 0.174864352 0.543902031 -1.805024329
H -0.481765096 -1.571160365 0.707291362
H 4.054598017 -2.483939941 1.117149903
H 6.067949949 0.162740134 1.635459544
H 4.709623371 -0.344442346 -1.399895753

