10

C 0.194369481 2.406829440 1.699188006
C -0.494979044 3.481010788 -0.811327474
H -0.692101157 5.519010059 -0.921531408
H 0.535174785 2.674825769 -2.395288599
C -2.364000384 1.968934071 0.628538858
C -3.069804796 -0.713244963 -0.062750907
H -4.564682133 -0.725687127 -1.483879226
H -1.451133296 -1.724443327 -0.843444806
H -3.721061828 -1.747113691 1.597629135
H -3.836037282 3.035402332 1.588405269

