10

C -1.813097314 -1.728664540 1.980758862
C 0.308504536 -0.780210450 1.110812499
C 2.500333863 -1.046602780 -0.547335097
H 3.977454351 -2.362265238 -0.016178607
H 2.230467990 -0.839690412 -2.567262766
C 2.128364651 1.296637867 1.104459259
H 3.361591209 1.525411343 2.723652739
H 1.611545003 3.046237303 0.173239546
H -2.944982981 -0.712155800 3.352046542
H -2.496926611 -3.553310217 1.349294348

