12

C -4.960247505 0.230602844 -1.016556777
C -2.298161835 -0.064918480 -0.389430243
C -0.106413710 -0.304952701 0.131652646
C 2.513736538 -0.596892031 0.753896014
O 3.104714803 -3.017332109 1.386576453
C 4.154338140 1.312617863 0.706835616
H -5.579235234 2.165150551 -0.663703203
H -5.295275141 -0.201615296 -3.004720852
H -6.119363690 -1.036490591 0.123742271
H 6.126439769 1.038535388 1.185971102
H 3.535431480 3.182777556 0.181428864
H 4.874788250 -3.102322353 1.781475204

