16

C -2.325983970 2.638941438 0.017995843
C -0.207941853 1.061440626 -0.131783132
C 0.153456438 -1.574820614 0.163576753
C -1.849978230 -3.509613437 0.624372881
C 2.761664958 -1.905176771 0.235146105
C 3.853332698 0.480186646 -0.225313161
N 2.063665928 2.224588164 -0.436680596
H -4.157782562 1.933250750 -0.604644500
H -0.924388484 4.896376349 -1.676944116
H -2.447113884 4.150387989 1.391231547
H -1.197452624 -5.375307480 0.040102917
H -3.573969723 -3.079460049 -0.426510298
H -2.356907902 -3.631582276 2.622457017
H 3.756422289 -3.681128306 0.396658748
H 5.806499329 0.898730407 -0.653039063
H 0.742889531 4.549677009 -1.383376882

