10

N 5.597576481 -2.119290697 0.861609572
C 3.681941720 -1.479776744 0.042170580
C 1.376539210 -0.738717469 -1.065648007
C 0.175653728 1.657839325 -0.580776333
O -1.828282473 2.145918317 -2.194962058
C -2.850695814 0.424855465 -0.462376582
C -0.989647342 -1.321516943 0.187666396
H 0.555143218 3.041829177 0.891555589
H -4.606268807 0.850774354 0.483933481
H -1.172077779 -2.449905577 1.889520485

