14

O 3.333270167 2.057961997 0.907933392
C 3.080309273 -0.403655006 -0.068364452
C 0.548290240 -1.638590952 0.549817044
C -1.639642396 -0.675464896 -1.018873090
C -3.923833202 3.137910960 0.084982836
O -1.898126505 2.047424393 -0.709330093
H 1.986651425 3.086755186 0.256112220
H 3.386994211 -0.432043076 -2.124372151
H 4.598905886 -1.504780598 0.787486255
H 0.689240754 -3.673218498 0.205372601
H 0.144771257 -1.382612696 2.559886106
H -1.302206039 -0.973501389 -3.032588227
H -3.439829026 -1.535929143 -0.480611513
H -5.351389292 1.601534047 0.436782830

