14

O 3.563305451 1.962356123 0.927901655
C 3.109695025 -0.403781409 -0.194542486
C 0.584891249 -1.559903399 0.586902598
C -1.627450885 -0.361148016 -0.769694748
C -4.117837966 1.888153457 0.489562163
O -1.690013707 2.317621138 -0.410608102
H 2.075045500 2.983488910 0.713849410
H 3.215583069 -0.283559660 -2.267612201
H 4.639651915 -1.642674329 0.420693400
H 0.574412434 -3.581868136 0.160257260
H 0.342721051 -1.337423164 2.624721022
H -1.798002144 -0.799063908 -2.775901682
H -3.407334335 -1.103026015 0.232144237
H -5.315351837 1.762873761 -1.256660843

