13

O -5.224400036 -1.060096161 0.179642241
C -3.039927527 -0.555357986 -0.017360593
C -1.510635556 1.877326819 0.275550434
C 0.869064503 0.246252139 0.037768841
C 3.207865806 0.432147143 1.523254258
O 2.811344384 0.911639050 -1.728729622
C -0.675198918 -2.128403882 -0.565913769
H -1.755619348 2.898922815 2.046290860
H -1.775921280 3.168472707 -1.312833916
H 3.909385018 2.096758887 -0.411369718
H 4.139975427 -1.413468541 1.626924615
H -0.555091005 -2.703212063 -2.543967412
H -0.394219849 -3.771033840 0.644000371

