11

C -3.261085463 0.165005311 0.046497240
C -0.680247642 -0.966001595 -0.133779174
O -0.257715614 -3.181399813 -0.442837267
C 1.549188312 0.911901382 0.107375297
O 1.187836942 3.153190983 0.400472650
N 3.813323757 -0.225596695 -0.044473382
H -4.682696286 -1.303808678 -0.157236098
H -3.462901278 1.136003417 1.854796956
H -3.489644928 1.608920400 -1.408115381
H 3.885805544 -2.106367748 -0.300023729
H 5.398136619 0.808153018 0.077322888

