11

C -3.767200474 -0.975015759 0.395652733
C -1.692409521 0.767881272 -0.347228974
O 0.434118090 -0.182953532 0.472670922
C 2.650341683 1.249329745 -0.104539555
C 4.351235016 -0.253503698 -1.684445686
N 5.710650662 -1.397345567 -2.921956895
H -5.250778345 0.138637905 1.301792700
H -4.604121473 -1.660924605 -1.368592043
H -3.208348045 -2.571305513 1.582962310
H 2.088599163 2.972874715 -1.086884862
H 3.591851124 1.706711478 1.670207223

