13

C 1.215029591 0.582271938 2.762994154
C 0.000568732 -0.325165911 -2.955016444
C -1.043229260 -1.583124070 -0.615444700
N -1.176634060 0.180433375 1.480085789
C -0.117828770 2.129885900 -3.263719515
O -0.166458151 4.296639128 -3.552790391
H 2.576204931 1.416826716 1.457906584
H 0.946402036 1.907843401 4.316943309
H 2.050712195 -1.166452272 3.518212655
H 0.842457462 -1.397521633 -4.477434177
H 0.139916853 -3.242299601 -0.187657174
H -2.951810335 -2.288306743 -0.978911600
H -2.504375628 -0.387975022 2.724242371

