11

C -2.359557733 0.540014562 -0.846784084
C -0.182542271 -0.286879777 0.872554828
O -0.769071800 -1.203216119 3.053339518
C 1.813948183 -1.842316222 -0.217701968
C 1.844602205 1.946078098 0.731597907
N 3.402070106 3.471221175 0.655394607
H -3.602249210 -1.079731342 -1.115676011
H -1.673032779 1.228754596 -2.665576164
H -3.410886529 2.030618605 0.100012905
H 1.845003337 -2.578352661 -2.142100541
H 3.241101232 -2.463153105 1.113063484

