12

O 3.312146581 0.348811582 2.129119767
C 1.355402813 0.331981171 0.484319477
C 1.182260492 -1.418515772 -1.668490294
C -1.034816218 -1.184478181 0.160820531
C -2.267757332 1.357627152 -0.271749401
O 0.125229542 2.664418215 -0.001832486
H 1.025567142 -0.697033966 -3.581649721
H 2.255268397 -3.146374741 -1.450360303
H -1.805171803 -2.768377662 1.189135335
H 2.748349891 1.111959808 3.679515425
H -3.576441825 1.927089336 1.217802972
H -3.106292630 1.697917865 -2.128081627

