10

O 3.891866860 -1.241106980 -0.890945548
C 1.519012976 -0.605909067 -0.185781054
C -0.605467305 -2.324773449 -0.156888275
N -2.503010169 -0.553298109 0.051024873
C -1.607708557 1.873270484 -0.041916091
N 0.813963227 1.967869834 -0.211397803
H 4.941130487 0.221201306 -0.642945412
H 1.045964034 -1.462910484 1.914326976
H -4.322383188 -1.024430718 0.322109449
H -2.838609050 3.503600121 0.059599127

