17

C -4.365181157 -1.188369372 -1.233864000
C -2.318820113 0.827548940 -1.402788130
C -0.220950426 0.412390416 0.486294184
O 1.183610040 -1.882964174 -0.006274684
C 2.195886134 1.990764433 0.213256047
C 3.522745465 -0.550803954 -0.052936104
O 5.059075476 -1.058139085 2.018349936
H -5.831620176 -0.884767976 -2.650935209
H -3.559862804 -3.062724238 -1.533808681
H -5.268749754 -1.177154774 0.622724851
H -1.496920018 0.854627034 -3.300716951
H -3.123501043 2.705026068 -1.066083645
H -0.982171944 0.375774610 2.411963882
H 5.691692136 -2.752293787 1.873606288
H 2.785963189 3.067301098 1.860817208
H 2.251667372 3.169609358 -1.472768940
H 4.532296838 -0.938338046 -1.819740722

