8

O -2.130711823 -1.085098353 1.492789454
C -0.494780736 -0.426234001 -0.464670861
C -0.382849820 2.335386983 -0.888629651
N -0.348032674 4.479935646 -1.179897447
C 2.090183737 -1.423673251 -0.087073043
N 4.069813638 -2.230721724 0.251913909
H -1.547820018 -0.358837505 3.054412750
H -1.255802303 -1.290757776 -2.178845113

