8

O -2.553939781 -0.472494232 1.596191848
C -0.396814121 0.341651995 0.465075999
C -0.459216865 2.690983097 -0.804033774
N -0.464805844 4.623448780 -1.807448810
C 1.546579923 -1.361616194 -0.117941851
N 3.274081091 -2.855617303 -0.203920478
H -2.146810192 -1.301720134 3.162504272
H 1.307903224 -1.787868847 -2.229341808

