12

O 3.968202327 1.708119494 0.490245545
C 1.731867059 1.443813158 0.417570779
C -0.464371736 3.070402365 -0.235774288
H -0.564042109 5.086715252 -0.540925618
C -2.551580854 1.296616475 -0.915103126
H -4.257393730 2.022505652 -1.780899367
C -1.609963945 -1.406187898 -0.853256359
H -0.560794614 -2.173416365 -2.453052178
H -3.133698817 -2.683655571 -0.317368977
C -0.124439637 -0.488958093 1.457926559
H 0.352199842 -1.689147362 3.050087677
N -2.002821698 1.741492852 1.770145805

