14

O 3.159926175 -1.181397776 -2.484858820
C 1.949323173 -0.446932115 -0.468754521
C 0.846252315 2.072935677 0.263967471
C -1.934284411 1.789684137 -0.035382004
C -2.525571099 -0.857561873 -0.937551258
C -0.368858420 -1.587709755 0.847293441
N -0.703562365 0.907339375 2.319956745
H 4.257373964 -1.160296829 -0.096684738
H 3.660523432 -0.682453841 1.576515225
H 1.765860473 3.886937414 0.448889172
H -3.144164687 3.438648552 -0.056202288
H -2.326396497 -1.323722612 -2.934892146
H -4.342091690 -1.494843606 -0.208671118
H -0.297215974 -3.392257004 1.817482500

