9

C 0.159293500 1.586834188 -0.293257791
C 2.301087698 0.269801736 0.174782470
N 1.903846442 -2.252590201 0.812278290
N -0.435117075 -2.605195181 0.390700423
N -2.247830491 -2.247218730 -1.202514464
C -2.086826449 0.058499458 0.147069901
H 0.075590727 3.574444328 -0.744690648
H 4.238084528 0.903471276 0.055026746
H -3.680464086 0.658719523 1.296369375

