9

O 0.030713076 -2.587650378 0.161597605
C 2.057500375 -1.057140403 -0.118746289
C 1.330538155 1.387587872 -0.207717959
C -1.362351373 1.371208841 0.036962778
C -2.030881636 -1.082086659 0.253155289
H 3.865782006 -1.984551826 -0.223195590
H 2.547055149 3.006213452 -0.421598352
H -2.618170324 2.974409683 0.048803576
H -3.820185428 -2.027990601 0.470738922

