14

O -1.194911302 -3.208582371 1.621917880
C -1.142569516 -1.799003869 -0.444077136
C -2.279428507 1.463478366 0.167969384
N -0.056336893 2.102859301 -1.330270268
C 1.238551295 -0.311008385 -1.223788641
C 3.259384275 -0.502558490 0.799333704
O 3.889488904 1.271864162 2.063800835
H -2.157332206 -0.849534807 1.556298123
H -2.343414313 -2.339487651 -2.050060259
H -2.266884411 2.212262009 2.110864918
H -4.093567099 1.837205099 -0.725054012
H 0.989070786 3.504602753 -0.553817462
H 2.054837638 -0.940150123 -3.022102515
H 4.146336945 -2.378228189 1.020290819

