14

C 2.593961686 0.636256972 1.822997798
O 2.915753925 -0.663133205 -0.360811229
C 0.938215743 -0.819346773 -1.859290838
C -1.863791882 -1.814902645 1.754983058
C -0.514813458 1.326600741 -2.515461196
C -1.802183371 3.110930263 -3.085640399
H 1.915159174 2.570360631 1.607062573
H 4.221755763 0.408151533 3.048092088
H 0.388937611 -0.592396032 2.286013277
H 1.068689710 -2.358388295 -3.200806223
H -3.302518918 -0.530720795 1.051683195
H -1.990206075 -3.644453711 0.835558884
H -2.103468757 -2.085409910 3.788507099
H -2.924428146 4.695779370 -3.609209638

