9

C 1.443571330 0.581969487 -0.971406496
C 0.608393887 2.437152136 0.518110690
O -1.820441773 3.091770935 0.872881580
H -2.904837053 2.020098765 -0.115784105
H 1.877903714 3.614420955 1.609786122
C 4.059793517 0.021526456 -1.233555048
C 6.255101602 -0.487638422 -1.485260956
H 8.203905668 -0.930452710 -1.706397727
H 0.119272937 -0.565180310 -2.041814892

