11

N -2.315185716 -0.710969657 0.971637212
C -1.264340633 1.485495811 0.111319079
O 0.865261070 1.185512881 -1.391999475
N -2.023837285 3.732674592 0.294176746
C 2.550371638 -0.689567809 -1.207382927
N 2.493169514 -2.472002314 0.369179938
H -1.084709485 -2.137242490 1.309593565
H -3.710069499 -0.489602017 2.240048183
H -3.614550155 3.843892930 1.355442100
H 3.997327580 -0.399248278 -2.645058047
H 3.994477665 -3.633385226 0.131976110

