11

N -4.004466002 -0.409244078 0.343287232
C -1.611870546 -0.960906440 -0.467863232
O -1.150962055 -2.617156127 -1.974697641
N 0.249236035 0.509582035 0.641531897
C 2.782103159 0.225092970 0.098023874
N 4.404443260 1.558735265 1.235527167
H -5.396845879 -1.263716665 -0.621779459
H -4.405595823 1.270865253 1.125924469
H -0.169589125 1.758374058 2.014782908
H 3.133435749 -1.203988866 -1.341979578
H 6.170111227 1.132362595 0.628219041

