15

C -1.092894607 -1.726149277 -2.054718849
C 0.109560576 -0.148627961 0.067731413
C -1.788579384 0.239231334 2.232149563
C 4.794054426 -1.025258531 1.217522102
C 2.410316419 -1.524249237 1.069620381
C 0.873121235 2.326851317 -0.943541955
C 1.440384212 4.349064420 -1.780496270
H 0.247948546 -2.027972875 -3.587302365
H -2.746013490 -0.750358371 -2.805097932
H -1.688594145 -3.561641698 -1.324137275
H -2.384253184 -1.585191733 2.989986109
H -0.947364946 1.344539249 3.751517278
H -3.452590195 1.234412852 1.532902255
H 2.177799169 -3.413492669 1.905996459
H 1.974097710 6.142904273 -2.517302111

