15

C -1.705825556 -1.345751925 -2.004886979
C -0.075140953 -0.020040111 0.009417545
C -1.653262635 0.494271946 2.400902692
C 2.087868444 -1.647628076 0.662640780
C 3.803142007 -3.015911035 1.209261277
C 0.864747386 2.395697063 -1.008694345
C 1.566035466 4.377229295 -1.842214007
H -0.601420060 -1.721695759 -3.700688313
H -3.304048878 -0.144868030 -2.506528820
H -2.412363295 -3.134016631 -1.262550212
H -2.362409500 -1.283982579 3.164487672
H -0.511295091 1.424602410 3.838627681
H -3.249043920 1.711873454 1.933069336
H 5.339569301 -4.221928843 1.687958838
H 2.213447265 6.132148821 -2.580803164

