13

C 2.374836924 0.981922576 -1.274525274
C -0.246587697 -0.125119655 -1.267183859
C -0.839157603 -2.405035768 0.335403729
C -1.920182784 0.101050742 1.016911309
O -0.994081319 1.205655907 3.226928796
H 3.210093698 0.916165587 0.608482307
H 2.353307426 2.952860890 -1.892744565
H 3.610005761 -0.063931646 -2.554084383
H -1.227260786 -0.027797966 -3.065376128
H 0.660450078 -3.077418880 1.555397479
H -2.083115310 -3.855838815 -0.390238007
H -3.928528623 0.393091266 0.698731790
H -0.969779744 3.004395743 3.002296787

