16

C -2.654451894 0.871447032 -1.642150894
C -0.845018022 -0.658910367 0.013135260
C -1.542102330 -0.445888986 2.810166159
C 1.849395495 0.132098848 -0.428571706
O 2.229154989 2.596418783 0.201841005
C 3.654531658 -1.368232333 -1.325149639
H -2.185183992 0.669178004 -3.640447076
H -2.570345306 2.875112474 -1.161966516
H -4.595171107 0.226792911 -1.367503485
H -0.966806902 -2.644303876 -0.543123748
H -1.410876139 1.509832611 3.450358750
H -0.287180583 -1.590989488 3.979700971
H -3.477399068 -1.092526961 3.116830328
H 3.241558318 -3.311345583 -1.793372410
H 5.572319819 -0.705907912 -1.612272585
H 3.960689929 3.038661561 -0.109438103

