12

N -3.832228123 0.186449356 -0.015686957
C -1.430226651 0.312701372 0.095988223
C 0.410812362 2.292279798 0.771653071
N 2.885090209 2.074082117 0.783178454
C 4.010518039 -0.043893217 0.157360650
N 2.499423469 -2.032921709 -0.512119578
C 0.245468677 -1.669431963 -0.470473000
H -3.424358311 -3.170967561 -1.034207140
H -4.811830664 1.752727897 0.453614111
H -0.394186495 4.096546328 1.315453190
H 6.032069379 -0.279869819 0.150753072
H -2.244660381 -4.067123462 -1.275006588

