11

O 4.230228653 -2.184743005 1.410241531
C 2.253577356 -1.917927811 0.450656179
C 2.229824500 1.740266929 -0.679900783
C 0.315961906 2.819673257 0.066656517
N -2.544986164 0.112825172 1.072714108
C -2.058249841 -1.834024538 -0.301867629
N 0.231317841 -2.916242816 -0.345081999
H 4.083068309 1.858624615 -1.478943507
H -0.988485462 4.253559948 0.612357852
H -4.322222013 0.761603904 0.747764098
H -3.441318621 -2.707165030 -1.554681424

