19

C 3.823017296 1.538768872 -2.421496247
C 0.327807918 -1.194333027 2.143331868
O 1.303821623 -0.945308830 4.582116463
C 0.162035587 1.140777584 0.582811473
C 0.979876059 1.164967269 -2.148193415
C -2.224350228 -0.139329261 1.502489986
C -4.006183668 -1.520793759 -0.238777176
H 4.396438890 1.541323574 -4.403189824
H 4.854254184 0.032835957 -1.457728780
H 4.421202693 3.330189308 -1.588246759
H 0.886349677 -2.920501163 1.168086110
H 0.397622830 -2.068969822 5.677958551
H 0.641400467 2.840540501 1.627502682
H 0.428522119 -0.601295130 -3.067030773
H -0.026500159 2.668287638 -3.151364468
H -3.132878053 0.840836757 3.058121848
H -2.993292128 -2.680741613 -1.609884028
H -5.198825088 -0.208997171 -1.296444000
H -5.246145172 -2.775209721 0.833430977

