19

C 3.770072064 0.529357887 -1.226189727
C 1.462199362 -0.609542481 1.444655957
O 2.540130361 -0.511761286 3.757917516
C -0.436114850 1.370162934 0.656213312
C 0.306686601 1.540855224 -2.043806909
C -3.088922985 0.758559650 0.790562294
C -4.243374268 -1.629931641 -0.203905436
H 4.106798867 0.852444060 -3.257342010
H 4.858100305 -1.208152858 -0.893729228
H 4.655419468 2.079337181 -0.202835398
H 1.010151267 -2.519012483 0.801834227
H 2.986975851 -2.165779018 4.350103637
H 0.008114106 3.123649121 1.647513483
H -0.321900975 -0.013044401 -3.227337884
H 0.312343061 3.356087514 -3.012628543
H -4.313628106 1.943227786 1.931856926
H -2.958742360 -2.687714098 -1.430168598
H -5.952062646 -1.252345616 -1.307825896
H -4.814840676 -2.927991130 1.310902880

