11

C -2.757851510 0.376786615 -0.594729976
C 0.665263191 -0.377460680 2.658081416
C -0.079252676 0.984158538 0.274015466
N 1.835347025 0.377558492 -1.643196744
C 3.358476260 -1.034329122 -0.534640030
O 2.763088791 -1.547400782 2.037022736
H -2.958289998 -1.638215350 -0.979563933
H -4.105187006 0.896249952 0.871384993
H -3.187776996 1.416481558 -2.317990164
H 0.054083300 3.010861479 0.702873182
H 5.059349713 -1.926035587 -1.230982319

