14

O 2.027912007 0.442345485 -3.449877701
C 2.985030945 1.396744275 -1.277933868
C 2.444212550 0.632273165 1.052229874
C 0.737921857 -1.555558994 1.670765108
C -1.994792403 -1.327984795 0.893205981
C -3.101550135 0.685946451 -0.101483301
H 4.311339043 2.911668867 -1.648242237
H 3.360698672 1.624332118 2.587199754
H 1.491421028 -3.288910433 0.813511487
H 0.791672320 -1.916197616 3.704646174
H 0.592580356 -0.612823102 -3.071316520
H -3.119632168 -3.019260442 1.207943741
H -5.089531492 0.662478453 -0.587011352
H -2.070839442 2.426599339 -0.431103032

