11

C -3.126225744 0.091397417 -0.656739544
C -0.420320746 0.124103833 0.135880058
O 1.205218775 -1.180636840 -1.480143804
C 0.350070687 1.296830260 2.205844159
O 0.564295011 2.435645798 4.065305148
C 3.622368954 -1.186873503 -0.838779072
O 4.427802108 -0.150457934 1.010239271
H -4.268946854 1.165433993 0.676999997
H -3.855410074 -1.838817640 -0.721202127
H -3.352781721 0.940690604 -2.524605279
H 4.744646761 -2.253364139 -2.209942956

