14

C 2.566735400 0.366403382 1.108020410
C -0.021348425 0.161652747 -0.065533075
C -0.882114517 -2.306003405 -1.255517804
C -2.040652824 -1.480936128 1.148767667
C -1.030235560 2.402957315 -1.314563922
O 0.353471268 4.439649557 -1.343153041
H 3.109149971 -1.421834112 1.978648831
H 3.982844114 0.849496446 -0.310572086
H 2.608100050 1.832180430 2.557428650
H -1.996335893 -2.184675580 -2.964124262
H 0.491096696 -3.820505132 -1.213095021
H -1.480241805 -2.415091606 2.879230603
H -3.960331732 -0.781513757 1.112540446
H -1.642600271 4.451782090 -2.304136884

