15

O 2.721304943 -5.530925368 -0.856976606
C 1.792603820 -3.335696216 -0.724975022
C -0.174831830 -4.210747523 -2.159053482
C -2.797187822 2.919076631 1.429953245
C -0.977796623 1.647504526 -0.415215556
C 1.483318242 1.006078661 0.807122664
C 2.721518350 -1.185328614 0.676126509
H 0.105941372 -4.100095876 -4.198843817
H -3.282457000 1.646714110 2.977941978
H -4.542421216 3.458430885 0.477353474
H -1.966415047 4.625558149 2.241885337
H -1.849743507 -0.039230015 -1.225175663
H -0.585217246 2.936849921 -1.987417879
H 2.326550170 2.501865921 1.938650132
H 4.497278569 -1.468615549 1.655944288

