13

C -4.956349094 0.476622037 2.127299375
C -3.124143247 0.746929595 0.424853802
N -0.657374737 -0.029359352 0.688778584
C 1.178537335 0.308453381 -1.154550569
C 3.546491102 -0.372156389 -0.981573033
C 5.908919820 -1.037737923 -0.844591567
H -4.639409010 -0.417191133 3.942260942
H -6.834801207 1.158303754 1.717350977
H 6.541874458 -2.888384965 -1.467545189
H -3.505292389 1.650308010 -1.377007654
H -0.139725650 -0.873647826 2.309005367
H 0.513767230 1.221496989 -2.866158177
H 7.341427843 0.234814439 -0.108342213

