13

C -2.783259236 -0.043810844 0.940129809
C -1.047756514 -1.773561636 -0.461400009
C 0.523794892 -0.573665955 -2.456340736
N 2.226993880 -0.843695062 -0.299796905
C 2.720346323 1.236254976 1.232664761
O 2.476365881 3.406378058 0.617137517
H -3.040499528 -0.604784302 2.905368444
H -4.614702844 -0.300476016 0.006393605
H -2.319695264 1.971567744 0.830509876
H 1.198240772 -2.640465370 0.555371724
H 1.105761960 -1.694245617 -4.073862169
H 0.146830095 1.393416997 -2.909545759
H 3.440778292 0.667046488 3.101007236

