12

N 1.643304251 2.316281171 1.027785038
C 0.245550427 3.962219700 1.702013355
O -0.944873286 5.636148682 2.499968333
C 1.602932784 0.222861543 -0.707887117
C -0.751387138 -1.354845986 -0.409590012
H -1.025007727 -2.173668019 1.457198882
C -2.962889553 -0.924723760 -1.997697006
H -2.910398933 0.560850210 -3.415074029
H -4.826607358 -1.434238936 -1.309530675
O -1.303344429 -2.987375094 -2.444398159
H 3.267994774 -0.936135154 -0.346998333
H 1.730890146 0.904146721 -2.653383859

