11

O 2.000036808 1.546862021 -0.009779068
C -0.451301729 1.613402812 0.885123509
C -1.728364735 -0.852559711 0.215062115
C 0.340617011 -2.230200688 -1.147038511
C 2.352739544 -0.750110326 -1.184306499
N -1.389232614 3.446774110 2.050065928
H -3.393976485 -0.496547384 -0.949944422
H -2.374953879 -1.805108478 1.927616229
H 0.215188632 -4.093827182 -1.959454222
H 4.212242164 -1.024751329 -1.974569933
H -0.115722595 4.871467000 2.251411163

