11

O 0.216910947 2.689570281 -1.934276815
C -0.530105727 1.672891315 0.136615331
C -2.051797068 -0.844467129 -0.125270852
C 0.309953975 -2.366819780 -0.622693879
C 1.990187310 -0.579642384 -0.462346894
N 0.227457093 2.219460468 2.448523790
H -3.342751905 -0.796209004 -1.724638724
H -2.985892849 -1.375671807 1.626909837
H 0.602144354 -4.348196148 -1.015080958
H 3.869943674 0.176552747 -0.562357701
H 1.361216687 3.777930396 2.338806915

