15

C -3.460725391 -0.187469203 -0.361766013
C -1.002825762 1.301705621 -0.208626652
O -0.579115812 2.230221475 2.241876928
C 1.202626524 -0.356784488 -1.069315908
C 4.402248759 -0.305069959 0.413538783
N 2.281717873 -1.862141679 1.002894700
H -5.011742712 0.966029544 0.348626237
H -3.889025713 -0.734668051 -2.305935129
H -3.340735567 -1.897875342 0.789815342
H -1.124202815 2.959136576 -1.435078938
H -0.029552331 0.803330890 3.239751098
H 0.796271365 -1.536886875 -2.704352154
H 4.038457545 1.471811265 1.444277029
H 2.905114805 0.778965839 -1.888259395
H 2.605924824 -3.641986012 0.377524534

