13

C 3.673644575 -0.299314798 1.198302850
C 1.385419506 0.938228650 1.113970930
O 0.535294858 2.994349298 1.616932423
C -0.644289159 -0.894156533 -0.831145731
C -3.270557111 -0.266806369 -0.050280019
N -2.358304296 0.453806750 -2.518673995
H 1.763142045 -0.057198117 -1.201405591
H 3.749950317 -2.286432135 0.733512048
H 5.284357683 0.560002952 2.123275676
H -0.219165334 -2.846613098 -1.309818461
H -3.472963427 1.186055818 1.376593975
H -4.625610966 -1.801912781 -0.031763707
H -1.900834180 2.320918200 -2.488603067

