13

C 3.896260284 2.739485564 0.119668192
N 1.791912785 1.577301730 0.026932131
C 1.799449278 -1.297454512 0.041253458
C -0.713192088 -1.747526256 -0.077923915
H -1.549227694 -3.613787065 -0.109509251
C -2.227465990 0.563868027 -0.161029629
N -4.767984463 0.573357249 -0.294861772
H -5.719018445 -1.061986625 -0.262825018
H -5.762031616 2.183825430 -0.286952739
C -0.637049561 2.593451762 -0.093365680
H -0.987076785 4.598289779 -0.124238098
H 5.583847620 1.591772818 0.203575471
H 3.952356823 4.787378193 0.110720622

