9

O 2.670211133 0.499384714 -0.876065277
C 2.902732975 -0.373147834 1.393369678
C -0.029848432 0.897271066 0.569885407
C -2.001407276 -0.073803934 -1.131220823
O -1.706890171 -0.984852634 1.392677528
H 3.640307897 -2.351519159 1.383781397
H -0.066065770 2.748812855 1.413332480
H -3.677104115 1.069993337 -1.440079607
H -1.529200773 -1.412895330 -2.608276739

