11

C -3.701602052 0.461125016 0.364045647
C -1.409448961 -0.501090702 0.057653201
O -0.636533553 -2.057052794 -1.814289618
O 0.458968839 -0.071630258 1.756313350
C 2.839258643 0.377358144 0.894495568
N 4.579598913 0.634488056 2.472834795
H -4.067164431 1.718403422 1.924905720
H -1.982082936 -2.256137519 -3.014610941
H -5.226957516 -0.034686773 -0.899450411
H 2.983528140 0.488838285 -1.158316529
H 6.233328008 0.994410793 1.574323937

