16

C 4.249735332 -0.010675460 0.555032556
C 1.512960542 0.019872473 0.002694542
C -0.377151200 1.690488180 0.855197315
C -2.463737710 2.160968550 -0.962140186
N -2.586437703 0.080841614 -2.646883881
C -2.446973270 -2.095953826 -1.091262186
C -0.365352544 -1.715617720 0.750884471
H 4.928323001 1.810334913 1.238687469
H 5.252895311 -0.446428163 -1.198512402
H 4.727489201 -1.503472927 1.900971639
H -0.022295348 2.875310158 2.504129227
H -4.288604201 2.552556274 0.003670755
H -1.942171958 3.918403584 -1.932250272
H -1.910850768 -3.787387625 -2.165994994
H -4.267615259 -2.562782754 -0.151028518
H -0.003424070 -2.987139464 2.332439161

