14

O 1.927326100 3.080831612 0.527455348
C 2.140735252 0.973963182 -0.334612898
C 3.969667716 -0.888276933 -0.122428590
N -0.288793767 -2.018359442 0.442964975
C -2.112433920 -0.373038797 1.775478782
C -2.700550743 1.018054895 -0.708143231
C -0.388647084 -0.408553384 -1.638133828
H 3.765152030 -2.637685696 -1.144457145
H 5.820560611 -0.403472250 0.618762852
H -1.209979619 0.811820825 3.207774721
H -3.594608084 -1.504926466 2.652213646
H -2.575796939 3.069547699 -0.716109088
H -4.433762474 0.361633581 -1.600744557
H -0.024784231 -1.093831495 -3.540614810

