11

C -2.758279249 0.755006946 -1.057045236
C -0.625508701 -0.891272867 -1.491995165
O 1.851758673 0.115361978 -2.034363646
C 2.847081562 0.758617892 0.199548521
N 1.629939049 0.300128798 2.211348573
C -0.739851739 -0.785481671 1.436023216
H -2.058328396 2.711604072 -0.946048752
H -2.433959463 0.521911440 1.873979585
H -0.851243233 -2.686063044 -2.450782976
H 4.684064674 1.659450789 0.122631982
H -1.322392604 -2.516228255 2.372216668

