12

O 3.759398192 2.195681987 0.964763957
C 4.038726283 0.411832833 -0.401018422
C 1.911842478 -1.266384051 -1.329199530
C -0.254637798 -1.279271926 0.526267183
C -3.980249483 0.868185630 1.412556200
O -1.819207460 0.457291404 -0.171024372
H 5.940204992 -0.099971010 -1.116915048
H 2.647829689 -3.180005517 -1.557870658
H 1.377214863 -0.535595495 -3.199209877
H -4.010000367 -0.561704083 2.890975818
H -5.654212669 0.756244717 0.221077925
H -3.813514411 2.755558516 2.214366975

