14

C -3.191757761 -0.734796798 0.857212368
C -0.927129986 0.301734951 -0.613246646
C -1.188478636 3.020775946 -1.080280647
N -1.382932588 5.154663171 -1.408527077
C 1.533633768 -0.196037316 0.767232208
O 2.420555711 -2.707096962 0.626550488
C 3.856926031 -0.784355905 -0.583656786
H -3.359412581 0.195412175 2.689070486
H -4.944770156 -0.442234936 -0.181812837
H -2.928573903 -2.754600519 1.162673236
H -0.818900401 -0.632591584 -2.453640110
H 5.668520806 -0.366817346 0.281690135
H 1.664339453 0.662815278 2.632310427
H 3.841821073 -0.841491925 -2.635918443

