16

C -1.031563489 -1.961950852 0.798964149
C -2.571911719 0.265878967 -0.195597822
C -1.043971128 2.693940330 -0.003129141
O 1.294801526 2.496154167 -1.270735788
C 2.821618239 0.550484042 -0.270543113
C 1.552501776 -2.020873137 -0.483058179
H -2.038311246 -3.740031655 0.506316040
H -0.774002020 -1.753891212 2.844392784
H -3.062709422 -0.053586094 -2.179187380
H -4.340886177 0.471180060 0.851471456
H -0.712135693 3.161656408 1.999021610
H -2.035992514 4.280085675 -0.868491992
H 3.253979753 0.960995957 1.724940854
H 4.591726382 0.603941975 -1.325462256
H 2.766584142 -3.466126852 0.356671803
H 1.330271590 -2.487857759 -2.485573061

