13

C -2.872733252 0.503137710 -0.068939892
C -0.391708403 -0.354738292 0.656330796
O -0.030652756 -2.772063441 0.615667764
C 1.756972354 1.438863228 -0.140964706
O 1.472227590 3.713894966 -0.200890246
N 3.861200951 0.169603430 -0.745853963
H -3.175091265 2.462137830 -0.608521160
H -4.463440132 -0.578394163 0.629108970
H -2.668456333 -1.796971355 -2.596368176
H -1.128696281 0.510413420 2.578289072
H -1.674329755 -2.811990387 -1.856572996
H 3.823182534 -1.728267055 -0.604555437
H 5.415644685 1.104846180 -1.295473248

