12

O 4.078661959 -1.153578985 2.424371351
C 3.753372857 -0.044066316 0.444054383
C 1.304166385 0.641256677 -0.581918502
C -0.889567295 0.293491664 0.993139593
C -3.312208810 0.235054907 -0.298459470
O -2.187869387 -2.232689798 -0.497768129
H 5.394360454 0.474321881 -0.751229459
H -0.163637035 -1.548618578 -1.446474497
H 1.227735675 2.099122784 -2.023566015
H -0.763200477 -0.161971166 2.983609814
H -5.031805745 0.191265171 0.815375891
H -3.494522783 1.244287540 -2.078932383

