15

C -3.243553340 -1.467316419 -0.368163209
C -0.929573609 0.145488521 -0.791476242
N -0.829851590 2.536554433 0.640504075
C 1.871339656 2.145451649 1.174833642
C 1.568820261 -0.662646487 0.497026543
N 3.459831928 -1.615312607 -1.282483686
O 4.289604755 -3.646531880 -0.752750859
H -4.914411971 -0.550922931 -1.159770389
H -3.563685834 -1.752174510 1.648224530
H -3.031844337 -3.306977538 -1.280629487
H -0.583382360 0.408905194 -2.819669799
H -1.255151160 4.110225394 -0.353734356
H 2.438778094 2.565516885 3.110974048
H 3.161769112 3.083517178 -0.143715637
H 1.342663451 -1.955757502 2.086674912

