13

O 1.558753633 -4.324824412 0.711236486
C 0.542529637 -2.398533750 0.072881030
C -2.273268605 -2.168256921 -0.247123076
C -0.951282046 3.440104265 1.515240572
C 1.137605584 2.340599320 0.496362550
O 2.331129335 4.350563634 0.938181614
C 2.137652334 -0.068191315 -0.509615464
H -3.144212195 -4.022619637 -0.090530486
H -2.741181574 -1.315845327 -2.068097733
H -3.026724161 -0.933135384 1.230787299
H -2.143848595 4.591054868 0.296291898
H 4.066709007 -0.355334595 0.151927518
H 2.210900084 0.144998629 -2.570464850

