11

N 2.969551461 0.223768801 1.218824406
C 2.078260169 1.982938264 -0.101686333
O -1.331563653 -2.221985576 -1.958551311
C -1.992968099 -2.094356554 0.672667044
C -2.014722720 0.105244309 -0.984480320
O -0.271167006 2.086481347 -1.056033647
H 4.779793116 0.619835082 1.702171884
H 3.067486593 3.705791613 -0.656990235
H -0.427354458 -2.371004673 1.953081668
H -3.784069360 -2.977541904 1.149322604
H -3.782065306 0.879779761 -1.679387947

