11

N 2.944803400 1.610067634 1.921398407
C 1.980136991 1.531185344 -0.214908140
O 0.244936568 -2.282664134 -1.673789936
C -1.649113477 -2.091843256 -0.007594960
C -2.303948989 0.635322937 -0.175184887
O -0.625624957 2.328264794 -0.366529333
H 4.820861419 1.222293377 1.840209064
H 2.730055452 1.301114628 -2.100803052
H -1.245422661 -2.575027253 2.004514703
H -3.402818135 -3.130605657 -0.497676250
H -4.202684874 1.390845835 -0.470697783

