12

C -4.727501900 -0.054980372 -1.594087449
C -2.430212703 -0.098330028 0.153584373
C -0.482870813 1.825069334 -0.569689763
C 0.300143254 3.700864133 0.889329114
H 1.708252815 5.043747113 0.253328313
H -0.440295397 3.958750654 2.784861346
H 0.306033474 1.640483891 -2.461171557
H -3.018725121 0.224239211 2.107733321
H -1.570735593 -1.980511856 0.096237893
H -5.668479383 1.779571419 -1.524597173
H -4.179345075 -0.404126265 -3.553853778
H -6.097809549 -1.500224960 -1.058598157

