12

C 2.179596147 3.711194416 -0.341202241
C 2.375294238 1.384134246 -0.940188333
C 1.439737529 -1.210000444 -1.181100786
N 1.002522764 -2.740364419 1.070652512
C -1.183442573 -1.768586271 -0.317706369
C -2.689535057 0.238941866 0.730521746
C -3.907203480 1.932676670 1.606756513
H 4.399827132 1.926328570 -1.399215017
H 2.170297145 -2.261178836 -2.777827011
H 1.287741036 -1.681699101 2.643177278
H -2.230472034 -3.203753081 -1.337014738
H -4.984542693 3.442717888 2.385667701

