16

C -3.780905713 -1.027383925 1.229198190
C -1.826363986 -0.308877833 -0.708968834
C -2.314481604 -0.986498774 -3.427541139
C 4.431330529 0.892196301 1.301673269
O 5.382139558 1.973074498 3.508836363
C 0.228492890 0.888599906 -0.044901782
N 2.078293334 2.125736193 0.564068622
H -4.066904121 -3.074146971 1.251919426
H -3.236593271 -0.433883367 3.123581715
H -5.599206256 -0.154776865 0.776502789
H -4.063464593 -0.106491245 -4.090113265
H -2.535556903 -3.030517258 -3.640676092
H -0.783335660 -0.375608616 -4.660735400
H 5.746145464 1.112991693 -0.284988123
H 4.163231059 -1.118055838 1.692362788
H 5.419435004 3.772998513 3.275004335

