10

C 1.980017050 -1.817829623 2.772465877
H 0.284765759 -0.657863666 2.806280901
H 2.291137742 -2.972072791 4.441584221
O 2.491366754 -3.022567879 0.433483293
C 4.115063527 -1.035776426 1.213056622
C 4.067474044 1.332993212 -0.342199808
H 2.128093457 1.854611952 -0.806372480
H 5.106106299 1.064913527 -2.104157373
H 4.944589725 2.891904108 0.686946268
H 5.981791004 -1.685501476 1.785725973

