19

C -3.916081186 -2.094784331 -0.478074291
C -2.140169940 0.102097915 -0.628349149
C -2.735632393 2.428330290 0.593108459
C 0.964434653 -1.671401039 1.160458949
O 2.590676794 -2.487400974 -0.809122504
C 3.568834581 -0.742043652 0.979938515
C 4.225296751 1.849664611 0.022790305
H -5.484291803 -1.691501696 -1.762399988
H -3.025037600 -3.859544871 -1.049090774
H -4.697520110 -2.297525394 1.417417879
H -0.991472137 0.182704599 -2.327518938
H -4.261296979 2.483884496 1.948653605
H -1.900050832 4.169451281 -0.061997738
H -0.757068751 0.696142393 1.320716020
H 0.507516111 -3.125673698 2.556522791
H 4.964969155 -1.576313686 2.243271640
H 2.783329270 2.560219208 -1.265323499
H 6.021969643 1.804713809 -0.989007329
H 4.403808992 3.173587383 1.594791372

