11

N 3.504596006 -0.093349277 -0.129112363
C 0.961453610 0.047671573 0.359876476
C -0.710817042 1.938511578 -0.309976085
N -3.076032332 1.287564857 -0.723828922
C -1.761714130 -2.337949754 0.485029447
N -0.070124864 -2.146811175 2.007920765
H 4.521383424 -1.007635097 1.196425407
H 4.038380671 -0.548633660 -1.898135595
H -0.020068759 3.873753778 -0.424887741
H -4.311322621 2.694519096 -0.251687860
H -3.070769652 -3.675403211 -0.318842264

