15

C 3.991805611 1.492412794 -1.029857217
O 1.340553779 1.489728382 -0.714795369
C 0.216325434 -0.679720427 -1.661038593
H 0.736900082 -1.026267418 -3.646712274
C 0.449450591 -3.172886692 -0.153687344
O -2.030332992 -3.394742617 -0.056574356
C -2.634280504 -0.937357958 -1.194688333
C -3.849606139 0.835602405 0.658617988
H -4.086407890 2.682500419 -0.226878742
H -5.704346838 0.131103454 1.216903405
H -2.677302538 1.070160597 2.333899239
H -3.808527651 -1.224003541 -2.867481930
H 4.859099007 -0.137334164 -0.100870973
H 4.494506190 1.466454552 -3.041302340
H 4.698701586 3.226551285 -0.180047757

