13

C 3.510049472 -0.085413674 1.767979820
C 1.083898396 -1.088749927 0.836722956
C -1.331554903 -0.977591853 0.576975924
C -3.798916428 0.252073629 0.978517327
H -4.723287678 0.621028312 -0.830167515
H -3.600167355 2.034521759 1.993455081
H -5.050329048 -0.983430955 2.060631859
C -0.085145201 -3.240506554 -0.596729930
H 0.130450610 -3.344264650 -2.646857954
H -0.264629234 -5.090556385 0.300383117
H 4.809459190 0.238197408 0.196564020
H 3.255238424 1.688643826 2.785039283
H 4.413831136 -1.445233722 3.031767614

