16

C 3.294289350 -0.318916077 2.227147344
C 1.677147167 -0.228763914 -0.089321723
C 0.155996740 -2.334762391 -1.295101274
C -0.939603463 0.035744737 -0.319157111
C -3.211445835 0.620252749 1.205136081
O -0.836563444 2.195285919 -2.974803709
H 5.242936058 -0.798176133 1.752599244
H 3.329851047 1.512914376 3.179452961
H 2.629645554 -1.728498395 3.596724293
H 1.126015402 1.677694923 -2.234042520
H 0.291947077 -2.687393978 -3.311898309
H -0.359859941 -4.006969889 -0.196311817
H -4.943878640 0.502817571 0.097748673
H -3.087130618 2.476805752 2.095908945
H -3.316659568 -0.792586890 2.709915337
H -1.224850403 3.887741946 -2.411995516

