16

C -2.124398702 -1.643962159 2.694858642
C -0.896413565 0.549682496 1.333505120
C 3.013679930 1.735734950 0.481715132
C 1.848828880 1.348825753 -2.095314362
C 1.170197539 -1.325265630 -2.650179923
C -0.766700609 0.429298929 -1.518930508
H -2.069934660 -1.415153572 4.742509595
H -4.106042239 -1.772056734 2.117238643
H -1.214666537 -3.428822637 2.207287022
H -1.616995465 2.364059608 1.980108002
H 2.611087272 3.700615615 1.055943545
H 1.313819786 0.459921752 1.990948530
H 2.264895285 2.689328850 -3.585025169
H 2.022921373 -2.780674564 -1.485941635
H 0.835642297 -1.853275934 -4.597579752
H -2.448270718 0.856331434 -2.611765778

