9

N 0.198242853 -0.548056651 -0.738954743
H 0.088240402 0.816148865 -2.070579019
C -0.140065574 -0.336628329 1.726625507
C 0.394705282 -3.200878449 1.949184335
H 2.061053155 -3.647817593 3.074163166
H -1.206278741 -4.280987944 2.665313360
C 0.758825100 -3.232611977 -0.949613399
H -0.621204227 -4.305169068 -2.046343262
H 2.659830697 -3.648614982 -1.636027841

