15

C -1.348563875 -2.490992474 1.192413065
C -0.731431460 0.134114335 0.574251789
C -2.563951210 2.151899830 1.044590373
C 1.765856353 0.900766511 -0.424985384
O 2.658607723 2.842566382 0.795120748
N 3.457000155 -1.269667318 -0.815882999
H -3.101736878 -2.711187255 2.247011881
H 0.275696491 -3.341424108 2.149747753
H -1.464571743 -3.541515208 -0.586696731
H 0.973695861 1.288685824 -2.441741279
H -1.999363423 3.904885580 0.130403216
H -4.497838930 1.572407074 0.615510633
H -2.478063894 2.506203749 3.089173771
H 4.264535875 -1.166149614 -2.543873134
H 4.874748963 -1.040179317 0.454084917

