17

C 3.830350718 1.419751691 -0.055480035
C 1.686246727 -0.184780293 -0.280082299
C 0.104456709 -1.302875267 1.888272528
C -2.248727601 -0.722180627 0.307382360
O -4.320434673 -2.293060557 0.173643570
C -2.335680816 2.010927716 -0.374551466
C -0.659898807 0.236491061 -1.854848980
H 4.943513356 1.381369161 1.653902742
H 4.301651362 2.708684237 -1.565536994
H 3.686037399 -1.235617288 -1.122191976
H 2.337961243 -2.753628992 -1.538209116
H 0.296614001 -0.329316581 3.696550399
H 0.392593002 -3.323524830 2.117661299
H -5.586159795 -1.691339293 1.323704358
H -4.011739690 2.578343893 -1.403368030
H -1.517078615 3.444030227 0.839992579
H -0.838630483 -0.026344747 -3.869171683

