12

C 0.254389602 -2.366546601 -2.468746165
C -0.775358711 -1.040284159 -0.170825856
H -0.022141562 -1.713437184 1.613128480
C -3.475118187 -0.187733538 -0.109381770
H -4.608130622 -0.507392012 -1.784022480
H -4.510092953 -0.333506973 1.648187152
C -1.381774734 1.723288950 -0.275297456
H -1.112013231 2.684958972 -2.062278850
H -0.993510565 2.877498801 1.367522741
H 2.301888677 -2.141913742 -2.609488601
H -0.162811376 -4.387831660 -2.417837321
H -0.579381318 -1.596802040 -4.194097486

