16

O 4.003808660 1.852001314 -0.405498981
C 3.579600861 -0.782216130 -0.277028124
C 0.936311352 -1.541601061 -1.119196288
C -1.113156081 -0.487350182 0.560870657
C -3.756565814 -0.214518799 -0.405488040
C -2.194508770 2.100895536 0.074330487
H 2.711752529 2.672404066 0.567179810
H 3.927200467 -1.483274154 1.647959988
H 4.992119550 -1.644892528 -1.507538427
H 0.820216935 -3.607900209 -1.140500361
H 0.637999923 -0.899183110 -3.063140242
H -0.946466249 -1.020915128 2.536318387
H -4.109314942 -0.734021197 -2.353356918
H -5.303121737 -0.614327362 0.869888518
H -1.501584410 3.124799908 -1.557008244
H -2.684292276 3.280099037 1.672487612

