14

C -3.705708919 -0.227928428 0.495517673
C -1.330277449 1.388121285 0.443248321
C 0.819160937 0.232544198 -1.048676565
O 3.009084437 1.188278930 -0.954661481
C 5.028819146 -0.877723096 1.129200082
O 7.083802690 -0.382287249 1.466895992
H -3.378728549 -2.017021175 1.472432814
H -5.241422727 0.743949743 1.466134112
H -4.355541759 -0.664998346 -1.414949122
H -0.650286034 1.805414349 2.347761306
H -1.727682090 3.215195959 -0.442984590
H 0.993716659 -2.248733478 0.355238767
H 0.263627188 -0.753735652 -2.796121185
H 2.518960440 -2.333571844 1.055947759

