13

C -1.567803569 3.202011094 0.432884363
C -0.809912183 0.477888852 0.602525077
N -2.608371906 -1.285308562 0.419665616
O -1.801597443 -3.504069377 -0.046975606
C 1.696040894 -0.361657543 0.813056498
O 2.209776604 -2.244560150 -2.179431287
H -3.608910854 3.328964369 0.675757313
H -0.666898390 4.363420235 1.878930006
H -1.102858698 4.004099206 -1.413791910
H 0.565417546 -3.153978980 -1.568972327
H 2.017766918 -2.016404048 1.980865253
H 3.229411707 0.991302496 0.722605664
H 3.572887685 -3.423563964 -1.930624295

