9

C -2.160363818 -1.024065226 -1.676062955
C -0.517847905 -1.972254660 -0.028817586
C 2.122634265 -1.232173073 0.324555057
C 3.198549701 0.642549156 -0.904567298
O 4.129260737 2.291867743 -1.984897702
H 3.325666230 -2.219529934 1.648981479
H -1.132180426 -3.465909344 1.233553688
H -4.078817635 -1.724285724 -1.749633659
H -1.664531487 0.462111094 -2.998516314

