11

O -1.298875832 4.186397343 2.135991246
C -0.337903346 2.762924404 0.866399801
C -2.518583553 -0.870842849 -1.103894495
C -0.634004381 -2.056590642 0.152995194
C 1.922126707 -1.218943327 0.137453878
C 2.512837897 1.297559600 -0.038293467
O 4.144230807 2.797951385 -0.401454797
H -4.477760193 -1.361556706 -0.770530744
H -2.141900023 0.398050550 -2.662028789
H -1.100291392 -3.650345707 1.362312691
H 3.477838165 -2.475600561 0.563484337

