16

C 3.737595987 0.638645756 -1.193594767
C -0.548770854 -0.027807169 0.696431654
C 0.394016382 -1.944774867 2.531202577
C -3.191555409 1.159574141 0.644785646
N -3.203608139 0.636523518 -2.114616459
C -0.720582599 -0.156090603 -1.953792281
O 0.858471889 -0.574293797 -3.661474625
H 4.779022486 -0.611159538 -2.420072886
H 4.004718469 0.350332622 0.809215025
H 3.536784240 2.571815437 -1.809460763
H 1.607344010 -1.120955925 3.999494359
H 1.512223568 -3.389860340 1.566671075
H -1.160767390 -2.899375442 3.506048147
H -4.675049660 0.126533227 1.644782791
H -3.305850392 3.170506128 1.098919583
H -3.757276899 1.901866765 -3.432313094

