14

N -1.621676052 4.917744994 -1.191483320
C -0.609077722 3.575214996 0.176185781
C 0.717664163 1.892623604 1.921432611
C 2.580877827 0.133141807 0.588181640
C 1.364275247 -1.799741051 -1.111174948
C -1.059553848 -2.154846385 -1.318844001
C -3.488693111 -2.447869038 -1.529545213
H 1.714386110 3.067562258 3.292424209
H 3.914468192 1.257311759 -0.518869718
H 3.697186991 -0.837839803 2.031593912
H 2.624115233 -2.962081884 -2.239963354
H -0.697086538 0.800309502 2.953932743
H -4.556339767 -1.368732374 -2.904917612
H -4.508865671 -3.766709996 -0.340005912

