18

C 1.948647483 -0.627028627 -3.601672636
C 2.611348564 -0.646886209 -0.858465918
C 1.477483939 -0.432779011 3.502915341
N 0.970705124 -0.752526870 1.005651470
C -1.738861219 -0.948535235 0.406361793
C -2.962162198 1.661573669 0.327125123
O -3.005325678 2.857303241 2.684551150
H 1.113636846 -2.405142500 -4.256297916
H 3.674524148 -0.351159491 -4.689216313
H 0.653574328 0.895409137 -4.132976940
H 4.565610990 -0.482377084 -0.284883300
H 3.448120313 -0.275386424 4.015982786
H 0.160877260 -1.292555208 4.801037209
H -1.965367742 -1.909455376 -1.396470133
H -2.616080703 -2.086998735 1.879431558
H -1.989059881 2.825468802 -1.090971905
H -4.919247024 1.431797656 -0.289849972
H -1.357554115 2.583681160 3.455640988

