18

C 2.488529141 -0.277293196 -3.188729475
C 2.477684910 -1.448000186 -0.619842849
C 1.896130425 -0.062780670 2.920309791
N 0.539376345 -1.153153419 0.999979003
C -2.160613451 -1.233812089 0.587251990
C -3.333012219 1.365781245 0.183058752
O -3.202268645 2.885282167 2.359162591
H 0.689784995 -0.598344644 -4.160537330
H 4.001049509 -1.037056243 -4.360474681
H 2.739831875 1.776385605 -3.074711829
H 3.972918309 -2.717386199 -0.056375462
H 2.922140009 1.671274181 2.570384669
H 1.853907708 -0.857739564 4.815452399
H -2.524941631 -2.453340286 -1.039023410
H -3.027679815 -2.104732889 2.251074168
H -2.420967312 2.294419459 -1.435706044
H -5.334558559 1.141630833 -0.271127209
H -1.497141815 2.778694546 2.997342964

