12

N 5.212566118 2.310644969 -0.110585771
C 3.625723539 0.861183949 0.161462868
C 1.591266995 -0.997317097 0.454883912
O 0.081484216 -0.656998115 2.647975538
C -2.201772726 -0.478262678 1.105885132
C -2.610165785 1.843101101 -0.284898323
C -0.691311365 -0.731342586 -1.304650570
H 2.397055323 -2.898951142 0.391800886
H -3.702060859 -1.728324994 1.712630214
H -1.267540998 1.223964121 -2.395175007
H -1.236591876 3.277416930 0.307925316
H -1.179806343 -2.061174230 -2.780548084

