14

C 2.209388341 -1.474116674 -0.888520519
C 1.725156774 0.338285675 1.208210306
C 1.013584824 1.013483856 -1.465298475
C -1.843620379 1.010542251 -0.948507909
C -2.976021808 -1.405339128 1.771883692
C -1.056384702 0.421056549 2.027289702
H 1.139583957 -3.213633968 -1.052429996
H 4.169905647 -1.638687971 -1.446652925
H 3.222809174 1.146320642 2.335483737
H 1.889752411 2.381933526 -2.704375322
H -2.770826199 2.837029069 -0.979829610
H -2.965044332 -0.326098397 -2.047126743
H -2.181983022 -3.142909834 0.936400377
H -1.495174742 2.097640936 3.136272851

