12

C -0.846107241 2.821865226 -0.989514966
C -0.860734213 0.012143021 -1.170607459
C -2.208328866 -1.401012146 -2.719072534
H -3.464620456 -0.531455539 -4.074484814
H -2.086323461 -3.440244633 -2.662573238
O 0.625328743 -1.212166750 0.656292661
C 3.143897348 -1.102599390 0.415816867
O 4.280332171 -0.118488833 -1.263462421
H 4.010256047 -2.083492443 2.026000285
H 1.036708533 3.562221995 -1.383603592
H -1.386490489 3.411679363 0.913258546
H -2.173518448 3.629715397 -2.337262007

