13

C -2.428893390 -1.518149598 -0.054268323
C -0.382618480 0.379408988 -0.790985536
C 2.383735569 -0.726942359 0.098052824
C -0.084248602 2.694969531 0.701613982
O -0.176659800 1.061693944 -3.138636464
H -2.401997240 -2.002365480 1.951104939
H -4.264752570 -0.715904809 -0.530055781
H -2.158953421 -3.227595302 -1.176198402
H 2.392467918 -1.215439605 2.097976910
H 3.918884085 0.562393134 -0.360565508
H 2.551059290 -2.403248031 -1.076647101
H -0.374335508 4.466322984 -0.290263067
H 0.957303129 2.769068281 2.468307843

