8

C -4.123384275 -1.287689749 0.957677786
C -2.787722051 -3.434208640 -0.415839015
H -1.433346872 -2.716007285 -1.796726315
H -4.130079480 -4.629423678 -1.428758957
H -1.750852344 -4.639110697 0.899271813
H -5.160072739 -0.082802545 -0.357627060
H -2.781194276 -0.092377750 1.970717991
H -5.477940017 -2.005771882 2.338440270

