21

C 4.886279769 -2.334578426 -1.089133844
O 2.299096002 -2.095804859 -0.586740479
C 1.538922261 0.428798001 -0.270068508
C -1.289925541 0.569622546 0.284797242
C -1.991913480 3.357559100 0.580268450
C -2.775544184 -0.585720612 -1.909132629
C -1.877614379 -0.853626159 2.731202951
H 6.035848453 -1.595832970 0.473275558
H 5.420637436 -1.329245942 -2.824742674
H 5.292744703 -4.338569108 -1.328398192
H 1.969903500 1.517868067 -1.991785622
H 2.601993286 1.297714255 1.295503256
H -0.955289343 4.235769235 2.136510656
H -4.007374328 3.558207669 0.978451281
H -1.584547015 4.423755108 -1.141647746
H -2.280924112 -2.568250318 -2.174925387
H -2.385460813 0.411811895 -3.676015293
H -4.805815420 -0.466511208 -1.551008175
H -1.336895761 -2.836157395 2.577348895
H -3.896407418 -0.762755277 3.155936793
H -0.857713618 -0.034053640 4.330303465

