21

C 4.965512508 -2.343634749 -1.109491599
O 2.746666240 -1.804072134 0.230188711
C 1.832423695 0.648169522 -0.239623698
C -0.442111801 1.241160459 1.272345192
C -1.570919104 3.770006094 0.771219436
C -2.916956056 -0.697507437 -1.211504439
C -2.649824144 -1.557826269 2.108018405
H 6.516582156 -1.080725300 -0.555185511
H 4.681657881 -2.166580772 -3.158325142
H 5.496402037 -4.284246984 -0.673877640
H 1.646380120 0.916863406 -2.319809800
H 3.209545999 2.077776910 0.408918611
H -0.366582434 5.134774276 1.754602864
H -3.453496829 3.949689323 1.596343819
H -1.688603820 4.360812224 -1.231697145
H -2.344506385 -2.512225947 -1.980368520
H -2.136493592 0.776177472 -2.407189036
H -4.959725619 -0.482606006 -1.232179063
H -1.034017279 -2.581587097 2.833061551
H -4.048621323 -3.015321838 1.581644282
H -3.543673917 -0.434323692 3.570919289

