11

N 4.354726248 0.336274950 -0.083655322
C 1.974198678 0.216739171 -0.035545956
C 0.680335836 -2.226867457 -0.078839638
N -1.725216244 -2.275133273 -0.029551972
C -3.387120672 -0.092022878 0.072681116
C -2.142184294 2.097641333 0.110802674
O 0.454716539 2.290769207 0.056285323
H 4.970284672 2.156516468 -0.044645158
H 1.800300184 -3.939596957 -0.150514078
H -3.898095926 -2.647149123 0.011363906
H -2.989444778 3.953624224 0.186608452

