11

C -2.375411439 -0.535934606 0.066167872
C 0.361215461 0.242399573 0.090611234
C 2.128227230 -0.929831444 1.925980955
O 2.046693164 -1.401151438 -1.365795040
C 0.750125670 2.842974506 -0.766914526
N 1.012652036 4.923662747 -1.315154783
H -3.208524394 -0.328673470 -1.809227684
H -2.527670093 -2.484137720 0.722098046
H -3.423687174 0.657453274 1.378939446
H 3.815705511 0.277203396 1.989268412
H 1.291496149 -3.059195949 -1.428044357

