11

C -2.486294124 -0.494955177 0.029046168
C 0.274476899 0.181798154 -0.081752746
C 2.144611175 -1.071003774 1.588629239
O 1.803198249 -1.400671674 -1.685357592
C 0.743211106 2.828170675 -0.723869494
N 1.031226078 4.933679184 -1.146182937
H -3.408153021 -0.089828642 -1.768965860
H -2.671955709 -2.496377684 0.471922515
H -3.411689946 0.599487040 1.509967518
H 3.850591102 0.081944610 1.771302393
H 2.034062026 -2.935830924 -0.310793448

