27

C     4.00026  -0.90946  -0.87708
O     2.97131  -0.57527   0.06728
C     1.81923  -1.23628  -0.06034
O     1.67246  -2.19783  -0.78932
C     0.71136  -0.58311   0.68742
N    -0.39560  -1.40489   0.89193
C    -1.52385  -0.58652   1.23763
C    -2.83346  -1.36219   1.24134
C    -1.44932   0.80956   0.20678
C    -1.93011   1.92609   1.14186
O    -3.18005   2.11593   1.23224
O    -1.06383   2.50862   1.86162
C    -0.07224   0.87958  -0.32357
C     0.21406   0.40075  -1.73384
O    -0.59342  -0.43792  -2.24091
O     1.28952   0.78621  -2.28936
H     4.31658  -1.95533  -0.77079
H     3.62160  -0.74450  -1.90071
H     4.83505  -0.23632  -0.67288
H     1.03331  -0.03184   1.60924
H    -0.55825  -2.03441   0.10312
H    -1.30283  -0.13829   2.24198
H    -3.62626  -0.64074   1.32564
H    -2.98690  -2.12289   2.07809
H    -2.94592  -1.93738   0.29725
H    -2.22610   0.59471  -0.59096
H     0.55498   1.76958  -0.03448
27

C     3.99935  -0.90941  -0.87740
O     2.97236  -0.57606   0.06821
C     1.81901  -1.23978  -0.05684
O     1.67257  -2.19934  -0.79099
C     0.71924  -0.59712   0.69980
N    -0.39673  -1.40164   0.88953
C    -1.52091  -0.60627   1.25188
C    -2.83373  -1.36784   1.24310
C    -1.44999   0.83210   0.19062
C    -1.93040   1.92968   1.14054
O    -3.18059   2.11507   1.23405
O    -1.06400   2.50808   1.86317
C    -0.08094   0.89775  -0.33602
C     0.21323   0.40268  -1.73613
O    -0.59270  -0.43851  -2.24048
O     1.29063   0.78502  -2.28934
H     4.31661  -1.95530  -0.77130
H     3.62130  -0.74443  -1.90081
H     4.83492  -0.23634  -0.67324
H     1.03297  -0.03116   1.60925
H    -0.55767  -2.03583   0.10421
H    -1.30241  -0.13761   2.24105
H    -3.62438  -0.64028   1.32426
H    -2.99107  -2.12358   2.07854
H    -2.94511  -1.93923   0.29783
H    -2.22635   0.59426  -0.59050
H     0.55533   1.77011  -0.03491
27

C     3.99844  -0.90936  -0.87771
O     2.97341  -0.57685   0.06913
C     1.81878  -1.24329  -0.05334
O     1.67267  -2.20084  -0.79265
C     0.72712  -0.61114   0.71218
N    -0.39785  -1.39839   0.88712
C    -1.51797  -0.62602   1.26613
C    -2.83400  -1.37350   1.24486
C    -1.45066   0.85464   0.17446
C    -1.93068   1.93327   1.13922
O    -3.18113   2.11421   1.23586
O    -1.06417   2.50755   1.86471
C    -0.08964   0.91592  -0.34846
C     0.21239   0.40461  -1.73842
O    -0.59198  -0.43910  -2.24005
O     1.29174   0.78384  -2.28931
H     4.31664  -1.95528  -0.77180
H     3.62099  -0.74436  -1.90091
H     4.83480  -0.23636  -0.67359
H     1.03263  -0.03048   1.60926
H    -0.55710  -2.03726   0.10530
H    -1.30198  -0.13693   2.24013
H    -3.62250  -0.63982   1.32288
H    -2.99524  -2.12426   2.07899
H    -2.94430  -1.94107   0.29841
H    -2.22660   0.59380  -0.59005
H     0.55567   1.77064  -0.03533
27

C     3.99753  -0.90931  -0.87802
O     2.97446  -0.57764   0.07006
C     1.81855  -1.24679  -0.04983
O     1.67277  -2.20234  -0.79432
C     0.73501  -0.62515   0.72455
N    -0.39897  -1.39513   0.88472
C    -1.51503  -0.64577   1.28038
C    -2.83428  -1.37915   1.24663
C    -1.45133   0.87718   0.15830
C    -1.93097   1.93686   1.13791
O    -3.18168   2.11335   1.23767
O    -1.06434   2.50702   1.86626
C    -0.09834   0.93408  -0.36091
C     0.21156   0.40654  -1.74071
O    -0.59126  -0.43969  -2.23962
O     1.29286   0.78266  -2.28929
H     4.31666  -1.95526  -0.77231
H     3.62069  -0.74428  -1.90100
H     4.83467  -0.23639  -0.67394
H     1.03228  -0.02979   1.60928
H    -0.55652  -2.03869   0.10640
H    -1.30156  -0.13625   2.23920
H    -3.62062  -0.63936   1.32151
H    -2.99941  -2.12495   2.07945
H    -2.94350  -1.94292   0.29899
H    -2.22686   0.59334  -0.58960
H     0.55602   1.77117  -0.03575
27

C     3.99662  -0.90926  -0.87834
O     2.97551  -0.57843   0.07099
C     1.81832  -1.25030  -0.04633
O     1.67287  -2.20384  -0.79598
C     0.74289  -0.63917   0.73693
N    -0.40009  -1.39188   0.88232
C    -1.51209  -0.66552   1.29463
C    -2.83455  -1.38481   1.24839
C    -1.45200   0.89973   0.14214
C    -1.93126   1.94045   1.13659
O    -3.18222   2.11249   1.23948
O    -1.06452   2.50649   1.86780
C    -0.10704   0.95225  -0.37335
C     0.21072   0.40847  -1.74300
O    -0.59054  -0.44028  -2.23919
O     1.29397   0.78148  -2.28927
H     4.31669  -1.95524  -0.77281
H     3.62038  -0.74421  -1.90110
H     4.83454  -0.23641  -0.67430
H     1.03194  -0.02911   1.60929
H    -0.55595  -2.04011   0.10749
H    -1.30114  -0.13557   2.23828
H    -3.61874  -0.63891   1.32013
H    -3.00357  -2.12564   2.07990
H    -2.94269  -1.94477   0.29956
H    -2.22711   0.59289  -0.58915
H     0.55637   1.77170  -0.03617
27

C     3.99571  -0.90921  -0.87865
O     2.97656  -0.57922   0.07192
C     1.81809  -1.25380  -0.04283
O     1.67297  -2.20534  -0.79765
C     0.75078  -0.65318   0.74931
N    -0.40122  -1.38862   0.87992
C    -1.50915  -0.68527   1.30887
C    -2.83482  -1.39047   1.25015
C    -1.45267   0.92227   0.12599
C    -1.93155   1.94404   1.13527
O    -3.18276   2.11163   1.24128
O    -1.06469   2.50596   1.86935
C    -0.11574   0.97042  -0.38580
C     0.20989   0.41040  -1.74529
O    -0.58982  -0.44086  -2.23876
O     1.29508   0.78030  -2.28925
H     4.31671  -1.95522  -0.77332
H     3.62007  -0.74413  -1.90120
H     4.83441  -0.23643  -0.67465
H     1.03160  -0.02842   1.60930
H    -0.55537  -2.04154   0.10858
H    -1.30071  -0.13489   2.23735
H    -3.61686  -0.63845   1.31876
H    -3.00774  -2.12632   2.08035
H    -2.94189  -1.94661   0.30014
H    -2.22736   0.59243  -0.58870
H     0.55671   1.77223  -0.03660
27

C     3.99480  -0.90917  -0.87896
O     2.97761  -0.58001   0.07285
C     1.81786  -1.25731  -0.03933
O     1.67308  -2.20684  -0.79931
C     0.75866  -0.66719   0.76169
N    -0.40234  -1.38537   0.87752
C    -1.50621  -0.70502   1.32312
C    -2.83509  -1.39612   1.25191
C    -1.45334   0.94481   0.10983
C    -1.93184   1.94763   1.13395
O    -3.18330   2.11077   1.24309
O    -1.06486   2.50543   1.87089
C    -0.12444   0.98859  -0.39824
C     0.20905   0.41234  -1.74758
O    -0.58909  -0.44145  -2.23833
O     1.29619   0.77912  -2.28922
H     4.31674  -1.95520  -0.77382
H     3.61977  -0.74406  -1.90129
H     4.83429  -0.23646  -0.67500
H     1.03125  -0.02774   1.60931
H    -0.55480  -2.04297   0.10967
H    -1.30029  -0.13421   2.23643
H    -3.61498  -0.63799   1.31738
H    -3.01191  -2.12701   2.08080
H    -2.94108  -1.94846   0.30072
H    -2.22762   0.59197  -0.58824
H     0.55706   1.77276  -0.03702
27

C     3.99389  -0.90912  -0.87928
O     2.97867  -0.58080   0.07377
C     1.81763  -1.26081  -0.03582
O     1.67318  -2.20834  -0.80098
C     0.76655  -0.68121   0.77406
N    -0.40346  -1.38211   0.87512
C    -1.50327  -0.72477   1.33737
C    -2.83537  -1.40178   1.25368
C    -1.45400   0.96735   0.09367
C    -1.93212   1.95122   1.13264
O    -3.18384   2.10991   1.24490
O    -1.06503   2.50490   1.87244
C    -0.13314   1.00676  -0.41069
C     0.20821   0.41427  -1.74987
O    -0.58837  -0.44204  -2.23790
O     1.29730   0.77794  -2.28920
H     4.31676  -1.95518  -0.77433
H     3.61946  -0.74399  -1.90139
H     4.83416  -0.23648  -0.67535
H     1.03091  -0.02706   1.60932
H    -0.55422  -2.04439   0.11076
H    -1.29987  -0.13353   2.23550
H    -3.61310  -0.63753   1.31601
H    -3.01608  -2.12769   2.08126
H    -2.94028  -1.95030   0.30130
H    -2.22787   0.59152  -0.58779
H     0.55741   1.77330  -0.03744
27

C     3.99298  -0.90907  -0.87959
O     2.97972  -0.58159   0.07470
C     1.81740  -1.26432  -0.03232
O     1.67328  -2.20984  -0.80264
C     0.77443  -0.69522   0.78644
N    -0.40458  -1.37886   0.87271
C    -1.50033  -0.74451   1.35162
C    -2.83564  -1.40744   1.25544
C    -1.45467   0.98989   0.07751
C    -1.93241   1.95481   1.13132
O    -3.18438   2.10905   1.24671
O    -1.06521   2.50437   1.87398
C    -0.14184   1.02493  -0.42313
C     0.20738   0.41620  -1.75216
O    -0.58765  -0.44263  -2.23747
O     1.29841   0.77676  -2.28918
H     4.31679  -1.95516  -0.77484
H     3.61916  -0.74391  -1.90149
H     4.83403  -0.23650  -0.67571
H     1.03057  -0.02637   1.60933
H    -0.55364  -2.04582   0.11186
H    -1.29945  -0.13285   2.23458
H    -3.61122  -0.63708   1.31463
H    -3.02024  -2.12838   2.08171
H    -2.93947  -1.95215   0.30188
H    -2.22812   0.59106  -0.58734
H     0.55775   1.77383  -0.03787
27

C     3.99207  -0.90902  -0.87990
O     2.98077  -0.58238   0.07563
C     1.81718  -1.26783  -0.02882
O     1.67338  -2.21134  -0.80431
C     0.78231  -0.70924   0.79882
N    -0.40571  -1.37561   0.87031
C    -1.49740  -0.76426   1.36587
C    -2.83591  -1.41309   1.25720
C    -1.45534   1.01243   0.06135
C    -1.93270   1.95840   1.13000
O    -3.18493   2.10819   1.24852
O    -1.06538   2.50384   1.87553
C    -0.15054   1.04309  -0.43557
C     0.20654   0.41813  -1.75445
O    -0.58693  -0.44322  -2.23704
O     1.29953   0.77558  -2.28916
H     4.31681  -1.95514  -0.77534
H     3.61885  -0.74384  -1.90158
H     4.83390  -0.23653  -0.67606
H     1.03022  -0.02569   1.60934
H    -0.55307  -2.04725   0.11295
H    -1.29902  -0.13217   2.23365
H    -3.60934  -0.63662   1.31326
H    -3.02441  -2.12906   2.08216
H    -2.93867  -1.95399   0.30246
H    -2.22837   0.59060  -0.58689
H     0.55810   1.77436  -0.03829
27

C     3.99116  -0.90897  -0.88022
O     2.98182  -0.58317   0.07656
C     1.81695  -1.27133  -0.02532
O     1.67349  -2.21285  -0.80597
C     0.79020  -0.72325   0.81119
N    -0.40683  -1.37235   0.86791
C    -1.49446  -0.78401   1.38012
C    -2.83618  -1.41875   1.25896
C    -1.45601   1.03497   0.04519
C    -1.93299   1.96199   1.12868
O    -3.18547   2.10732   1.25033
O    -1.06555   2.50331   1.87707
C    -0.15924   1.06126  -0.44802
C     0.20571   0.42006  -1.75673
O    -0.58621  -0.44381  -2.23661
O     1.30064   0.77440  -2.28913
H     4.31684  -1.95512  -0.77585
H     3.61855  -0.74377  -1.90168
H     4.83378  -0.23655  -0.67641
H     1.02988  -0.02501   1.60935
H    -0.55249  -2.04867   0.11404
H    -1.29860  -0.13149   2.23273
H    -3.60746  -0.63616   1.31188
H    -3.02858  -2.12975   2.08261
H    -2.93786  -1.95584   0.30304
H    -2.22863   0.59015  -0.58644
H     0.55845   1.77489  -0.03871
27

C     3.99025  -0.90892  -0.88053
O     2.98287  -0.58396   0.07749
C     1.81672  -1.27484  -0.02181
O     1.67359  -2.21435  -0.80764
C     0.79808  -0.73727   0.82357
N    -0.40795  -1.36910   0.86551
C    -1.49152  -0.80376   1.39437
C    -2.83646  -1.42441   1.26073
C    -1.45668   1.05751   0.02903
C    -1.93327   1.96558   1.12736
O    -3.18601   2.10646   1.25214
O    -1.06572   2.50278   1.87861
C    -0.16794   1.07943  -0.46046
C     0.20487   0.42199  -1.75902
O    -0.58549  -0.44440  -2.23618
O     1.30175   0.77321  -2.28911
H     4.31686  -1.95510  -0.77635
H     3.61824  -0.74369  -1.90178
H     4.83365  -0.23657  -0.67677
H     1.02954  -0.02432   1.60937
H    -0.55192  -2.05010   0.11513
H    -1.29818  -0.13081   2.23180
H    -3.60558  -0.63570   1.31051
H    -3.03274  -2.13044   2.08306
H    -2.93705  -1.95769   0.30361
H    -2.22888   0.58969  -0.58598
H     0.55880   1.77542  -0.03913
27

C     3.98934  -0.90887  -0.88084
O     2.98392  -0.58475   0.07841
C     1.81649  -1.27834  -0.01831
O     1.67369  -2.21585  -0.80930
C     0.80597  -0.75128   0.83595
N    -0.40907  -1.36584   0.86311
C    -1.48858  -0.82351   1.40862
C    -2.83673  -1.43006   1.26249
C    -1.45735   1.08005   0.01288
C    -1.93356   1.96917   1.12605
O    -3.18655   2.10560   1.25395
O    -1.06590   2.50225   1.88016
C    -0.17663   1.09760  -0.47291
C     0.20403   0.42393  -1.76131
O    -0.58477  -0.44498  -2.23575
O     1.30286   0.77203  -2.28909
H     4.31689  -1.95508  -0.77686
H     3.61794  -0.74362  -1.90187
H     4.83352  -0.23660  -0.67712
H     1.02919  -0.02364   1.60938
H    -0.55134  -2.05153   0.11622
H    -1.29775  -0.13013   2.23088
H    -3.60370  -0.63525   1.30913
H    -3.03691  -2.13112   2.08352
H    -2.93625  -1.95953   0.30419
H    -2.22913   0.58924  -0.58553
H     0.55914   1.77595  -0.03956
27

C     3.98843  -0.90882  -0.88116
O     2.98497  -0.58554   0.07934
C     1.81626  -1.28185  -0.01481
O     1.67379  -2.21735  -0.81097
C     0.81385  -0.76530   0.84833
N    -0.41019  -1.36259   0.86071
C    -1.48564  -0.84326   1.42286
C    -2.83700  -1.43572   1.26425
C    -1.45802   1.10259  -0.00328
C    -1.93385   1.97277   1.12473
O    -3.18709   2.10474   1.25576
O    -1.06607   2.50172   1.88170
C    -0.18533   1.11577  -0.48535
C     0.20320   0.42586  -1.76360
O    -0.58405  -0.44557  -2.23532
O     1.30397   0.77085  -2.28906
H     4.31691  -1.95506  -0.77736
H     3.61763  -0.74354  -1.90197
H     4.83339  -0.23662  -0.67747
H     1.02885  -0.02295   1.60939
H    -0.55077  -2.05295   0.11732
H    -1.29733  -0.12945   2.22995
H    -3.60182  -0.63479   1.30776
H    -3.04108  -2.13181   2.08397
H    -2.93544  -1.96138   0.30477
H    -2.22938   0.58878  -0.58508
H     0.55949   1.77648  -0.03998
27

C     3.98752  -0.90877  -0.88147
O     2.98602  -0.58633   0.08027
C     1.81603  -1.28535  -0.01131
O     1.67389  -2.21885  -0.81263
C     0.82173  -0.77931   0.86070
N    -0.41132  -1.35933   0.85831
C    -1.48270  -0.86301   1.43711
C    -2.83727  -1.44137   1.26601
C    -1.45868   1.12513  -0.01944
C    -1.93414   1.97636   1.12341
O    -3.18764   2.10388   1.25757
O    -1.06624   2.50119   1.88325
C    -0.19403   1.13394  -0.49780
C     0.20236   0.42779  -1.76589
O    -0.58333  -0.44616  -2.23489
O     1.30509   0.76967  -2.28904
H     4.31694  -1.95504  -0.77787
H     3.61732  -0.74347  -1.90206
H     4.83327  -0.23664  -0.67783
H     1.02851  -0.02227   1.60940
H    -0.55019  -2.05438   0.11841
H    -1.29691  -0.12877   2.22903
H    -3.59994  -0.63433   1.30638
H    -3.04525  -2.13249   2.08442
H    -2.93464  -1.96322   0.30535
H    -2.22964   0.58832  -0.58463
H     0.55984   1.77702  -0.04040
27

C     3.98661  -0.90872  -0.88178
O     2.98707  -0.58712   0.08120
C     1.81580  -1.28886  -0.00780
O     1.67400  -2.22035  -0.81430
C     0.82962  -0.79333   0.87308
N    -0.41244  -1.35608   0.85590
C    -1.47976  -0.88276   1.45136
C    -2.83754  -1.44703   1.26778
C    -1.45935   1.14767  -0.03560
C    -1.93443   1.97995   1.12209
O    -3.18818   2.10302   1.25937
O    -1.06641   2.50066   1.88479
C    -0.20273   1.15210  -0.51024
C     0.20153   0.42972  -1.76818
O    -0.58261  -0.44675  -2.23446
O     1.30620   0.76849  -2.28902
H     4.31696  -1.95502  -0.77837
H     3.61702  -0.74340  -1.90216
H     4.83314  -0.23667  -0.67818
H     1.02816  -0.02159   1.60941
H    -0.54961  -2.05581   0.11950
H    -1.29648  -0.12809   2.22810
H    -3.59806  -0.63387   1.30500
H    -3.04941  -2.13318   2.08487
H    -2.93383  -1.96507   0.30593
H    -2.22989   0.58787  -0.58418
H     0.56018   1.77755  -0.04082
27

C     3.98570  -0.90867  -0.88210
O     2.98812  -0.58791   0.08213
C     1.81557  -1.29237  -0.00430
O     1.67410  -2.22185  -0.81596
C     0.83750  -0.80734   0.88546
N    -0.41356  -1.35282   0.85350
C    -1.47682  -0.90250   1.46561
C    -2.83782  -1.45269   1.26954
C    -1.46002   1.17021  -0.05176
C    -1.93471   1.98354   1.12077
O    -3.18872   2.10216   1.26118
O    -1.06659   2.50013   1.88634
C    -0.21143   1.17027  -0.52269
C     0.20069   0.43165  -1.77047
O    -0.58188  -0.44734  -2.23403
O     1.30731   0.76731  -2.28900
H     4.31699  -1.95500  -0.77888
H     3.61671  -0.74332  -1.90226
H     4.83301  -0.23669  -0.67853
H     1.02782  -0.02090   1.60942
H    -0.54904  -2.05723   0.12059
H    -1.29606  -0.12741   2.22718
H    -3.59618  -0.63342   1.30363
H    -3.05358  -2.13387   2.08533
H    -2.93303  -1.96691   0.30651
H    -2.23014   0.58741  -0.58372
H     0.56053   1.77808  -0.04125
27

C     3.98479  -0.90863  -0.88241
O     2.98918  -0.58870   0.08305
C     1.81534  -1.29587  -0.00080
O     1.67420  -2.22335  -0.81763
C     0.84539  -0.82135   0.89783
N    -0.41468  -1.34957   0.85110
C    -1.47388  -0.92225   1.47986
C    -2.83809  -1.45834   1.27130
C    -1.46069   1.19275  -0.06792
C    -1.93500   1.98713   1.11946
O    -3.18926   2.10130   1.26299
O    -1.06676   2.49960   1.88788
C    -0.22013   1.18844  -0.53513
C     0.19985   0.43359  -1.77276
O    -0.58116  -0.44793  -2.23360
O     1.30842   0.76613  -2.28897
H     4.31701  -1.95498  -0.77939
H     3.61641  -0.74325  -1.90235
H     4.83288  -0.23671  -0.67888
H     1.02748  -0.02022   1.60943
H    -0.54846  -2.05866   0.12169
H    -1.29564  -0.12673   2.22626
H    -3.59430  -0.63296   1.30225
H    -3.05775  -2.13455   2.08578
H    -2.93222  -1.96876   0.30709
H    -2.23039   0.58695  -0.58327
H     0.56088   1.77861  -0.04167
27

C     3.98388  -0.90858  -0.88272
O     2.99023  -0.58949   0.08398
C     1.81512  -1.29938   0.00270
O     1.67430  -2.22485  -0.81929
C     0.85327  -0.83537   0.91021
N    -0.41581  -1.34632   0.84870
C    -1.47094  -0.94200   1.49411
C    -2.83836  -1.46400   1.27306
C    -1.46136   1.21529  -0.08408
C    -1.93529   1.99072   1.11814
O    -3.18980   2.10044   1.26480
O    -1.06693   2.49907   1.88943
C    -0.22883   1.20661  -0.54758
C     0.19902   0.43552  -1.77505
O    -0.58044  -0.44852  -2.23317
O     1.30953   0.76495  -2.28895
H     4.31704  -1.95496  -0.77989
H     3.61610  -0.74318  -1.90245
H     4.83276  -0.23674  -0.67924
H     1.02713  -0.01954   1.60944
H    -0.54789  -2.06008   0.12278
H    -1.29522  -0.12604   2.22533
H    -3.59242  -0.63250   1.30088
H    -3.06192  -2.13524   2.08623
H    -2.93141  -1.97061   0.30766
H    -2.23065   0.58650  -0.58282
H     0.56122   1.77914  -0.04209
27

C     3.98297  -0.90853  -0.88304
O     2.99128  -0.59028   0.08491
C     1.81489  -1.30288   0.00621
O     1.67441  -2.22636  -0.82096
C     0.86115  -0.84938   0.92259
N    -0.41693  -1.34306   0.84630
C    -1.46800  -0.96175   1.50836
C    -2.83863  -1.46966   1.27483
C    -1.46203   1.23783  -0.10023
C    -1.93558   1.99431   1.11682
O    -3.19035   2.09958   1.26661
O    -1.06710   2.49854   1.89097
C    -0.23753   1.22478  -0.56002
C     0.19818   0.43745  -1.77734
O    -0.57972  -0.44910  -2.23274
O     1.31064   0.76377  -2.28893
H     4.31706  -1.95494  -0.78040
H     3.61580  -0.74310  -1.90255
H     4.83263  -0.23676  -0.67959
H     1.02679  -0.01885   1.60946
H    -0.54731  -2.06151   0.12387
H    -1.29479  -0.12536   2.22441
H    -3.59054  -0.63204   1.29950
H    -3.06608  -2.13592   2.08668
H    -2.93061  -1.97245   0.30824
H    -2.23090   0.58604  -0.58237
H     0.56157   1.77967  -0.04252
27

C     3.98206  -0.90848  -0.88335
O     2.99233  -0.59107   0.08584
C     1.81466  -1.30639   0.00971
O     1.67451  -2.22786  -0.82262
C     0.86904  -0.86340   0.93497
N    -0.41805  -1.33981   0.84390
C    -1.46507  -0.98150   1.52261
C    -2.83891  -1.47531   1.27659
C    -1.46270   1.26037  -0.11639
C    -1.93586   1.99790   1.11550
O    -3.19089   2.09871   1.26842
O    -1.06728   2.49801   1.89252
C    -0.24623   1.24295  -0.57247
C     0.19735   0.43938  -1.77963
O    -0.57900  -0.44969  -2.23231
O     1.31176   0.76258  -2.28891
H     4.31709  -1.95492  -0.78090
H     3.61549  -0.74303  -1.90264
H     4.83250  -0.23678  -0.67994
H     1.02645  -0.01817   1.60947
H    -0.54674  -2.06294   0.12496
H    -1.29437  -0.12468   2.22348
H    -3.58866  -0.63158   1.29813
H    -3.07025  -2.13661   2.08713
H    -2.92980  -1.97430   0.30882
H    -2.23115   0.58558  -0.58191
H     0.56192   1.78020  -0.04294
27

C     3.98297  -0.90853  -0.88304
O     2.99128  -0.59028   0.08491
C     1.81489  -1.30288   0.00621
O     1.67441  -2.22636  -0.82096
C     0.86115  -0.84938   0.92259
N    -0.41693  -1.34306   0.84630
C    -1.46800  -0.96175   1.50836
C    -2.83863  -1.46966   1.27483
C    -1.46203   1.23783  -0.10023
C    -1.93558   1.99431   1.11682
O    -3.19035   2.09958   1.26661
O    -1.06710   2.49854   1.89097
C    -0.23753   1.22478  -0.56002
C     0.19818   0.43745  -1.77734
O    -0.57972  -0.44910  -2.23274
O     1.31064   0.76377  -2.28893
H     4.31706  -1.95494  -0.78040
H     3.61580  -0.74310  -1.90255
H     4.83263  -0.23676  -0.67959
H     1.02679  -0.01885   1.60946
H    -0.54731  -2.06151   0.12387
H    -1.29479  -0.12536   2.22441
H    -3.59054  -0.63204   1.29950
H    -3.06608  -2.13592   2.08668
H    -2.93061  -1.97245   0.30824
H    -2.23090   0.58604  -0.58237
H     0.56157   1.77967  -0.04252
27

C     3.98388  -0.90858  -0.88272
O     2.99023  -0.58949   0.08398
C     1.81512  -1.29938   0.00270
O     1.67430  -2.22485  -0.81929
C     0.85327  -0.83537   0.91021
N    -0.41581  -1.34632   0.84870
C    -1.47094  -0.94200   1.49411
C    -2.83836  -1.46400   1.27306
C    -1.46136   1.21529  -0.08408
C    -1.93529   1.99072   1.11814
O    -3.18980   2.10044   1.26480
O    -1.06693   2.49907   1.88943
C    -0.22883   1.20661  -0.54758
C     0.19902   0.43552  -1.77505
O    -0.58044  -0.44852  -2.23317
O     1.30953   0.76495  -2.28895
H     4.31704  -1.95496  -0.77989
H     3.61610  -0.74318  -1.90245
H     4.83276  -0.23674  -0.67924
H     1.02713  -0.01954   1.60944
H    -0.54789  -2.06008   0.12278
H    -1.29522  -0.12604   2.22533
H    -3.59242  -0.63250   1.30088
H    -3.06192  -2.13524   2.08623
H    -2.93141  -1.97061   0.30766
H    -2.23065   0.58650  -0.58282
H     0.56122   1.77914  -0.04209
27

C     3.98479  -0.90863  -0.88241
O     2.98918  -0.58870   0.08305
C     1.81534  -1.29587  -0.00080
O     1.67420  -2.22335  -0.81763
C     0.84539  -0.82135   0.89783
N    -0.41468  -1.34957   0.85110
C    -1.47388  -0.92225   1.47986
C    -2.83809  -1.45834   1.27130
C    -1.46069   1.19275  -0.06792
C    -1.93500   1.98713   1.11946
O    -3.18926   2.10130   1.26299
O    -1.06676   2.49960   1.88788
C    -0.22013   1.18844  -0.53513
C     0.19985   0.43359  -1.77276
O    -0.58116  -0.44793  -2.23360
O     1.30842   0.76613  -2.28897
H     4.31701  -1.95498  -0.77939
H     3.61641  -0.74325  -1.90235
H     4.83288  -0.23671  -0.67888
H     1.02748  -0.02022   1.60943
H    -0.54846  -2.05866   0.12169
H    -1.29564  -0.12673   2.22626
H    -3.59430  -0.63296   1.30225
H    -3.05775  -2.13455   2.08578
H    -2.93222  -1.96876   0.30709
H    -2.23039   0.58695  -0.58327
H     0.56088   1.77861  -0.04167
27

C     3.98570  -0.90867  -0.88210
O     2.98812  -0.58791   0.08213
C     1.81557  -1.29237  -0.00430
O     1.67410  -2.22185  -0.81596
C     0.83750  -0.80734   0.88546
N    -0.41356  -1.35282   0.85350
C    -1.47682  -0.90250   1.46561
C    -2.83782  -1.45269   1.26954
C    -1.46002   1.17021  -0.05176
C    -1.93471   1.98354   1.12077
O    -3.18872   2.10216   1.26118
O    -1.06659   2.50013   1.88634
C    -0.21143   1.17027  -0.52269
C     0.20069   0.43165  -1.77047
O    -0.58188  -0.44734  -2.23403
O     1.30731   0.76731  -2.28900
H     4.31699  -1.95500  -0.77888
H     3.61671  -0.74332  -1.90226
H     4.83301  -0.23669  -0.67853
H     1.02782  -0.02090   1.60942
H    -0.54904  -2.05723   0.12059
H    -1.29606  -0.12741   2.22718
H    -3.59618  -0.63342   1.30363
H    -3.05358  -2.13387   2.08533
H    -2.93303  -1.96691   0.30651
H    -2.23014   0.58741  -0.58372
H     0.56053   1.77808  -0.04125
27

C     3.98661  -0.90872  -0.88178
O     2.98707  -0.58712   0.08120
C     1.81580  -1.28886  -0.00780
O     1.67400  -2.22035  -0.81430
C     0.82962  -0.79333   0.87308
N    -0.41244  -1.35608   0.85590
C    -1.47976  -0.88276   1.45136
C    -2.83754  -1.44703   1.26778
C    -1.45935   1.14767  -0.03560
C    -1.93443   1.97995   1.12209
O    -3.18818   2.10302   1.25937
O    -1.06641   2.50066   1.88479
C    -0.20273   1.15210  -0.51024
C     0.20153   0.42972  -1.76818
O    -0.58261  -0.44675  -2.23446
O     1.30620   0.76849  -2.28902
H     4.31696  -1.95502  -0.77837
H     3.61702  -0.74340  -1.90216
H     4.83314  -0.23667  -0.67818
H     1.02816  -0.02159   1.60941
H    -0.54961  -2.05581   0.11950
H    -1.29648  -0.12809   2.22810
H    -3.59806  -0.63387   1.30500
H    -3.04941  -2.13318   2.08487
H    -2.93383  -1.96507   0.30593
H    -2.22989   0.58787  -0.58418
H     0.56018   1.77755  -0.04082
27

C     3.98752  -0.90877  -0.88147
O     2.98602  -0.58633   0.08027
C     1.81603  -1.28535  -0.01131
O     1.67389  -2.21885  -0.81263
C     0.82173  -0.77931   0.86070
N    -0.41132  -1.35933   0.85831
C    -1.48270  -0.86301   1.43711
C    -2.83727  -1.44137   1.26601
C    -1.45868   1.12513  -0.01944
C    -1.93414   1.97636   1.12341
O    -3.18764   2.10388   1.25757
O    -1.06624   2.50119   1.88325
C    -0.19403   1.13394  -0.49780
C     0.20236   0.42779  -1.76589
O    -0.58333  -0.44616  -2.23489
O     1.30509   0.76967  -2.28904
H     4.31694  -1.95504  -0.77787
H     3.61732  -0.74347  -1.90206
H     4.83327  -0.23664  -0.67783
H     1.02851  -0.02227   1.60940
H    -0.55019  -2.05438   0.11841
H    -1.29691  -0.12877   2.22903
H    -3.59994  -0.63433   1.30638
H    -3.04525  -2.13249   2.08442
H    -2.93464  -1.96322   0.30535
H    -2.22964   0.58832  -0.58463
H     0.55984   1.77702  -0.04040
27

C     3.98843  -0.90882  -0.88116
O     2.98497  -0.58554   0.07934
C     1.81626  -1.28185  -0.01481
O     1.67379  -2.21735  -0.81097
C     0.81385  -0.76530   0.84833
N    -0.41019  -1.36259   0.86071
C    -1.48564  -0.84326   1.42286
C    -2.83700  -1.43572   1.26425
C    -1.45802   1.10259  -0.00328
C    -1.93385   1.97277   1.12473
O    -3.18709   2.10474   1.25576
O    -1.06607   2.50172   1.88170
C    -0.18533   1.11577  -0.48535
C     0.20320   0.42586  -1.76360
O    -0.58405  -0.44557  -2.23532
O     1.30397   0.77085  -2.28906
H     4.31691  -1.95506  -0.77736
H     3.61763  -0.74354  -1.90197
H     4.83339  -0.23662  -0.67747
H     1.02885  -0.02295   1.60939
H    -0.55077  -2.05295   0.11732
H    -1.29733  -0.12945   2.22995
H    -3.60182  -0.63479   1.30776
H    -3.04108  -2.13181   2.08397
H    -2.93544  -1.96138   0.30477
H    -2.22938   0.58878  -0.58508
H     0.55949   1.77648  -0.03998
27

C     3.98934  -0.90887  -0.88084
O     2.98392  -0.58475   0.07841
C     1.81649  -1.27834  -0.01831
O     1.67369  -2.21585  -0.80930
C     0.80597  -0.75128   0.83595
N    -0.40907  -1.36584   0.86311
C    -1.48858  -0.82351   1.40862
C    -2.83673  -1.43006   1.26249
C    -1.45735   1.08005   0.01288
C    -1.93356   1.96917   1.12605
O    -3.18655   2.10560   1.25395
O    -1.06590   2.50225   1.88016
C    -0.17663   1.09760  -0.47291
C     0.20403   0.42393  -1.76131
O    -0.58477  -0.44498  -2.23575
O     1.30286   0.77203  -2.28909
H     4.31689  -1.95508  -0.77686
H     3.61794  -0.74362  -1.90187
H     4.83352  -0.23660  -0.67712
H     1.02919  -0.02364   1.60938
H    -0.55134  -2.05153   0.11622
H    -1.29775  -0.13013   2.23088
H    -3.60370  -0.63525   1.30913
H    -3.03691  -2.13112   2.08352
H    -2.93625  -1.95953   0.30419
H    -2.22913   0.58924  -0.58553
H     0.55914   1.77595  -0.03956
27

C     3.99025  -0.90892  -0.88053
O     2.98287  -0.58396   0.07749
C     1.81672  -1.27484  -0.02181
O     1.67359  -2.21435  -0.80764
C     0.79808  -0.73727   0.82357
N    -0.40795  -1.36910   0.86551
C    -1.49152  -0.80376   1.39437
C    -2.83646  -1.42441   1.26073
C    -1.45668   1.05751   0.02903
C    -1.93327   1.96558   1.12736
O    -3.18601   2.10646   1.25214
O    -1.06572   2.50278   1.87861
C    -0.16794   1.07943  -0.46046
C     0.20487   0.42199  -1.75902
O    -0.58549  -0.44440  -2.23618
O     1.30175   0.77321  -2.28911
H     4.31686  -1.95510  -0.77635
H     3.61824  -0.74369  -1.90178
H     4.83365  -0.23657  -0.67677
H     1.02954  -0.02432   1.60937
H    -0.55192  -2.05010   0.11513
H    -1.29818  -0.13081   2.23180
H    -3.60558  -0.63570   1.31051
H    -3.03274  -2.13044   2.08306
H    -2.93705  -1.95769   0.30361
H    -2.22888   0.58969  -0.58598
H     0.55880   1.77542  -0.03913
27

C     3.99116  -0.90897  -0.88022
O     2.98182  -0.58317   0.07656
C     1.81695  -1.27133  -0.02532
O     1.67349  -2.21285  -0.80597
C     0.79020  -0.72325   0.81119
N    -0.40683  -1.37235   0.86791
C    -1.49446  -0.78401   1.38012
C    -2.83618  -1.41875   1.25896
C    -1.45601   1.03497   0.04519
C    -1.93299   1.96199   1.12868
O    -3.18547   2.10732   1.25033
O    -1.06555   2.50331   1.87707
C    -0.15924   1.06126  -0.44802
C     0.20571   0.42006  -1.75673
O    -0.58621  -0.44381  -2.23661
O     1.30064   0.77440  -2.28913
H     4.31684  -1.95512  -0.77585
H     3.61855  -0.74377  -1.90168
H     4.83378  -0.23655  -0.67641
H     1.02988  -0.02501   1.60935
H    -0.55249  -2.04867   0.11404
H    -1.29860  -0.13149   2.23273
H    -3.60746  -0.63616   1.31188
H    -3.02858  -2.12975   2.08261
H    -2.93786  -1.95584   0.30304
H    -2.22863   0.59015  -0.58644
H     0.55845   1.77489  -0.03871
27

C     3.99207  -0.90902  -0.87990
O     2.98077  -0.58238   0.07563
C     1.81718  -1.26783  -0.02882
O     1.67338  -2.21134  -0.80431
C     0.78231  -0.70924   0.79882
N    -0.40571  -1.37561   0.87031
C    -1.49740  -0.76426   1.36587
C    -2.83591  -1.41309   1.25720
C    -1.45534   1.01243   0.06135
C    -1.93270   1.95840   1.13000
O    -3.18493   2.10819   1.24852
O    -1.06538   2.50384   1.87553
C    -0.15054   1.04309  -0.43557
C     0.20654   0.41813  -1.75445
O    -0.58693  -0.44322  -2.23704
O     1.29953   0.77558  -2.28916
H     4.31681  -1.95514  -0.77534
H     3.61885  -0.74384  -1.90158
H     4.83390  -0.23653  -0.67606
H     1.03022  -0.02569   1.60934
H    -0.55307  -2.04725   0.11295
H    -1.29902  -0.13217   2.23365
H    -3.60934  -0.63662   1.31326
H    -3.02441  -2.12906   2.08216
H    -2.93867  -1.95399   0.30246
H    -2.22837   0.59060  -0.58689
H     0.55810   1.77436  -0.03829
27

C     3.99298  -0.90907  -0.87959
O     2.97972  -0.58159   0.07470
C     1.81740  -1.26432  -0.03232
O     1.67328  -2.20984  -0.80264
C     0.77443  -0.69522   0.78644
N    -0.40458  -1.37886   0.87271
C    -1.50033  -0.74451   1.35162
C    -2.83564  -1.40744   1.25544
C    -1.45467   0.98989   0.07751
C    -1.93241   1.95481   1.13132
O    -3.18438   2.10905   1.24671
O    -1.06521   2.50437   1.87398
C    -0.14184   1.02493  -0.42313
C     0.20738   0.41620  -1.75216
O    -0.58765  -0.44263  -2.23747
O     1.29841   0.77676  -2.28918
H     4.31679  -1.95516  -0.77484
H     3.61916  -0.74391  -1.90149
H     4.83403  -0.23650  -0.67571
H     1.03057  -0.02637   1.60933
H    -0.55364  -2.04582   0.11186
H    -1.29945  -0.13285   2.23458
H    -3.61122  -0.63708   1.31463
H    -3.02024  -2.12838   2.08171
H    -2.93947  -1.95215   0.30188
H    -2.22812   0.59106  -0.58734
H     0.55775   1.77383  -0.03787
27

C     3.99389  -0.90912  -0.87928
O     2.97867  -0.58080   0.07377
C     1.81763  -1.26081  -0.03582
O     1.67318  -2.20834  -0.80098
C     0.76655  -0.68121   0.77406
N    -0.40346  -1.38211   0.87512
C    -1.50327  -0.72477   1.33737
C    -2.83537  -1.40178   1.25368
C    -1.45400   0.96735   0.09367
C    -1.93212   1.95122   1.13264
O    -3.18384   2.10991   1.24490
O    -1.06503   2.50490   1.87244
C    -0.13314   1.00676  -0.41069
C     0.20821   0.41427  -1.74987
O    -0.58837  -0.44204  -2.23790
O     1.29730   0.77794  -2.28920
H     4.31676  -1.95518  -0.77433
H     3.61946  -0.74399  -1.90139
H     4.83416  -0.23648  -0.67535
H     1.03091  -0.02706   1.60932
H    -0.55422  -2.04439   0.11076
H    -1.29987  -0.13353   2.23550
H    -3.61310  -0.63753   1.31601
H    -3.01608  -2.12769   2.08126
H    -2.94028  -1.95030   0.30130
H    -2.22787   0.59152  -0.58779
H     0.55741   1.77330  -0.03744
27

C     3.99480  -0.90917  -0.87896
O     2.97761  -0.58001   0.07285
C     1.81786  -1.25731  -0.03933
O     1.67308  -2.20684  -0.79931
C     0.75866  -0.66719   0.76169
N    -0.40234  -1.38537   0.87752
C    -1.50621  -0.70502   1.32312
C    -2.83509  -1.39612   1.25191
C    -1.45334   0.94481   0.10983
C    -1.93184   1.94763   1.13395
O    -3.18330   2.11077   1.24309
O    -1.06486   2.50543   1.87089
C    -0.12444   0.98859  -0.39824
C     0.20905   0.41234  -1.74758
O    -0.58909  -0.44145  -2.23833
O     1.29619   0.77912  -2.28922
H     4.31674  -1.95520  -0.77382
H     3.61977  -0.74406  -1.90129
H     4.83429  -0.23646  -0.67500
H     1.03125  -0.02774   1.60931
H    -0.55480  -2.04297   0.10967
H    -1.30029  -0.13421   2.23643
H    -3.61498  -0.63799   1.31738
H    -3.01191  -2.12701   2.08080
H    -2.94108  -1.94846   0.30072
H    -2.22762   0.59197  -0.58824
H     0.55706   1.77276  -0.03702
27

C     3.99571  -0.90921  -0.87865
O     2.97656  -0.57922   0.07192
C     1.81809  -1.25380  -0.04283
O     1.67297  -2.20534  -0.79765
C     0.75078  -0.65318   0.74931
N    -0.40122  -1.38862   0.87992
C    -1.50915  -0.68527   1.30887
C    -2.83482  -1.39047   1.25015
C    -1.45267   0.92227   0.12599
C    -1.93155   1.94404   1.13527
O    -3.18276   2.11163   1.24128
O    -1.06469   2.50596   1.86935
C    -0.11574   0.97042  -0.38580
C     0.20989   0.41040  -1.74529
O    -0.58982  -0.44086  -2.23876
O     1.29508   0.78030  -2.28925
H     4.31671  -1.95522  -0.77332
H     3.62007  -0.74413  -1.90120
H     4.83441  -0.23643  -0.67465
H     1.03160  -0.02842   1.60930
H    -0.55537  -2.04154   0.10858
H    -1.30071  -0.13489   2.23735
H    -3.61686  -0.63845   1.31876
H    -3.00774  -2.12632   2.08035
H    -2.94189  -1.94661   0.30014
H    -2.22736   0.59243  -0.58870
H     0.55671   1.77223  -0.03660
27

C     3.99662  -0.90926  -0.87834
O     2.97551  -0.57843   0.07099
C     1.81832  -1.25030  -0.04633
O     1.67287  -2.20384  -0.79598
C     0.74289  -0.63917   0.73693
N    -0.40009  -1.39188   0.88232
C    -1.51209  -0.66552   1.29463
C    -2.83455  -1.38481   1.24839
C    -1.45200   0.89973   0.14214
C    -1.93126   1.94045   1.13659
O    -3.18222   2.11249   1.23948
O    -1.06452   2.50649   1.86780
C    -0.10704   0.95225  -0.37335
C     0.21072   0.40847  -1.74300
O    -0.59054  -0.44028  -2.23919
O     1.29397   0.78148  -2.28927
H     4.31669  -1.95524  -0.77281
H     3.62038  -0.74421  -1.90110
H     4.83454  -0.23641  -0.67430
H     1.03194  -0.02911   1.60929
H    -0.55595  -2.04011   0.10749
H    -1.30114  -0.13557   2.23828
H    -3.61874  -0.63891   1.32013
H    -3.00357  -2.12564   2.07990
H    -2.94269  -1.94477   0.29956
H    -2.22711   0.59289  -0.58915
H     0.55637   1.77170  -0.03617
27

C     3.99753  -0.90931  -0.87802
O     2.97446  -0.57764   0.07006
C     1.81855  -1.24679  -0.04983
O     1.67277  -2.20234  -0.79432
C     0.73501  -0.62515   0.72455
N    -0.39897  -1.39513   0.88472
C    -1.51503  -0.64577   1.28038
C    -2.83428  -1.37915   1.24663
C    -1.45133   0.87718   0.15830
C    -1.93097   1.93686   1.13791
O    -3.18168   2.11335   1.23767
O    -1.06434   2.50702   1.86626
C    -0.09834   0.93408  -0.36091
C     0.21156   0.40654  -1.74071
O    -0.59126  -0.43969  -2.23962
O     1.29286   0.78266  -2.28929
H     4.31666  -1.95526  -0.77231
H     3.62069  -0.74428  -1.90100
H     4.83467  -0.23639  -0.67394
H     1.03228  -0.02979   1.60928
H    -0.55652  -2.03869   0.10640
H    -1.30156  -0.13625   2.23920
H    -3.62062  -0.63936   1.32151
H    -2.99941  -2.12495   2.07945
H    -2.94350  -1.94292   0.29899
H    -2.22686   0.59334  -0.58960
H     0.55602   1.77117  -0.03575
27

C     3.99844  -0.90936  -0.87771
O     2.97341  -0.57685   0.06913
C     1.81878  -1.24329  -0.05334
O     1.67267  -2.20084  -0.79265
C     0.72712  -0.61114   0.71218
N    -0.39785  -1.39839   0.88712
C    -1.51797  -0.62602   1.26613
C    -2.83400  -1.37350   1.24486
C    -1.45066   0.85464   0.17446
C    -1.93068   1.93327   1.13922
O    -3.18113   2.11421   1.23586
O    -1.06417   2.50755   1.86471
C    -0.08964   0.91592  -0.34846
C     0.21239   0.40461  -1.73842
O    -0.59198  -0.43910  -2.24005
O     1.29174   0.78384  -2.28931
H     4.31664  -1.95528  -0.77180
H     3.62099  -0.74436  -1.90091
H     4.83480  -0.23636  -0.67359
H     1.03263  -0.03048   1.60926
H    -0.55710  -2.03726   0.10530
H    -1.30198  -0.13693   2.24013
H    -3.62250  -0.63982   1.32288
H    -2.99524  -2.12426   2.07899
H    -2.94430  -1.94107   0.29841
H    -2.22660   0.59380  -0.59005
H     0.55567   1.77064  -0.03533
27

C     3.99935  -0.90941  -0.87740
O     2.97236  -0.57606   0.06821
C     1.81901  -1.23978  -0.05684
O     1.67257  -2.19934  -0.79099
C     0.71924  -0.59712   0.69980
N    -0.39673  -1.40164   0.88953
C    -1.52091  -0.60627   1.25188
C    -2.83373  -1.36784   1.24310
C    -1.44999   0.83210   0.19062
C    -1.93040   1.92968   1.14054
O    -3.18059   2.11507   1.23405
O    -1.06400   2.50808   1.86317
C    -0.08094   0.89775  -0.33602
C     0.21323   0.40268  -1.73613
O    -0.59270  -0.43851  -2.24048
O     1.29063   0.78502  -2.28934
H     4.31661  -1.95530  -0.77130
H     3.62130  -0.74443  -1.90081
H     4.83492  -0.23634  -0.67324
H     1.03297  -0.03116   1.60925
H    -0.55767  -2.03583   0.10421
H    -1.30241  -0.13761   2.24105
H    -3.62438  -0.64028   1.32426
H    -2.99107  -2.12358   2.07854
H    -2.94511  -1.93923   0.29783
H    -2.22635   0.59426  -0.59050
H     0.55533   1.77011  -0.03491
