17

C 4.389031145 1.116307822 -2.041654322
C 2.528945639 -0.120077223 -0.268253464
C -1.324801873 -1.291300147 4.820274829
O -1.794590357 0.297180636 3.046487730
C -1.870329522 -0.416695250 0.347893232
C -4.356790225 0.454514584 -0.711754422
O 0.065564464 0.764493050 -0.883148273
H 3.970995569 0.626178704 -3.999208028
H 6.305186167 0.495997304 -1.601924918
H 4.309395819 3.166611402 -1.850990197
H 2.576365520 -2.186004133 -0.457753461
H 2.967142363 0.350488147 1.699406950
H -1.081829599 -3.201616992 3.900606314
H -1.647020359 -2.487069422 0.342850101
H -4.512514788 2.497816521 -0.511490073
H -4.458110594 -0.033394673 -2.709542551
H -5.916899359 -0.446036933 0.284868144

