17

C 4.212715257 1.071482479 -1.425517642
C 2.132352144 -0.558713213 -0.365913282
C 0.609786974 -0.574101461 3.523548674
O -1.569919023 0.418395625 2.636703700
C -2.216694986 -0.561009136 0.234128941
C -4.606630425 0.611829276 -0.739071963
O -0.176015856 0.129813035 -1.327629394
H 4.329991131 0.817904534 -3.470116139
H 6.025416315 0.545343666 -0.599813755
H 3.843635739 3.059932262 -1.032158620
H 2.511204834 -2.583509535 -0.499835961
H 2.349796277 0.124671676 2.047774068
H 0.574325677 -2.653201255 3.287374936
H -2.324445487 -2.635224328 0.373254773
H -4.387501544 2.657175783 -0.823415769
H -5.031446829 -0.103454531 -2.622292611
H -6.164794766 0.147961908 0.523657754

