14

C -1.792282794 -1.791480303 0.325062959
C -0.039267829 0.316225957 -0.285654686
N -0.873549409 2.710866153 0.032822729
O -2.791399043 3.147324517 1.760090931
C 2.372432380 0.009018038 -1.365061656
C 3.982507970 -1.650723448 0.352109626
O 2.963111124 -2.498224721 -1.998394485
H -3.465099124 -1.647555624 -0.883099764
H -0.861459924 -3.580832301 -0.051498514
H -2.437113472 -1.693830557 2.278421718
H -4.221363513 3.667167009 0.764819954
H 3.272126188 1.538609644 -2.393146216
H 0.426730621 4.105985547 0.088933856
H 2.894970774 -2.559959900 1.900086680

