10

N -3.211282279 -0.201357556 -0.022660481
C -0.619427657 0.074587377 0.033461210
C 0.862359283 2.142981947 0.776864766
N 3.328324564 1.152050065 0.538472848
N 3.391387427 -1.192247412 -0.307824065
N 0.970406396 -1.841442639 -0.429004869
H -3.928326045 -1.019861681 -1.585315491
H -4.089852918 1.438454632 0.383605257
H 2.903952926 3.017925389 -0.572506060
H 0.548587437 -3.669178245 -0.765392522

