15

C -2.957191991 1.127331445 0.555556426
C -1.537943194 -0.387243471 -1.393555986
N 0.861439383 0.594787877 -2.347562564
C 1.696099627 -1.675039347 -1.090382178
C 2.717771269 -1.043801185 1.504386874
O 2.588344853 1.484829890 2.334629051
H -4.564955917 0.045175642 1.260610673
H -1.751628190 1.643073043 2.137110190
H -3.677016035 2.855872435 -0.311414261
H -2.707009978 -1.094314850 -2.933516897
H 0.932280926 0.354365374 -4.241628123
H -0.880122803 -2.434949434 -0.645398787
H 4.704107544 -1.638878758 1.337928024
H 1.875769647 -2.266169868 2.940933411
H 2.457049346 2.492064970 0.817705319

