14

O 4.050515131 0.155285712 0.033576899
C 1.524292191 0.098545192 0.720622189
C -0.166328535 2.233650232 -0.150985130
N -2.673619273 1.446891956 -0.337683967
C -2.613105197 -1.276157544 -0.789615315
C 0.069606323 -2.157923672 -0.321703631
O 1.054015627 -4.143841013 -0.803020881
H 4.499191256 -1.541693318 -0.467893940
H 1.274307616 0.089143200 2.790807256
H 0.140803871 4.143644917 0.536546291
H 0.935315939 2.676572178 -2.632640675
H -0.945516435 2.318788403 -2.397625604
H -3.134894447 -1.813852978 -2.730589678
H -3.929829813 -2.276394722 0.452175254

