12

O -3.606053342 -0.020674908 2.280706605
C -2.748520439 -0.907592277 0.384630509
C -0.644411348 0.347190669 -1.143060222
C 1.285673430 1.631328376 0.576817262
N 2.755390160 -0.219848186 1.859217403
C 3.937627277 -1.806717391 2.819691229
O 0.442712262 -1.327546303 -2.877982344
H -3.461031470 -2.699283644 -0.433944537
H -1.559599285 1.830218214 -2.260358204
H 2.551448347 2.809700870 -0.541243168
H 0.306277626 2.794098233 1.966776570
H 1.500426953 -2.509170638 -1.986569127

