12

O -4.568836904 1.035293638 1.285612808
C -3.234064232 -0.405914305 0.162608117
C -0.733306786 0.387029724 -0.988685036
C 1.079566822 1.694481190 0.889156809
N 3.125058479 -0.131885044 1.238060080
C 2.710694717 -1.903743659 -0.287918956
O 0.630979440 -1.816008929 -1.783803215
H -3.749599376 -2.416071882 -0.126118262
H -1.144642905 1.539807636 -2.651091394
H 1.847790211 3.453498870 0.138880527
H 0.151350414 2.121810533 2.678064533
H 3.885010102 -3.558297790 -0.554765991

