15

C 4.525866063 -0.995433418 0.517502331
C 1.983889987 -0.584132581 -0.767269530
C -0.026127410 0.184605304 1.040097511
N -2.299210104 1.046451696 0.527662424
C -4.328962666 1.194354740 -0.839629997
H -4.614163705 -0.166745446 -2.333732169
H -5.762075345 2.546026893 -0.318615610
C -0.800678943 2.608159236 2.211466794
H -0.299477012 4.437974523 1.383613003
H -1.351843343 2.667495937 4.188842007
H 2.172441512 0.865368123 -2.254592139
H 1.389093473 -2.317385546 -1.721272291
H 5.142767383 0.716413429 1.490761589
H 4.401453751 -2.504498082 1.916709297
H 5.976946899 -1.498241277 -0.858540354

