14

C -0.622970610 -1.544679671 -0.117624170
C 0.204056463 0.377564464 -1.963061029
H 0.455713767 -0.214956479 -3.914187681
H -0.453508475 2.331283386 -1.791616854
C 2.344389789 0.011691830 0.005175582
C 4.784829784 -1.371781050 -0.274705651
H 5.234447465 -2.090529386 -2.135729122
H 5.345076303 -2.582713620 1.275050335
C 4.812609382 1.419191557 0.125336444
H 5.253023076 2.637586486 -1.456444390
H 5.367488322 2.145487611 1.954337146
C 0.341252866 -0.207918534 2.133507881
H -0.304313199 1.710668867 2.558961974
H 0.712993875 -1.321377916 3.819695006

