17

O -0.100953157 -2.234279416 2.180668850
C 2.123717531 -2.352037398 0.669558841
C 1.760179011 -0.442278173 -1.498821838
C -0.951217399 0.546063217 -1.116200694
C -2.091817197 -1.530793944 0.532358791
O 0.451854606 3.195758708 2.433526394
C -1.014309741 3.109987233 0.205703189
H 0.203093459 1.635973549 3.339273694
H 2.359934298 -4.277853663 -0.055104319
H 3.723005941 -1.907118975 1.888290122
H 1.962174067 -1.363754571 -3.330030307
H 3.130404439 1.090610703 -1.395428969
H -1.967646638 0.716073013 -2.904925285
H -2.694843562 -3.155812506 -0.610877327
H -3.686552614 -0.912085857 1.685183851
H -2.988272487 3.617924942 0.609277201
H -0.248542071 4.560283644 -1.049764991

