17

O 0.640695863 -2.212553783 2.483606140
C 2.587117079 -1.642709969 0.749468027
C 1.461528641 -0.750153638 -1.775465781
C -1.029572115 0.635383805 -1.291349620
C -2.659861821 -0.938233979 0.364990567
O -1.169331610 1.923813345 2.851395504
C -0.852936485 2.953942890 0.437203843
H 0.081322115 -0.418827673 3.120472038
H 3.743871975 -3.328202923 0.472710946
H 3.793068765 -0.161980199 1.547513466
H 1.091067242 -2.373096770 -3.002150654
H 2.785232129 0.474129734 -2.778278202
H -1.983706249 0.924660851 -3.115672153
H -2.735714937 -2.969242378 0.125644167
H -4.330245658 -0.099300100 1.184402629
H -2.386094590 4.286220444 -0.009837045
H 0.933766231 3.992809018 0.218031460

