13

C 4.493632059 0.270566413 -0.765812419
O 2.362089002 -0.870767884 0.433416132
C 0.208944164 -0.494481234 -0.715773435
C -1.908943468 -1.999284981 -0.007570092
N -4.095404895 -1.276355550 0.750378950
C -3.134953199 2.993214858 0.714641243
N -0.976842709 2.887531981 0.397658168
H 4.433279177 -0.092661624 -2.792271340
H 6.172830297 -0.559055651 0.083986931
H 4.447246199 2.301958899 -0.415619882
H -1.538916044 -3.960119534 -0.570972642
H -5.396961851 -2.679009188 0.620135208
H -5.070443388 3.461712980 1.022706097

