12

C -2.626346678 1.241433732 1.181092339
C -0.963925618 -1.075989249 0.830823363
N 1.109194307 -0.635804118 -0.931071331
C 3.462777652 -0.172657662 -0.224498746
O 4.024360434 -0.134740175 2.189860459
H -4.161160599 0.832368687 2.496692720
H -3.462650474 1.845139000 -0.606645569
H -1.524710349 2.809908646 1.938325118
H -2.065161457 -2.677664780 0.138101903
H -0.115416270 -1.633340140 2.622361151
H 0.747426915 -0.604489523 -2.794740929
H 5.598923780 0.237290075 0.570245418

