16

C -3.047533296 0.497906910 1.454176114
C -3.372806620 -0.158453044 -1.299089957
C -0.803767474 -0.070341370 -0.154895975
C 1.091987728 -2.319059031 0.353048556
C 3.114444965 -0.244714506 0.437102686
C 1.493288380 1.522001294 -0.757018900
H -3.617446501 -0.893165768 2.842535258
H -3.347321395 2.439975784 2.020388649
H -3.902628037 1.334831159 -2.594727365
H -4.156865157 -1.994744460 -1.750865969
H 1.180000248 -3.533884569 -1.308957086
H 0.784973562 -3.455031022 2.047946052
H 5.076232091 1.489759052 -0.514503165
H 3.964702347 0.122956655 2.257219104
H 1.745578950 2.154298686 -2.683377573
H 3.885493569 3.179742164 -0.319636799

