16

C 5.631701760 1.501061504 3.632764035
C 3.264475764 0.835042800 2.730731011
C 1.242397001 0.773457741 1.404115114
C -0.169958056 -1.171985730 -0.002060746
C -2.903475827 -0.519131634 -0.488218076
C -3.676888309 0.904201277 -2.750723519
N -4.099965692 -1.825491140 -2.596181547
H 6.095846048 1.202588465 5.600578859
H 7.121665507 2.127476121 2.371218968
H 3.882602477 -1.011407236 3.743173022
H -0.057570903 -3.015522753 0.944168323
H 0.772169968 -1.432541320 -1.829509359
H -4.024865501 -0.219200690 1.205521623
H -2.258395308 1.479600697 -4.112938851
H -5.287670977 2.161267334 -2.603432143
H -5.935159763 -2.209862492 -2.222998186

