14

C -1.959585728 -1.582685314 1.660040062
C -0.602602027 -0.015256534 -2.525013214
C -0.142225059 2.222254409 -0.882984226
N 0.924486278 0.744230877 1.182337763
C 2.663910257 -0.965912740 0.012482435
O 4.420788749 -1.961394517 1.039176345
O 1.783611389 -1.332834456 -2.283350823
H -1.436735623 -1.698814748 3.641307695
H -1.780224905 -3.371000344 0.693008528
H -3.751261560 -0.656400149 1.341786032
H -0.991862025 0.259644703 -4.521389679
H -1.829289055 3.247554665 -0.313720615
H 1.318804808 3.535653334 -1.570269700
H 1.583077526 1.570601214 2.777705615

