9

O 4.242235878 0.866965339 0.788696681
C 2.287540705 -0.274622087 0.712831377
C -0.170142210 0.928372632 0.014814621
C -1.549628146 -0.018791588 -2.237984527
O -2.235538087 -0.651680709 0.934958838
H 2.177930221 -2.348792228 1.009331504
H -0.317265080 2.911346479 0.535505355
H -3.721219980 0.384535248 1.112295254
H -0.700329970 -1.862279194 -2.716763346

