14

O 3.770324116 1.369589081 1.861640902
C 1.490652023 2.171451220 1.473584338
C 1.138189131 1.482244613 -1.215835823
C 0.259499365 -1.014837580 -1.925914229
C -0.696357236 -2.596123759 0.292627133
C -2.528833465 -0.458407023 0.512864792
N -2.044591977 0.680984031 -1.697653813
H 1.032773159 4.176306848 1.889186986
H 1.903645394 2.685343153 -2.683316176
H 0.771226465 -1.792030326 -3.750738465
H 0.591536131 -3.016104808 1.842994312
H -1.606395575 -4.313677730 -0.393990001
H -0.203533727 1.109297694 2.489195931
H -4.143997464 -0.067870478 1.712610863

