10

N -2.630256276 -0.276432067 -0.104234855
C -0.456997779 -0.104002457 1.128642518
C 1.297163589 1.956506400 0.631671495
N 2.521097059 1.181676643 -1.333559015
N 1.847517070 -1.299842011 -1.884741575
N 0.946864150 -2.217856411 0.470365229
H -1.012771278 -0.689582832 -2.171631802
H -3.615339513 1.370393216 -0.162620363
H 1.374824548 3.863045720 1.345209252
H -0.154919653 -3.752406357 0.166287206

