12

C -2.001558964 0.952565643 -1.357612016
C 0.234715663 -1.676945590 2.094142580
C 0.343441131 0.197455971 0.074094763
O 0.330646004 0.942158316 2.649209133
N 2.718782594 0.506952387 -1.170100974
H -3.690543923 0.658672507 -0.217099920
H -1.903448938 2.955331405 -1.854580696
H -2.169292264 -0.134773302 -3.102822733
H -1.543218837 -2.611183346 2.526592533
H 1.936306702 -2.726128129 2.561473382
H 3.107711341 -0.967678633 -2.316888813
H 2.771780908 2.113759468 -2.201682699

