12

C -1.939363674 0.854727832 -0.883099254
C 0.047820238 -1.579686280 2.001211103
C 0.980763588 0.395379044 0.269412679
O 1.448175080 2.287311840 1.714215184
N 2.746451869 -0.236429380 -1.678080162
H -2.521647536 -0.751154721 -2.033540349
H -3.342064404 1.292141585 0.553538463
H -1.627469253 2.525315513 -2.036503477
H -1.579479110 -2.755601791 1.590816881
H 0.576237683 -1.356339890 3.967568098
H 2.310338115 -1.829280079 -2.636690585
H 2.964992610 1.228857643 -2.884056132

