11

O 2.893078648 -1.491361615 1.004673688
C 0.433480685 -0.544717373 1.100734533
C -0.099279786 2.164155478 0.206547462
O -2.183442174 1.308438318 -1.299164374
C -1.475328139 -1.285174656 -0.956495895
H 3.575650370 -1.200066153 -0.651204933
H -0.251022998 -0.914190974 3.005948985
H -0.668564391 3.558794126 1.616377940
H 1.428035929 2.948545984 -0.958238279
H -3.074934439 -2.471262808 -0.416413794
H -0.577673705 -2.073160347 -2.652765333

