19

C -4.117176241 -2.002133478 0.258694700
C -1.769724925 2.387323705 -0.151575783
C -0.250639289 1.048831296 1.673026298
C 2.315242332 0.588371256 0.388218532
C 3.480458024 -2.003093875 0.848827634
C 1.750366457 1.201956881 -2.318046270
C -0.529324986 2.314866315 -2.552548338
H -2.733464235 -1.674178426 -1.184153526
H -4.577698529 -0.624051231 1.675089406
H -5.550495750 -3.419528908 -0.137444827
H -3.396350944 3.542510281 0.278106685
H -0.223894506 1.783454485 3.595859838
H -1.226402605 -0.952223489 1.860395289
H 3.634001692 2.034151259 1.082527759
H 2.193582161 -3.494233882 0.235864522
H 3.867802274 -2.283642521 2.855546439
H 5.258509366 -2.212091292 -0.176678716
H 3.061523052 0.831154821 -3.844274636
H -1.338443843 3.027825437 -4.289086119

