13

C -2.584427337 -0.720220433 -0.465482668
C -1.270613145 1.373905650 -1.360982210
C 2.437584487 1.521380217 0.491781609
C 2.848769389 -1.010152363 0.158579807
O 1.458660472 -2.666384457 1.270959985
H -3.931204513 -0.444387221 1.056564093
H -0.609492781 -2.006115472 0.762740216
H -3.045112104 -2.210200451 -1.797446735
H -0.547400822 1.393531722 -3.274028727
H -1.603193415 3.229633145 -0.570755191
H 3.564762203 2.881541001 -0.541487188
H 1.550146422 2.168045045 2.215318320
H 4.103843656 -1.668238922 -1.349581341

