8

O -1.872668379 -2.708381031 3.937345538
C -1.557848379 -1.014498015 2.462570899
C 0.289603042 1.690286829 -3.474807195
C 1.463788262 3.295523435 -1.963895645
C 1.069145228 1.142922139 -0.636473648
C 0.776666685 -0.760188537 0.950620510
H -3.001088742 0.459721271 2.143674305
H 2.234617659 -2.186273948 1.138759753

