16

C 2.831088715 -1.964423653 -0.393249796
C 0.601805602 -1.424621118 1.199720541
N 1.157565816 2.418758374 2.997181071
C -0.611216117 2.740454559 1.326424977
O -1.696935944 4.386003445 0.225486959
C -1.656523130 -0.352830198 0.362475643
C -2.373596621 -0.230747767 -2.393080945
H 2.909272089 -0.787539942 -2.077279987
H 2.690502351 -3.939654632 -1.008777115
H 4.571626291 -1.764993977 0.683032626
H 0.705080382 -2.068478815 3.136150000
H 1.831875126 4.131670724 3.577187643
H -3.243443717 -0.635520281 1.639068240
H -0.780508838 0.266262997 -3.600594604
H -3.807055460 1.223152201 -2.654975613
H -3.136949940 -2.036138665 -3.039280749

