12

C 1.602807684 -0.909232201 -1.358521938
C 1.591079893 2.250309037 1.085039847
C -1.631600383 0.659255997 -0.809850351
O -2.380693110 -1.850334179 -0.873575015
C -0.093303961 -2.002682425 0.699112589
C -0.652895746 0.703649670 1.804271575
H 3.613201817 -0.678320159 -1.064555197
H 1.162589237 -1.656819950 -3.226308682
H 0.893831670 4.143505700 0.515863711
H -2.505545803 2.083100911 -1.997965083
H 0.175524395 -3.782186853 1.691731279
H -1.881765219 1.094520622 3.407871603

