11

C 2.200289612 -1.071537017 0.483772023
H 3.619193383 -2.435029463 1.060815618
H 2.357554472 -0.439793448 -1.459514193
C 1.318584239 0.740960423 2.461749246
H 2.095207687 1.129876963 4.304546441
C -1.242831960 1.266565087 1.436558953
O -1.613708853 2.343050540 -0.954322521
H -1.090630885 4.076987530 -0.880946893
H -2.663631560 1.834893623 2.813110900
C -0.359097607 -1.366543825 1.627679938
H -1.130770123 -2.921846478 2.691105759

