10

N 3.042139848 0.209733541 0.279618920
C 0.618219291 -0.526086941 0.183140351
C -1.582363191 1.133834900 -0.369093464
N -3.660273288 -0.661997196 -0.194294251
N -2.789690938 -2.772373186 0.331214206
N -0.138200093 -2.809542813 0.589423795
H 3.564760578 1.968752657 -0.175392587
H 4.382254398 -1.094083226 0.598644317
H -1.539727757 1.979389245 -2.251208471
H -1.846969295 2.641899842 1.014750180

