10

O 1.502130049 -2.187020579 -1.102574124
C -0.726557611 -2.031172257 -0.660624991
C -2.575855388 -1.033860149 -2.592434560
H -4.028814896 -2.447680764 -2.982596430
H -1.589115655 -0.551128722 -4.329369808
H -3.538662137 0.635449473 -1.851336981
C -1.818319610 -2.821107163 1.855360321
H -2.797643681 -1.229861692 2.733975859
H -0.322032405 -3.486220328 3.097127533
H -3.216798711 -4.315108498 1.581812487

