16

C 3.745119686 1.010058954 -0.171099299
O 1.639762772 0.122065480 -1.549043502
C -0.692211895 0.047687843 -0.262080315
C -2.616803051 -0.891608426 -2.187944296
C -0.624980164 -1.660684723 2.068775936
C -1.404702687 2.650616091 0.541826696
N -1.949632257 4.650125609 1.177891975
H 3.359687366 2.840657438 0.716068081
H 4.346138954 -0.338152638 1.277160006
H 5.267400036 1.243044497 -1.533575527
H -2.103561901 -2.804702601 -2.754398640
H -2.603630715 0.320333598 -3.851122286
H -4.510372009 -0.907577689 -1.378604832
H -2.501954020 -1.794348378 2.906495817
H 0.661268405 -0.945253385 3.508123501
H -0.011528520 -3.542261706 1.491526683

