16

C 3.799506571 2.094502592 0.260993004
O 1.144462172 0.337205942 -1.807127594
C -0.513633419 -1.013272565 -0.917382419
C -2.890326546 -1.364399931 -2.384870576
C -0.363164675 -2.194584604 1.634948335
C -0.206822550 3.718246987 1.463344989
N -2.348646246 3.707826886 1.940779287
H 3.922586380 3.862869088 -0.737178193
H 3.832063717 2.233482084 2.288927140
H 4.838997045 0.529669162 -0.539423985
H -3.715680153 -3.231476063 -2.122870499
H -2.599150344 -0.943026267 -4.374539043
H -4.188203770 0.047636273 -1.593277833
H -1.807611780 -1.307394169 2.813831868
H 1.472547200 -1.919013837 2.512238760
H -0.787680141 -4.207710393 1.487181768

