11

C -3.464104429 0.026722674 -0.269863227
C -0.926838193 0.297428152 0.016108422
C 0.732223747 2.244581334 0.760514251
O 3.194436977 1.369230676 0.688347084
C 3.173579465 -0.940825662 -0.040531110
N 0.825662181 -1.686800190 -0.467418711
H 0.323107981 -3.422377122 -1.049996936
H -4.265184523 -1.741764405 -0.902278424
H -4.719222235 1.581765338 0.125931198
H 0.479450938 4.164104509 1.350240837
H 4.888304403 -2.016832581 -0.233522207

