8

N -4.376374799 -0.639109363 0.476851128
C -1.801584725 -0.654473989 0.208599932
O -0.985828167 -2.993953967 -0.374627981
H 0.829272144 -2.877093852 -0.447415318
N -0.224892508 1.126091879 0.491872504
H -1.063219557 2.783385357 0.949192274
H -5.316575812 -2.109627733 -0.269052346
H -5.250559326 1.039579575 0.386716861

