11

N -3.656828223 -0.865440481 0.390263631
C -1.125821894 -0.603705363 0.085728106
O 0.049032856 -2.664549495 -0.523067007
N 0.099408230 1.503800511 0.407471345
C 3.550873812 1.298639446 0.162046510
N 4.394658542 -0.709850353 -0.349101258
H -4.422205363 -2.504180155 -0.185829752
H -4.767045647 0.668236996 0.440237647
H -0.913320415 3.018044933 0.968518295
H 4.030007805 3.239680876 0.575410248
H 2.002143003 -2.228096667 -0.555617162

