16

C 2.381806782 1.358781359 1.993368551
C 0.323470166 -0.444444933 1.310522346
C 1.330182868 -0.529837575 -3.313639748
C -2.196398628 -0.140427003 2.587969099
O -3.926379627 -1.317792897 0.816052810
C -2.803814789 -1.116984760 -1.448744455
N -0.395964217 -0.647397305 -1.197815074
H 4.097080931 1.068392040 0.883637448
H 2.916204266 1.098188429 3.968182485
H 1.812685222 3.361919322 1.778730793
H 2.840652505 -1.896068669 -3.015280944
H 0.318925677 -0.972528766 -5.048270286
H 2.138770145 1.357624318 -3.463647966
H -2.412574264 -1.078090152 4.408042319
H -2.769737906 1.880594703 2.804178164
H -3.705245803 -1.873287718 -3.110003371

