10

O 4.829825392 1.046123999 0.918151784
C 3.287139004 -0.597289383 0.802672812
N 0.672304443 -0.156443887 1.046853093
C -0.569772193 1.480710571 -0.661211769
N -3.226310099 1.776900499 0.118654222
C -3.386276965 -0.609852925 -0.149649698
N -0.853634266 -1.244652465 -1.070737776
H 3.724416546 -2.625077425 0.649233816
H 0.424160329 2.759201492 -1.908525649
H -4.930198081 -1.912197746 0.191574595

