15

C -1.615380127 -1.937842067 -1.632351776
C -1.057927323 2.624659058 3.080294042
C -0.194389512 3.717497162 0.716577306
N 0.541234456 2.117060820 -1.024103096
C 0.318322344 -0.473266752 -0.067493893
N 2.769406675 -1.694376480 -0.272035713
C -0.686448627 0.133935038 2.553983112
H -0.918037002 -2.231739587 -3.552192122
H -1.950944898 -3.781219408 -0.771138763
H -3.406445464 -0.925813848 -1.696464061
H -0.105322412 5.722282380 0.266897945
H 1.289253422 2.531331815 -2.724866491
H 3.915571187 -1.140278620 1.155412719
H 2.575491238 -3.590667154 -0.156866355
H -1.124208257 -1.445062985 3.797968787

