15

C -1.883634101 -1.737570177 -0.844086746
C -1.888246393 2.334571982 2.398583846
C -0.742462396 3.613410670 0.452048284
N 1.038078414 2.203383490 -0.885631222
C 1.111831760 -0.161808914 0.129239466
N 3.234398033 -1.690119570 -0.185334342
C -0.659261761 -0.070928829 2.207180668
H -0.907790075 -3.082297114 -2.066201222
H -3.190180350 -2.791647523 0.337898224
H -2.889816886 -0.279322516 -1.872605357
H -1.071134789 5.528258095 -0.198818993
H 2.139457873 2.789800542 -2.315366166
H 3.240133597 -3.210560857 0.959753896
H 3.606397990 -2.198828948 -1.985721056
H -0.787589566 -1.619842809 3.542680469

