16

C -2.342886342 -0.362695003 2.157703821
C -2.179932084 -0.051950877 -0.672516054
N -1.901522778 2.611155699 -1.539738321
C 0.209339457 -0.094860585 -2.142756068
C 2.562407681 0.418451485 -0.594817244
C 3.545507027 -1.974860233 0.599879442
O 2.385801739 -3.911474374 0.808028031
H -0.885825826 0.699846672 3.149288831
H -4.172134787 0.305271385 2.836196134
H -2.153599752 -2.355071372 2.646825300
H -3.728481195 -1.030408999 -1.611625468
H -3.225468151 2.827066225 -2.928614362
H -0.332359551 2.244972073 -3.077619173
H 2.328656496 1.781493384 0.954565653
H 4.085569173 1.155374811 -1.783237242
H 5.505741763 -1.827843339 1.330553122

