16

C 4.827682253 0.005772225 -0.891261453
C 2.124079489 0.828824997 -0.929471602
C 0.142978682 -0.709178253 -0.970262040
C -2.561484361 0.129733988 -0.947482979
C -3.813327102 -0.406793444 1.597842504
O -2.674564098 0.951578261 3.588406210
H 5.807717163 0.759054929 0.763429777
H 5.833197550 0.707899513 -2.553249426
H 4.989975202 -2.049161600 -0.858697730
H 1.786039233 2.858684574 -0.953255487
H 0.467790137 -2.743087382 -0.949215574
H -0.879157738 0.693532190 3.476693501
H -3.622654794 -0.853469973 -2.425988749
H -2.681305470 2.155564462 -1.333546221
H -3.775862374 -2.448251820 1.981614946
H -5.789820493 0.180167339 1.553774280

