16

C 4.211868433 0.427577729 0.036561514
C 1.459924509 0.784311402 -0.376900225
C -0.080159159 -1.063872174 -1.528481978
C -2.828136037 -0.414101563 -1.241474739
C -2.965338015 0.283447788 1.681330321
O -0.599592563 -0.187483811 2.750474472
H 4.697087174 0.894372094 1.984006299
H 5.254517282 1.725868804 -1.186926718
H 4.803075600 -1.503441954 -0.366010584
H 0.767256680 2.697257952 -0.089657621
H 0.685179374 -2.437341298 -2.835515757
H 0.067362330 -1.778648817 0.831152742
H -4.046865881 -2.008320234 -1.713604632
H -3.427384102 1.195522647 -2.386148938
H -4.409242371 -0.870303937 2.608684069
H -3.505105174 2.269362314 1.920418074

