19

C -4.240515509 3.223180713 0.733139432
C -2.238961648 1.418833435 -0.117559371
C -0.047364851 -4.500413814 -0.400015828
O 1.181119759 -2.480761856 -1.609936260
C 2.066556075 -0.595736293 0.056199737
C 4.147116986 0.837468453 -1.313984948
C 0.013882797 1.173977615 0.943057448
H -5.968034970 2.220451251 1.260841692
H -4.748175730 4.529868880 -0.784175738
H -3.619796073 4.333042132 2.356046357
H -2.686567771 0.228072161 -1.731486563
H 1.231323206 -5.475078103 0.911008260
H -0.628681079 -5.824903088 -1.864880913
H 2.888122652 -1.517342949 1.732849320
H 5.692417942 -0.434876777 -1.803255016
H 4.882713610 2.360985591 -0.134903391
H 3.387491663 1.661453161 -3.044678619
H 0.511314290 2.352711520 2.554215038
H -1.720120899 -3.879785784 0.651227590

