10

N -1.393927809 2.738763235 -1.300422762
C -0.505584584 0.561942774 -0.296679140
O 0.006299100 -0.230997476 -2.605134408
C 3.201345816 -1.363741853 -0.225362048
O 2.170534173 0.317042357 1.053528740
C -2.363871467 -0.934543892 1.334592714
O -1.760312313 -2.572203341 2.759302007
H 0.082143900 3.688392168 -2.093028492
H 5.092327833 -1.814863396 0.532942678
H -4.346322069 -0.353078867 1.023577374

