9

C -2.731165572 -1.139127116 -0.433047201
H -4.402431817 -0.672291744 0.656133811
H -2.907431326 -2.755462858 -1.694715535
C -0.320166962 -1.140096281 1.216636576
H -0.287151595 -1.125782418 3.252210213
C 1.724261781 -1.118152516 -0.381724828
H 3.726279041 -1.284864987 0.044506830
O 0.963430056 -0.278099504 -2.578314224
C -1.166496511 1.025180863 -1.067636282

