15

C -2.671957183 2.254828827 1.057128365
C -1.749266731 -0.033294555 -0.398967748
C 1.490794527 -3.407007582 -0.705115909
N 0.723437881 -0.952914996 0.509691412
C 2.845431207 0.696780176 -0.047644399
O 4.370396348 1.279660076 1.518120080
H -4.486275941 2.869616999 0.300381718
H -2.944799885 1.816417790 3.054936847
H -1.361636131 3.841403519 0.917589363
H -1.515256276 0.374372490 -2.407663810
H -3.011426621 -1.655962298 -0.249509384
H 1.503058056 -3.097919310 -2.747027234
H 3.368319314 -3.875244394 0.001759770
H 0.665945344 -1.210277345 2.414991753
H 2.884081757 1.196457098 -2.062305854

