13

C -4.006991526 0.913979363 0.033366195
C -1.465366221 -0.180157815 -0.366569546
C -0.548706773 -2.461148767 -0.985821686
N 2.079293887 -2.392090199 -1.086577347
C 2.603135644 -0.081064659 -0.541673836
N 4.922649192 1.054728735 -0.487185077
O 0.596598084 1.401276576 -0.073083665
H -4.385131544 2.448797857 -1.293469741
H -5.428086793 -0.548021786 -0.253127548
H -4.219164722 1.657044600 1.947203543
H -1.590686168 -4.171246030 -1.362694548
H 5.079661018 2.539417179 0.687860933
H 6.362795942 -0.181515073 -0.399655797

