13

C -3.359440455 1.163868431 -0.351185550
C -1.063328462 -0.350943231 0.135952642
C -0.278444247 -2.897735746 -0.275457062
N 2.151229676 -3.019695136 0.233280189
C 2.157208221 -0.296707883 0.403771450
N 3.966106961 1.038165134 -0.735349769
O 0.679715911 0.644376105 2.189696884
H -2.917982139 3.055183324 -1.054438548
H -4.497051575 0.214096181 -1.785802980
H -4.518734274 1.376564174 1.350099655
H -1.380347915 -4.464563971 -1.024937523
H 3.779096886 2.922775713 -0.863603554
H 5.011967362 0.124185733 -2.028833759

