13

C 0.546309221 2.224840234 0.465780092
C 2.136071427 0.079861659 -0.569656485
C 1.188355067 -2.405682546 0.230430804
C -1.408947711 -1.662379411 -0.412959809
C -2.064234112 0.941211904 0.582946457
N 0.634390263 -1.506391779 -2.324718912
H 0.566774426 3.848219251 -0.805997861
H 1.216477045 2.850370328 2.312705073
H 4.096305198 0.338143681 -1.099179364
H 2.080696537 -4.180959675 0.680864146
H -2.832187855 0.857296555 2.494690007
H -2.841852481 -3.073305740 -0.794339744
H -3.450851685 1.872944468 -0.625993227

