16

C 4.972693619 0.924028699 0.965240981
C 2.439428425 0.505068934 -0.226607283
C -2.059404066 -1.938402389 -2.440213436
N -2.027368919 -0.486602134 -0.548062490
C -4.268819657 0.765108647 0.417599899
C 0.413612105 -0.157953703 1.190222476
O -0.100199062 -0.529134974 3.416942118
H 4.835336854 0.690738891 3.008377963
H 5.695161692 2.825562400 0.593077354
H 6.393654621 -0.413455843 0.277858224
H 2.208781512 0.833810944 -2.230739865
H -3.782237649 -2.210368353 -3.523355412
H -0.325164588 -2.893413886 -2.961567501
H -4.428691772 0.264059595 2.405947637
H -3.984173253 2.799642973 0.275256203
H -5.939165114 0.188541112 -0.636130247

