13

C 3.295910243 -0.341490008 0.455542028
C 0.774841625 0.434056428 -0.115816080
C -1.711599973 -1.017550830 -0.530092971
C -2.868657906 1.086386579 1.076657513
O -0.392311565 2.159814872 1.458968195
H 4.859304458 0.412913945 -0.612116723
H 3.743574816 -0.606965764 2.459859180
H 2.645517118 -1.201916120 -2.355819930
H 1.634936468 0.183460773 -2.866214169
H -2.410675486 -1.193859367 -2.451883269
H -1.693439648 -2.863945345 0.379015056
H -3.720400745 0.522290651 2.865262295
H -4.100887765 2.407287056 0.084128528

