16

C -2.877347094 1.306471510 0.068519334
C -0.923417014 -0.151444012 1.540438067
C -0.280596928 -3.183382949 0.087511667
O 1.405214198 -2.840151180 -1.677629519
C 1.670386275 0.174368129 1.073041957
C 2.765290776 1.906082309 -0.802282546
H -2.827467867 3.333008213 0.467478257
H -4.765378210 0.625798623 0.535248163
H -2.607889062 1.045206178 -1.960737724
H -1.414551637 -0.646835980 3.469678100
H -2.190147981 -3.845828104 -0.483521351
H 0.294173061 -4.194621432 1.823359604
H 2.971892945 -0.717369365 2.384521242
H 4.673841180 1.356193361 -1.321807186
H 2.806376653 3.786077364 0.081611470
H 1.586118341 2.014232091 -2.481557828

