12

N -5.702423815 0.377828742 -0.225424617
C 0.565830111 1.934563883 0.302855143
C 2.918988022 2.389458756 0.478645083
N 5.158419077 1.646184099 0.479833607
C 4.959442425 -0.921658756 0.104480217
N 2.787651697 -2.083241979 -0.164577571
C 0.638274236 -0.740633595 -0.075648912
H -6.226427635 -0.061051892 -1.980565373
H -6.464030252 -0.541413508 1.231328668
H -4.314100178 1.626826803 0.063092267
H 6.711851052 -1.972387904 0.040528862
H -1.118801543 -1.780540168 -0.303030170

