16

C -4.553699328 0.859018436 -0.293431419
C -2.274168077 -0.872963953 -0.002143781
C 0.205514632 0.584304357 0.172231245
C 2.453503162 -1.159106869 0.433973318
C 6.178187179 0.461451221 -1.255594282
O 4.738630081 0.315219565 0.703825434
H -6.307680870 -0.220492299 -0.391224009
H -4.706588830 2.162907012 1.299895660
H -4.413892779 1.988413991 -2.015731815
H -2.504700359 -2.042726874 1.689072586
H -2.189848799 -2.180179468 -1.603159154
H 0.466915421 1.742275652 -1.521864781
H 0.155415990 1.876126087 1.786281231
H 2.695130763 -2.368371245 -1.218965474
H 2.330592899 -2.308480684 2.142497119
H 7.740587832 1.707815608 -0.591845158

