12

O 3.888410645 2.015950778 -2.460241982
C 2.436320014 0.818307461 -1.344357647
C 1.465862785 -1.473079176 -0.455387279
C -1.347942268 -1.329721264 0.112510684
C -1.647045379 1.477317379 0.923888879
O 0.843046792 2.382766782 1.269471391
H 2.330100682 -3.199121533 -1.132101946
H 1.831410707 0.184759374 1.587600850
H -2.518582797 -1.764493521 -1.527719681
H -1.850238464 -2.656130066 1.610495411
H -2.710188932 1.673512562 2.679640961
H -2.586051594 2.582091503 -0.549358446

