11

C -0.091503298 -0.910785574 -1.125026962
C -0.707699883 1.298746688 0.568460421
O -1.566993538 1.102422001 2.659262381
C -0.203033876 3.960050710 -0.460147461
O 0.654511046 4.329963900 -2.520986831
H -0.700766723 5.487069851 0.875984057
C 2.735917647 -1.231431960 -1.527662026
O 3.856180553 -3.093009083 -0.904108983
H 3.702211376 0.366178637 -2.465811137
H -0.865311810 -2.629206401 -0.304842644
H -0.922874001 -0.545472526 -2.984913404

