13

C -0.955379105 -1.786797070 -0.624183588
C 0.064569693 0.362178201 0.689435075
O 0.286902000 0.180352891 3.100936787
C -0.727120371 2.911189519 -0.397493610
O -0.797635993 3.345228902 -2.622216814
C 2.868628483 -0.275141119 -0.932426264
O 4.387643878 -1.672580455 -0.130219213
H -3.150967437 -2.001444106 2.022730832
H -0.315719662 -3.638589910 -0.037169155
H -1.767489077 -1.600638109 -2.501988488
H -2.210933324 -1.310590168 3.134504011
H -1.202973497 4.325095606 1.063625168
H 3.062966009 1.039317489 -2.536577431

