14

C 3.817233733 -0.548639575 -1.053927698
O 1.999810665 -0.256186259 0.910290353
C 0.031020213 1.181594874 0.321089356
C -2.817623396 -1.510168151 -0.804163844
C -1.314855072 2.431699577 2.330096392
O -3.572646064 2.769939634 2.554050462
H 5.475137308 -1.423514419 -0.208269475
H 3.068488658 -1.781598490 -2.534037223
H 4.294572297 1.287552290 -1.858803005
H -1.437421783 0.318368453 -1.408140307
H -3.656142801 -1.660344497 -2.681630805
H -1.691622223 -3.154644428 -0.326054801
H -4.205599418 -0.988163075 0.606744382
H 0.051036665 3.358808473 3.626781200

