11

O 1.237184683 2.603700729 2.515771149
C 1.397333001 1.300261114 0.483346060
C 2.232052280 -1.627649362 0.488446941
O -0.256709883 -2.302953576 -0.680455115
C -1.048082832 0.003441305 -0.448517841
N -3.406716527 0.672844772 -0.606801188
H -3.816490919 2.480953267 -0.168599966
H 2.308281035 2.162302394 -1.230589728
H 3.760181786 -2.291441459 -0.716869571
H 2.279501961 -2.413941840 2.384648326
H -4.817320639 -0.587853697 -0.819620670

