8

O 0.193833328 2.285561330 -0.876581739
C -1.200081422 0.833937991 0.839508960
C -0.846698763 -1.585739829 1.274436722
C 1.960370267 1.167705746 -2.121045232
N 3.552934974 0.228782792 -3.265146126
H -2.590749945 2.032823935 1.727576190
H 0.591270095 -2.677318053 0.310298548
H -2.035333415 -2.523303805 2.643454822

