10

O 3.194298706 0.592509964 -1.471469281
C 1.410202773 -4.516025011 1.089874314
N 2.421561877 1.981710717 0.206165227
N 0.204718736 2.427352338 0.961589652
C -1.761871658 1.061098680 -0.145613017
C -1.951124252 -1.437566782 -0.400016810
N -0.129657813 -3.104224513 0.378983932
H 3.741865162 3.028840239 1.168649438
H -3.382292421 2.213379839 -0.628621402
H -3.650270609 -2.280393231 -1.160656992

