10

O 3.523973919 -0.871941763 -0.307282318
C 1.959912650 -2.517324164 1.038738061
N 2.436131004 1.646940008 -0.272220831
N 0.148134592 2.357252796 0.273220628
C -1.969707177 1.133460810 0.007513116
C -2.137913475 -1.504997954 -0.443384192
N -0.177134726 -2.873135612 0.038472821
H 3.707590481 2.682853949 0.707321805
H -3.651163372 2.287535111 0.182358987
H -3.831148164 -2.379605554 -1.194993788

