15

C 1.421840330 2.325071516 -0.139004852
C 2.903491719 0.115311126 -1.424490444
C -0.353740914 -3.279018945 0.440379471
O -2.664603862 -2.727779504 1.489044754
C -2.953430472 -0.004695724 1.390528891
C -1.097195000 0.876384112 -0.632166377
C 0.552569374 -1.416838621 -0.956620674
H 1.843497717 2.433683865 1.875964648
H 1.604041316 4.190719808 -0.993663822
H 4.653022842 -0.524271840 -0.550129775
H 0.417770976 -5.096942431 0.960017532
H -2.513587854 0.749749369 3.268863689
H -4.923290641 0.391108018 0.947233573
H -2.012427459 1.526013202 -2.366289939
H 3.239872002 0.499367555 -3.423654973

