13

O 3.648134878 1.114594899 1.155039630
C 2.134603110 0.564890520 -0.899476244
C 0.795881080 -1.898653966 -0.946862997
C -2.445094031 -1.351372367 1.521993376
N -1.569354033 1.243624737 1.964594863
C -0.646407183 0.859223433 -0.543107761
H 2.516163343 1.430462772 2.559310174
H 2.878164684 1.300553285 -2.661311978
H 1.265067705 -3.198265865 0.542955279
H 0.317513050 -2.739140934 -2.746406686
H -4.130481481 -1.232054606 0.262292701
H -2.968632242 2.549434579 1.867800237
H -1.801226168 1.416159983 -2.135917981

