15

C 5.250264359 0.061068030 0.645549058
C 2.670635452 -0.147666469 1.761458432
O 1.032255450 0.009156196 -0.066468546
C -1.575111291 -0.139205617 0.608119404
C -3.226575360 1.897636140 -0.596644344
O -4.766850420 0.022750999 -1.807719626
C -3.112350884 -1.970741216 -1.006999185
H 6.331790846 -1.589134458 1.259792611
H 5.315038917 0.248308293 -1.412879286
H 6.173086147 1.678202635 1.544430284
H -1.696610854 -0.360001236 2.647836152
H -4.314040406 3.085747792 0.692362620
H -2.208163401 3.075258016 -1.956777784
H -2.038739458 -2.775750920 -2.579498119
H -4.117951955 -3.464735163 -0.000460545

