16

C 4.080413830 -0.710055993 -0.704800230
C 1.381416707 -0.957459863 0.287400509
C -0.554484214 0.201487872 -1.476395173
C -3.608695387 -0.530499319 1.805358792
C -1.539494262 2.603542068 -1.045440031
O -2.767669582 3.144440758 0.900861451
H 4.626320483 1.272365431 -0.874463621
H 5.424140648 -1.641509937 0.556147098
H 4.262017493 -1.572993929 -2.571594641
H 0.967460672 -2.972806930 0.570726996
H 1.242918301 -0.087246028 2.156104489
H -0.217247810 -0.273160119 -3.454638167
H -3.672579468 0.261353413 3.686113706
H -5.345013167 -0.397726991 0.741557066
H -2.648009327 -2.331438343 1.693564521
H -1.260216627 4.136120745 -2.419390487

