19

C 5.218295522 0.479207768 0.579660109
C 2.691868132 -0.891452731 0.715111067
C 0.447615119 0.904017653 0.916390634
C -2.077205343 -0.449226583 0.934005112
C -3.019556449 -1.516488056 -1.598413202
O -5.216077286 0.069969755 -1.557724885
C -4.463346987 1.196046876 0.790256102
H 5.303654016 1.712291443 -1.074464618
H 5.517315995 1.655909933 2.250104059
H 6.792954375 -0.846624081 0.454656370
H 2.679318385 -2.174544607 2.338589558
H 2.465473915 -2.085390749 -0.960751709
H 0.484313543 2.240937866 -0.666753958
H 0.626251553 2.040015495 2.639159342
H -2.139495818 -1.830176111 2.465673489
H -3.521080352 -3.521137157 -1.622836929
H -1.804788415 -1.102572613 -3.223985906
H -4.112873542 3.226552249 0.589493847
H -5.872636379 0.892663630 2.270953048

