13

C -2.650335277 1.420601350 0.281106663
C -0.665588167 -0.280990653 0.675739757
O -1.282240270 -2.774534995 1.199366898
C 1.238104753 -0.263990072 -1.700044827
O 0.195509043 0.283186552 -3.776277642
C 3.763821644 -0.647055793 -1.108912606
C 4.113930353 -0.303950674 1.252838135
H -4.502732999 1.006433155 1.056363933
H -1.601969572 0.727481195 -3.163987159
H -2.199761112 3.410416251 0.083344840
H 1.251958014 0.121781945 2.117641570
H -3.090891664 -2.895167041 1.309809069
H 5.494103903 -0.035746116 2.728536264

