15

C -2.317964407 -2.037076102 0.889854042
C -0.626693616 -0.167508612 -0.473678977
C -1.610694948 2.785349689 -2.175154799
N -0.921756757 2.454899046 0.398676730
C 2.119000756 -1.019748317 -0.713631279
O 2.616827183 -3.055861074 -1.637389427
N 3.829278129 0.629237679 0.190926929
H -4.297535595 -1.515304124 0.648968669
H -2.021013430 -3.925546938 0.131840674
H -1.861759047 -2.048396468 2.902291535
H 0.206428523 2.949738533 -3.197805395
H -1.486558971 -0.169818802 -2.507591923
H -2.495825411 2.544998636 1.488763487
H 3.226716107 2.273757496 0.929731969
H 5.674988356 0.221946784 0.035986527

