16

C -4.775674987 -0.401926246 -0.097373864
C -2.113908889 0.513103502 0.233569204
C -1.180702376 3.053085293 -0.100998019
C 1.508722170 2.635396010 -0.194044222
C 2.080673463 0.112633119 -0.168017950
C 4.568433372 -1.201956163 -0.280343422
N -0.111079859 -1.206922174 0.075698555
H -5.212658998 -2.008296348 1.123797317
H -6.072810325 1.135030038 0.332635658
H -5.089118077 -0.966158575 -2.056042168
H -1.984382204 1.824462921 2.135564810
H 2.911884636 4.112882575 -0.343234754
H 4.621265182 -2.567943728 -1.826800928
H 6.073454419 0.167669957 -0.577122944
H 4.954936732 -2.215326937 1.476487146
H -0.237504256 -3.091763867 0.270150504

