19

C 3.332810151 -0.953509447 -2.120528770
C 2.181821413 0.346047272 0.055080244
O 1.117179062 3.824808019 -0.667414153
C -1.074000766 2.924659279 0.666429832
C -0.639013157 0.057414113 0.569965833
C -1.096524998 -1.338392840 3.054154141
C -2.203654590 -1.124035177 -1.551077717
H 5.203590127 -0.228514791 -2.579707122
H 3.592453777 -2.900739711 -1.436204573
H 2.168647395 -1.064308739 -3.825045350
H 2.585671835 2.851110250 0.485594872
H -2.768560588 3.550071151 -0.325910463
H -1.114225571 3.672264451 2.596346274
H -0.020092532 -0.485247314 4.590406540
H -0.535787906 -3.320831895 2.900870461
H -3.100432683 -1.299417560 3.552415828
H -1.701122954 -3.101027664 -1.874968101
H -1.967541267 -0.098890596 -3.325928184
H -4.208976868 -1.065053631 -1.059082210

