11

C 0.608780468 -0.496679684 -2.507819730
H 2.332639869 0.625579491 -2.305712236
H -0.069071002 -0.409920959 -4.455474294
O 0.965732196 -3.096159143 -1.748576112
C -1.070966679 -2.879538553 -0.010265673
H -2.362897408 -4.452883819 0.176577823
C -0.492543376 -0.981007665 1.977771885
H 1.460378214 -0.651837367 2.506320685
H -1.853898278 -0.848682201 3.500458904
C -1.459888926 -0.123361491 -0.558710851
H -3.174891937 0.952959367 -0.806115383

