14

C 2.294350730 -0.228850142 -1.717940590
O 0.548459465 -2.202158853 -2.166578202
C -1.399584326 -1.906392148 -0.556431237
C -0.826500917 -1.353769598 2.260609348
C -1.648117496 0.665474122 0.582059570
O 0.219112062 3.953893869 0.423680150
H 3.501323738 -0.609035732 -0.072522549
H 1.183413849 2.610309725 -0.658457059
H 3.470040248 -0.046151364 -3.401260925
H -3.060878694 -2.991613428 -1.080196460
H 1.163247108 -1.592916952 2.680363101
H -2.074568382 -1.908526500 3.790194511
H -3.424064345 1.621413153 0.893556167
H -0.670614159 5.019471786 -0.760065365

