12

O 0.877205084 -0.989564761 3.782774558
C 1.036496487 -0.376550021 -1.630621675
C -1.328208520 -0.739294478 -0.103203688
C -1.053582672 0.159421208 2.589824735
O -2.374202997 1.693300017 3.607347634
C 1.163910968 1.045382433 -3.682499529
H 0.935496011 -0.311286100 5.475559246
H 2.706281167 -1.360793502 -0.958864950
H -1.797269233 -2.753150797 -0.021792945
H -2.918787163 0.265045579 -0.934253308
H -0.469738067 2.060238248 -4.392041252
H 2.910533633 1.240027077 -4.730867842

