12

O 2.669745070 -2.115706340 1.241248293
C 0.898285414 -1.048135064 -0.418484896
C -1.817242958 -1.161590914 0.621834148
C -2.080616148 1.618018487 -0.076637522
O -3.837484907 3.007941833 -0.327732745
C 0.750777947 1.879666111 -0.539362153
H 4.321738905 -1.989728844 0.507590245
H 1.034300379 -1.888333018 -2.304043192
H -1.793751130 -1.403940504 2.672909870
H -3.156318820 -2.481283799 -0.213932588
H 1.331981887 2.849735247 -2.259880406
H 1.678584360 2.733356785 1.096490964

