12

O 1.315316373 -0.789507393 2.364754291
C 0.894553375 -1.084332825 -0.931476016
C -1.872215941 -1.327041633 -0.234725660
C -1.272753921 0.872948798 1.448124360
O -2.193970594 2.393876066 2.774925979
C 1.107255505 1.469889016 -1.690006602
H 2.666741747 0.416177011 2.557794841
H 2.164224567 -2.659089226 -1.277848377
H -2.387488376 -3.007072163 0.833924649
H -3.197928322 -0.930108270 -1.753011620
H -0.395950441 2.235824721 -2.846056914
H 2.947829967 2.339203908 -1.944605510

