17

C -4.140165194 0.407307128 -0.295562709
C -2.200807831 -0.504019645 1.529455376
C -0.816195598 -2.636720972 1.164148545
C 2.930439724 -2.185728441 -0.480666069
C 3.950981423 -0.104885847 -0.752095426
C 2.322103588 3.186483214 0.138056852
O 0.175078987 3.066642113 1.071068138
H -6.008509124 -0.240186685 0.315220472
H -3.796567064 -0.330705322 -2.189933913
H -4.170395955 2.462277009 -0.366461416
H -2.176614462 0.380428627 3.369548373
H -1.275282393 -3.829383027 -0.437283646
H 0.070454262 -3.539943711 2.771591746
H 2.915356422 -4.197321831 -0.618004542
H 5.702000479 0.654016108 -1.435599255
H 3.942072404 3.642306207 1.367595118
H 2.542759027 3.791886930 -1.844482151

