11

C 2.599389924 -0.772222219 -0.066896683
C 0.063212888 0.339508725 -0.457630950
O -0.251952346 2.206072797 -1.999418660
C -2.308060145 -0.377851494 0.688270342
O -4.231302811 0.789236916 -0.182926415
H 4.008329622 0.684474676 0.298181907
H 2.567549985 -2.119722329 1.489595420
H 3.139836912 -1.762382527 -1.794724962
H -0.970322700 0.859261814 2.253584046
H -2.202549403 2.323159529 -1.935123922
H -2.413447846 -2.203416768 1.665867410

