17

O 4.986883270 0.957987966 2.315017474
C 4.596694698 -0.675255515 0.231051239
C 1.877685357 -1.559931197 0.396222297
C 0.018182340 0.394463623 -0.289306468
C -5.319301459 1.226370801 -1.778717489
O -4.292606660 1.786455842 0.606237577
C -2.261917738 0.214750555 1.235132384
H 6.585207409 1.786868993 2.131229004
H 5.889197297 -2.294423333 0.318763500
H 4.871829052 0.316667246 -1.563713351
H 1.559355813 -2.569748247 2.189230462
H 1.541997847 -2.933686085 -1.139017247
H -3.889957291 1.408946936 -3.265925090
H -6.106592467 -0.695972639 -1.828133034
H -6.834181982 2.574777469 -2.125503134
H -1.570552837 0.833951635 3.107607558
H -2.897070751 -1.765023797 1.501679066

