17

O 3.662083155 0.180042220 2.608334678
C 3.807241239 -0.878638782 0.150157392
C 1.128765067 -1.518630571 -0.697903221
C -0.302647047 0.915615450 -0.850216753
C -4.347498045 0.323351585 -1.271668141
O -4.199787281 2.140594940 0.607506036
C -1.740204228 1.612823951 1.554081134
H 5.287863408 0.825274277 3.072680241
H 4.945788662 -2.609746492 0.161750730
H 4.645946366 0.463558039 -1.183285385
H 0.348584437 -2.916288302 0.632400929
H 1.277433072 -2.387651913 -2.565802423
H -2.371957511 0.618651925 -2.424515065
H -4.551461118 -1.615520401 -0.567532225
H -5.757888373 0.783149522 -2.703301258
H -0.935279656 3.265533708 2.486128867
H -1.869144191 0.059090526 2.944454519

