13

N -3.761353926 0.732515766 -0.399435871
C -1.271905887 -0.191969964 -0.307026600
C -1.037247558 -2.876872810 -1.097846710
N 0.976263167 -4.132311851 -0.851985518
C 2.734371341 2.532741532 0.590034876
O 3.898066767 2.808344179 2.878684321
C 0.709193787 1.181283674 0.260997332
H -5.054429338 -0.473051872 0.315834425
H -3.943864847 2.461584538 0.376422578
H -2.771686006 -3.663726801 -1.920697300
H 0.748561166 -5.915694280 -1.530794568
H 5.403646002 3.788234279 2.657533868
H 3.600981034 3.534932932 -0.983076197

