16

C 2.855481602 -1.717508353 -0.399710712
C 0.747725113 -0.602003589 1.218204368
C 0.312163235 2.237566482 0.788111187
C -1.900767435 1.960603289 -1.061356458
C -2.595881175 -0.633567797 -0.039517065
O -2.959454881 -2.660588931 -1.479395284
H 2.945949708 -3.774680804 -0.262319667
H 2.605699568 -1.234342252 -2.390763253
H 4.674508008 -0.962573254 0.220245237
H 0.878701483 -1.200038185 3.182647618
H -0.274444623 3.166997833 2.529951692
H 1.963548143 3.227774203 0.053260854
H -3.405340012 3.362354356 -0.948208274
H -1.279500262 1.778435863 -3.016810016
H -3.644351382 -0.529256144 1.756806814
H -0.905750229 -2.359746497 -0.086580750

