12

C -2.422146388 -3.403683346 -1.629354179
C -2.536720426 -0.668607477 -0.923461460
C -2.189170822 0.239217973 1.384814699
C -2.303892543 2.974327234 2.090314846
H -3.759190228 3.314736564 3.516771663
H -0.512637306 3.611820484 2.898744520
H -2.723688285 4.155751182 0.453239945
H -1.786399944 -1.082387881 2.909843542
H -2.939422424 0.653089651 -2.448434746
H -4.213833635 -4.041206832 -2.436863178
H -0.967676762 -3.743878249 -3.056679117
H -2.001469693 -4.585396423 0.007307817

