19

C -1.724576288 -3.068657203 -1.455196244
C -1.364204155 -0.292141114 -0.924062393
C -1.678879705 0.658185997 1.558227420
C -1.486810720 3.300847342 1.894630852
O 1.935949430 3.216616523 -0.580178367
C 1.877005584 0.877551622 -1.246967002
C 3.639941120 -0.918521168 0.166955546
H -3.703773896 -3.532996209 -1.815578544
H -0.647680631 -3.626814573 -3.125681031
H -1.077589640 -4.232953279 0.120919531
H -2.173422771 0.932794799 -2.364114996
H -1.320665924 -0.533464356 3.188310731
H -3.649950773 2.090192448 2.251374370
H -0.949377826 4.082356828 3.705436741
H -1.976288280 4.554775187 0.364959235
H 1.942206408 0.516596793 -3.306420484
H 3.429772981 -0.683834531 2.206533664
H 3.344731053 -2.900949339 -0.329568123
H 5.585386613 -0.421147747 -0.307046801

