12

N -2.870261131 -1.071709058 1.328292102
C -1.352878686 -0.569301236 -0.925421050
C 1.363144019 -0.336150171 -0.137639979
O 2.236073315 -2.209504219 1.421779197
C 2.812935231 1.539743158 -0.858874533
N 4.201955156 3.110830882 -1.851664508
H -3.207718860 0.532080453 2.310614563
H -4.545973315 -1.870367279 0.890307444
H -1.534163326 -2.211471802 -2.169469558
H -1.930087764 1.101358596 -1.999739857
H 4.317637765 4.767803352 -0.875671099
H 0.770299290 -2.724069802 2.389403595

