12

N -2.526334945 -0.569973751 1.344940363
C -1.131690363 -0.248518185 -1.006924427
C 1.663419497 -0.083705475 -0.439336928
O 2.555188398 -1.687779068 1.336455851
C 3.479552600 0.678652373 -2.462402165
N 3.332230931 2.622024742 -1.059999785
H -3.110583517 1.096303219 2.070879655
H -4.052190714 -1.690471059 1.127575352
H -1.384128483 -1.935144842 -2.173416686
H -1.704648219 1.381122609 -2.137956145
H 1.768961948 2.284371010 0.594461805
H 1.192677287 -1.886597966 2.549755927

