8

N -0.468536352 1.940303737 -0.375954909
C 2.979607166 -1.000113854 -0.296211452
N 1.223337035 -2.291401566 0.010091251
N -1.208357346 -2.379072556 0.219836848
C -1.994298031 0.105673088 -0.022984701
H -1.345415175 3.632316983 -0.512893402
H 4.850655824 -0.290648608 -0.530515041
H -4.036995010 0.282944686 0.123592511

