16

O -4.552085294 -1.783217041 1.553331498
C -2.492610874 -1.399624936 -0.060791280
C -1.711882771 1.318708035 -0.784429396
C 1.017602608 0.398616882 -0.663828492
C 2.976309311 0.689866291 -2.618584269
N 3.169299311 2.019817724 0.030709051
C 0.214264915 -1.878120372 0.931937147
H -4.338151101 -0.753238786 3.030186650
H -2.868921693 -2.530072275 -1.739975364
H -2.169014550 2.630184466 0.750742250
H -2.358814296 2.086964059 -2.579539825
H 2.941289889 3.910554777 0.025343249
H 4.304232406 -0.896262122 -2.470815774
H 4.295683078 1.372782019 1.427764035
H 1.098496832 -3.693817760 0.530469367
H 0.306948063 -1.496667172 2.964280958

