16

O -3.456292377 -0.725286486 2.675735294
C -2.594857869 -1.357613962 0.238919264
C -1.845605725 0.940683442 -1.401679711
C 0.911426399 0.437851263 -0.691572941
C 3.246769333 1.417421772 -1.809932760
N 2.050569408 2.084739662 1.236140855
C 0.197220228 -2.239654856 0.144656097
H -2.505054871 0.697920607 3.280243469
H -3.986439507 -2.656695415 -0.541312162
H -2.640971949 2.763869361 -0.866625925
H -2.160839803 0.612884537 -3.411883019
H 3.157176453 3.400907339 -0.142027545
H 4.805508906 0.102435912 -1.440152740
H 3.170290265 1.086061320 2.428402761
H 0.529400575 -3.603258343 -1.365490567
H 0.988076129 -2.963399949 1.906913070

