15

C -3.272348477 -1.240072978 -0.567935417
C -1.169328756 0.600188299 -1.109970645
N -0.953251405 2.769003917 0.656932012
C 1.235590170 2.132647130 1.641960769
C 1.518654344 -0.183535020 -0.285502865
N 2.095883604 -2.609578571 -0.015382541
O 4.621460088 -2.613747099 0.999461785
H -5.122463787 -0.400654177 -0.931715935
H -3.176813051 -1.878798991 1.386760172
H -3.035554398 -2.890955314 -1.775621003
H -1.236543934 1.304520878 -3.052107171
H -1.698818678 4.513559845 0.436056420
H 2.456592637 3.426725854 2.673601113
H 2.928925014 1.041888367 -1.374615261
H 5.066589745 -4.364531092 0.904625388

