17

C 3.536365893 2.196827974 -1.208466402
C 1.385523327 0.357813727 -1.008171250
C 2.091833751 -2.220554732 -0.060938244
H 2.989485918 -2.072883955 1.794223354
H 3.476393715 -3.093948655 -1.322997505
H 0.484144847 -3.488939040 0.125907331
C -0.953574624 1.023932340 -1.655664042
C -3.247863257 -0.667041726 -1.534633112
C -4.228552069 -0.811736317 1.137792591
O -4.392862036 -2.725257173 2.345357310
H -4.768848370 1.029948340 1.986330077
H -4.746542365 0.124071518 -2.718187821
H -2.861989857 -2.580848158 -2.192653210
H -1.269387808 2.948832901 -2.292662184
H 2.909383205 4.038995814 -1.883246084
H 4.452610659 2.449598553 0.626608484
H 4.981924648 1.487696907 -2.504681613

