13

N -3.731355828 0.869601885 -0.976022133
C -1.313761998 0.240201840 -0.357424349
C -0.377997022 -2.449070507 -0.434783973
N 2.270182247 -2.380605729 0.241770313
C 2.770209355 -0.052888181 0.624384163
O 5.105467043 0.687880057 1.293871497
C 0.663814829 1.704721710 0.298006446
H -5.044473089 -0.498245795 -0.938269940
H -4.361816462 2.604328761 -0.538834542
H -1.437557560 -3.643481995 0.883816858
H -0.626984974 -3.258029682 -2.323001869
H 5.133438126 2.489090786 1.483410895
H 0.712924465 3.733388512 0.533558937

