13

C -1.436531401 2.324493316 0.453830390
C 0.299507342 0.274900085 -0.446921495
N -0.994336829 -1.965582471 -1.305232474
O -1.787347245 -3.354394754 0.848001257
C 2.935136903 0.110489131 0.369556655
O 2.253868695 0.969575521 -2.101944693
H -2.726734127 2.851681476 -1.064674779
H -2.541234302 1.654531246 2.059401685
H -0.360229175 3.980253357 1.033530051
H -3.571815870 -3.549152574 0.593974596
H 3.860714006 -1.720387767 0.434435583
H 3.720512561 1.551258847 1.601917056
H 0.294694607 -3.078744221 -2.187826641

