11

O -3.975325763 1.073796090 -0.745450355
C -3.101945636 1.147977913 1.357638491
N -0.591589591 1.105095340 1.897673481
C 1.281246237 0.764693380 -0.057236308
C 2.004528102 -1.940625520 -0.471462121
C 1.867463847 -3.898426911 -1.881717163
H -4.281625991 1.292531209 3.071778124
H -0.064744474 1.026714055 3.719599464
H 0.483835178 1.489765231 -1.808821337
H 2.955407296 1.874348592 0.397881741
H 3.194090175 -3.020701472 0.912091923

