16

C -5.721149792 -0.662417415 0.717596057
C -3.165388825 0.525147407 0.806458765
N -1.163634690 -0.758205440 0.893788187
C 1.219321971 0.580561962 0.958715530
C 2.900857592 -0.251446656 -1.178572938
C 5.644132322 -0.053483482 -1.002621086
O 4.413910145 -2.420482390 -0.778430045
H -6.732415165 -0.058955468 -0.979238976
H -6.849812190 -0.059242498 2.338938270
H -5.555020170 -2.712512898 0.724625271
H -3.104511374 2.606658188 0.792843364
H 2.173135003 0.133943901 2.736492691
H 0.964321912 2.644978263 0.855884325
H 2.036884880 -0.169869636 -3.044034809
H 6.761405907 0.205337017 -2.704794671
H 6.492350500 0.662044780 0.726799212

