13

C 2.137424660 -1.179286253 -0.361357001
C 1.294003986 0.767165142 1.523924261
C -0.308570091 2.316531768 -0.134269010
C -0.236177858 -0.929391591 -2.039692409
C -2.330620621 -1.228744467 -0.038047065
N -1.511197862 0.737127907 1.750000455
H 2.360137784 -3.107066567 0.343869003
H 3.859481130 -0.619053983 -1.340909388
H 2.300655650 1.472232088 3.158714464
H -0.596449173 4.332475289 -0.363277586
H -0.391547020 1.373964062 -2.515285093
H -2.376791052 -3.120549876 0.789385316
H -4.206863418 -0.753792797 -0.742510414

