28

N    -1.56457   1.37826   3.17628
C    -1.34764   1.55758   2.04051
C    -1.08529   1.86032   0.68509
C    -1.99150   2.59410  -0.10220
N    -2.75179   3.23020  -0.72471
N    -0.04318   1.26244   0.09398
C     0.85827   0.55569  -0.24740
C     2.13107   0.04737  -0.50279
C     2.39684  -1.11489  -1.25769
C     3.72522  -1.44298  -1.50721
C     4.75591  -0.64002  -1.00196
C     4.47925   0.49637  -0.23158
C     3.16535   0.84704   0.02278
C    -0.91935  -1.56337  -0.13943
C    -0.00789  -2.09497   0.94425
O     0.68923  -3.10591   0.62269
O    -0.01798  -1.55455   2.08834
C    -2.02804  -0.90630   0.05380
C    -2.85529  -0.29197  -1.05354
O    -2.33324  -0.16401  -2.19820
O    -4.03917   0.03681  -0.74914
H     1.59230  -1.76088  -1.63631
H     3.97081  -2.32249  -2.10311
H     5.78919  -0.88433  -1.20158
H     5.24641   1.12885   0.16145
H     2.86370   1.71632   0.60698
H    -0.49462  -1.59670  -1.18906
H    -2.38278  -0.73125   1.07829
28

N    -1.56358   1.37981   3.17537
C    -1.34848   1.55435   2.03895
C    -1.09000   1.84382   0.67983
C    -1.99212   2.58915  -0.10229
N    -2.74990   3.22891  -0.72321
N    -0.03373   1.26905   0.09516
C     0.84297   0.53666  -0.24495
C     2.12505   0.04343  -0.50196
C     2.39611  -1.11674  -1.25743
C     3.72516  -1.44263  -1.50745
C     4.75452  -0.63866  -1.00174
C     4.47434   0.49722  -0.23188
C     3.15894   0.84518   0.02227
C    -0.90045  -1.54055  -0.14097
C    -0.00458  -2.09156   0.94461
O     0.68584  -3.10506   0.62137
O    -0.01897  -1.55564   2.09008
C    -2.02031  -0.89058   0.05556
C    -2.85365  -0.28946  -1.05307
O    -2.33267  -0.16471  -2.19836
O    -4.03821   0.03506  -0.74838
H     1.59275  -1.76219  -1.63635
H     3.97109  -2.32226  -2.10327
H     5.78897  -0.88347  -1.20122
H     5.24453   1.12958   0.16157
H     2.86160   1.71555   0.60711
H    -0.49424  -1.59582  -1.18933
H    -2.38173  -0.73161   1.07832
28

N    -1.56258   1.38136   3.17446
C    -1.34932   1.55112   2.03739
C    -1.09471   1.82732   0.67457
C    -1.99273   2.58420  -0.10237
N    -2.74801   3.22761  -0.72170
N    -0.02429   1.27565   0.09634
C     0.82768   0.51763  -0.24249
C     2.11903   0.03949  -0.50114
C     2.39537  -1.11859  -1.25716
C     3.72510  -1.44229  -1.50769
C     4.75313  -0.63729  -1.00153
C     4.46943   0.49806  -0.23217
C     3.15254   0.84332   0.02176
C    -0.88154  -1.51773  -0.14252
C    -0.00128  -2.08815   0.94496
O     0.68244  -3.10422   0.62006
O    -0.01997  -1.55674   2.09183
C    -2.01259  -0.87486   0.05732
C    -2.85202  -0.28696  -1.05260
O    -2.33210  -0.16542  -2.19852
O    -4.03724   0.03331  -0.74762
H     1.59319  -1.76350  -1.63639
H     3.97137  -2.32203  -2.10344
H     5.78874  -0.88260  -1.20086
H     5.24265   1.13031   0.16168
H     2.85949   1.71478   0.60725
H    -0.49385  -1.59493  -1.18960
H    -2.38068  -0.73197   1.07834
28

N    -1.56159   1.38291   3.17355
C    -1.35016   1.54789   2.03583
C    -1.09943   1.81082   0.66931
C    -1.99335   2.57925  -0.10245
N    -2.74612   3.22631  -0.72020
N    -0.01485   1.28225   0.09753
C     0.81238   0.49860  -0.24003
C     2.11301   0.03554  -0.50031
C     2.39463  -1.12045  -1.25690
C     3.72504  -1.44194  -1.50793
C     4.75173  -0.63593  -1.00131
C     4.46452   0.49891  -0.23247
C     3.14614   0.84146   0.02125
C    -0.86264  -1.49492  -0.14407
C     0.00203  -2.08475   0.94532
O     0.67904  -3.10337   0.61874
O    -0.02097  -1.55783   2.09357
C    -2.00486  -0.85914   0.05907
C    -2.85038  -0.28445  -1.05213
O    -2.33153  -0.16612  -2.19869
O    -4.03627   0.03156  -0.74685
H     1.59364  -1.76480  -1.63643
H     3.97165  -2.32179  -2.10360
H     5.78851  -0.88173  -1.20049
H     5.24077   1.13105   0.16180
H     2.85738   1.71400   0.60738
H    -0.49347  -1.59404  -1.18988
H    -2.37963  -0.73233   1.07837
28

N    -1.56060   1.38446   3.17264
C    -1.35100   1.54466   2.03427
C    -1.10414   1.79432   0.66406
C    -1.99396   2.57430  -0.10253
N    -2.74424   3.22502  -0.71870
N    -0.00540   1.28886   0.09871
C     0.79708   0.47957  -0.23758
C     2.10699   0.03160  -0.49949
C     2.39389  -1.12230  -1.25664
C     3.72498  -1.44160  -1.50816
C     4.75034  -0.63456  -1.00110
C     4.45961   0.49975  -0.23276
C     3.13974   0.83960   0.02073
C    -0.84373  -1.47210  -0.14561
C     0.00533  -2.08134   0.94567
O     0.67564  -3.10253   0.61743
O    -0.02196  -1.55893   2.09532
C    -1.99714  -0.84341   0.06083
C    -2.84875  -0.28195  -1.05167
O    -2.33096  -0.16682  -2.19885
O    -4.03530   0.02982  -0.74609
H     1.59408  -1.76611  -1.63646
H     3.97193  -2.32156  -2.10376
H     5.78828  -0.88087  -1.20013
H     5.23889   1.13178   0.16191
H     2.85528   1.71323   0.60751
H    -0.49308  -1.59316  -1.19015
H    -2.37858  -0.73269   1.07839
28

N    -1.55961   1.38601   3.17173
C    -1.35184   1.54143   2.03271
C    -1.10885   1.77782   0.65880
C    -1.99458   2.56935  -0.10261
N    -2.74235   3.22372  -0.71720
N     0.00404   1.29546   0.09989
C     0.78178   0.46054  -0.23512
C     2.10097   0.02765  -0.49867
C     2.39316  -1.12415  -1.25638
C     3.72492  -1.44125  -1.50840
C     4.74895  -0.63320  -1.00088
C     4.45471   0.50060  -0.23305
C     3.13334   0.83773   0.02022
C    -0.82483  -1.44928  -0.14716
C     0.00864  -2.07794   0.94603
O     0.67225  -3.10168   0.61611
O    -0.02296  -1.56002   2.09706
C    -1.98942  -0.82769   0.06259
C    -2.84711  -0.27944  -1.05120
O    -2.33039  -0.16753  -2.19901
O    -4.03434   0.02807  -0.74533
H     1.59453  -1.76741  -1.63650
H     3.97221  -2.32133  -2.10392
H     5.78805  -0.88000  -1.19977
H     5.23701   1.13251   0.16203
H     2.85317   1.71246   0.60764
H    -0.49270  -1.59227  -1.19042
H    -2.37752  -0.73304   1.07842
28

N    -1.55861   1.38756   3.17083
C    -1.35268   1.53820   2.03115
C    -1.11357   1.76131   0.65354
C    -1.99519   2.56440  -0.10269
N    -2.74046   3.22243  -0.71570
N     0.01349   1.30206   0.10108
C     0.76648   0.44151  -0.23266
C     2.09495   0.02371  -0.49784
C     2.39242  -1.12600  -1.25611
C     3.72487  -1.44091  -1.50864
C     4.74756  -0.63183  -1.00067
C     4.44980   0.50144  -0.23335
C     3.12694   0.83587   0.01971
C    -0.80593  -1.42647  -0.14870
C     0.01194  -2.07453   0.94638
O     0.66885  -3.10084   0.61480
O    -0.02396  -1.56112   2.09880
C    -1.98169  -0.81197   0.06434
C    -2.84548  -0.27694  -1.05073
O    -2.32982  -0.16823  -2.19917
O    -4.03337   0.02632  -0.74456
H     1.59497  -1.76872  -1.63654
H     3.97249  -2.32110  -2.10408
H     5.78783  -0.87913  -1.19941
H     5.23512   1.13324   0.16214
H     2.85106   1.71168   0.60777
H    -0.49232  -1.59138  -1.19069
H    -2.37647  -0.73340   1.07844
28

N    -1.55762   1.38911   3.16992
C    -1.35352   1.53497   2.02959
C    -1.11828   1.74481   0.64828
C    -1.99581   2.55945  -0.10277
N    -2.73857   3.22113  -0.71419
N     0.02293   1.30866   0.10226
C     0.75118   0.42248  -0.23021
C     2.08893   0.01976  -0.49702
C     2.39168  -1.12786  -1.25585
C     3.72481  -1.44056  -1.50888
C     4.74616  -0.63047  -1.00045
C     4.44489   0.50229  -0.23364
C     3.12054   0.83401   0.01919
C    -0.78702  -1.40365  -0.15025
C     0.01525  -2.07112   0.94674
O     0.66545  -3.09999   0.61348
O    -0.02495  -1.56221   2.10055
C    -1.97397  -0.79625   0.06610
C    -2.84385  -0.27443  -1.05026
O    -2.32925  -0.16894  -2.19934
O    -4.03240   0.02457  -0.74380
H     1.59542  -1.77003  -1.63658
H     3.97277  -2.32087  -2.10425
H     5.78760  -0.87827  -1.19905
H     5.23324   1.13397   0.16226
H     2.84895   1.71091   0.60790
H    -0.49193  -1.59049  -1.19096
H    -2.37542  -0.73376   1.07847
28

N    -1.55663   1.39066   3.16901
C    -1.35437   1.53174   2.02803
C    -1.12299   1.72831   0.64302
C    -1.99642   2.55450  -0.10285
N    -2.73668   3.21984  -0.71269
N     0.03237   1.31527   0.10344
C     0.73589   0.40345  -0.22775
C     2.08291   0.01582  -0.49619
C     2.39094  -1.12971  -1.25559
C     3.72475  -1.44022  -1.50912
C     4.74477  -0.62910  -1.00023
C     4.43998   0.50314  -0.23394
C     3.11414   0.83215   0.01868
C    -0.76812  -1.38083  -0.15180
C     0.01855  -2.06772   0.94709
O     0.66205  -3.09914   0.61217
O    -0.02595  -1.56330   2.10229
C    -1.96624  -0.78053   0.06786
C    -2.84221  -0.27193  -1.04980
O    -2.32868  -0.16964  -2.19950
O    -4.03144   0.02282  -0.74304
H     1.59586  -1.77133  -1.63662
H     3.97306  -2.32063  -2.10441
H     5.78737  -0.87740  -1.19869
H     5.23136   1.13470   0.16237
H     2.84685   1.71014   0.60804
H    -0.49155  -1.58961  -1.19124
H    -2.37437  -0.73412   1.07849
28

N    -1.55563   1.39221   3.16810
C    -1.35521   1.52851   2.02647
C    -1.12771   1.71181   0.63776
C    -1.99703   2.54955  -0.10294
N    -2.73479   3.21854  -0.71119
N     0.04182   1.32187   0.10462
C     0.72059   0.38442  -0.22529
C     2.07689   0.01187  -0.49537
C     2.39021  -1.13156  -1.25533
C     3.72469  -1.43987  -1.50935
C     4.74338  -0.62774  -1.00002
C     4.43507   0.50398  -0.23423
C     3.10773   0.83029   0.01817
C    -0.74921  -1.35801  -0.15334
C     0.02185  -2.06431   0.94745
O     0.65866  -3.09830   0.61085
O    -0.02695  -1.56440   2.10404
C    -1.95852  -0.76481   0.06961
C    -2.84058  -0.26942  -1.04933
O    -2.32811  -0.17034  -2.19966
O    -4.03047   0.02107  -0.74227
H     1.59631  -1.77264  -1.63666
H     3.97334  -2.32040  -2.10457
H     5.78714  -0.87654  -1.19832
H     5.22948   1.13543   0.16249
H     2.84474   1.70937   0.60817
H    -0.49116  -1.58872  -1.19151
H    -2.37332  -0.73448   1.07852
28

N    -1.55464   1.39375   3.16719
C    -1.35605   1.52528   2.02491
C    -1.13242   1.69531   0.63251
C    -1.99765   2.54460  -0.10302
N    -2.73290   3.21724  -0.70969
N     0.05126   1.32847   0.10581
C     0.70529   0.36539  -0.22283
C     2.07087   0.00793  -0.49455
C     2.38947  -1.13342  -1.25506
C     3.72463  -1.43953  -1.50959
C     4.74198  -0.62637  -0.99980
C     4.43017   0.50483  -0.23453
C     3.10133   0.82842   0.01766
C    -0.73031  -1.33520  -0.15489
C     0.02516  -2.06091   0.94780
O     0.65526  -3.09745   0.60954
O    -0.02794  -1.56549   2.10578
C    -1.95080  -0.74909   0.07137
C    -2.83894  -0.26692  -1.04886
O    -2.32754  -0.17105  -2.19983
O    -4.02950   0.01932  -0.74151
H     1.59675  -1.77395  -1.63670
H     3.97362  -2.32017  -2.10473
H     5.78691  -0.87567  -1.19796
H     5.22760   1.13616   0.16261
H     2.84263   1.70859   0.60830
H    -0.49078  -1.58783  -1.19178
H    -2.37226  -0.73483   1.07854
28

N    -1.55365   1.39530   3.16628
C    -1.35689   1.52204   2.02335
C    -1.13713   1.67881   0.62725
C    -1.99826   2.53965  -0.10310
N    -2.73101   3.21595  -0.70818
N     0.06070   1.33508   0.10699
C     0.68999   0.34635  -0.22038
C     2.06485   0.00398  -0.49372
C     2.38873  -1.13527  -1.25480
C     3.72457  -1.43918  -1.50983
C     4.74059  -0.62500  -0.99959
C     4.42526   0.50567  -0.23482
C     3.09493   0.82656   0.01714
C    -0.71141  -1.31238  -0.15643
C     0.02846  -2.05750   0.94816
O     0.65186  -3.09661   0.60822
O    -0.02894  -1.56659   2.10752
C    -1.94307  -0.73337   0.07313
C    -2.83731  -0.26441  -1.04840
O    -2.32696  -0.17175  -2.19999
O    -4.02853   0.01757  -0.74075
H     1.59720  -1.77525  -1.63674
H     3.97390  -2.31994  -2.10489
H     5.78669  -0.87480  -1.19760
H     5.22572   1.13689   0.16272
H     2.84052   1.70782   0.60843
H    -0.49039  -1.58695  -1.19205
H    -2.37121  -0.73519   1.07857
28

N    -1.55266   1.39685   3.16537
C    -1.35773   1.51881   2.02179
C    -1.14185   1.66231   0.62199
C    -1.99888   2.53470  -0.10318
N    -2.72912   3.21465  -0.70668
N     0.07015   1.34168   0.10817
C     0.67469   0.32732  -0.21792
C     2.05882   0.00004  -0.49290
C     2.38799  -1.13712  -1.25454
C     3.72452  -1.43884  -1.51007
C     4.73920  -0.62364  -0.99937
C     4.42035   0.50652  -0.23511
C     3.08853   0.82470   0.01663
C    -0.69250  -1.28956  -0.15798
C     0.03177  -2.05409   0.94851
O     0.64846  -3.09576   0.60691
O    -0.02994  -1.56768   2.10927
C    -1.93535  -0.71765   0.07488
C    -2.83568  -0.26191  -1.04793
O    -2.32639  -0.17246  -2.20015
O    -4.02757   0.01582  -0.73998
H     1.59764  -1.77656  -1.63678
H     3.97418  -2.31971  -2.10506
H     5.78646  -0.87394  -1.19724
H     5.22384   1.13762   0.16284
H     2.83842   1.70705   0.60856
H    -0.49001  -1.58606  -1.19232
H    -2.37016  -0.73555   1.07859
28

N    -1.55166   1.39840   3.16446
C    -1.35857   1.51558   2.02023
C    -1.14656   1.64581   0.61673
C    -1.99949   2.52975  -0.10326
N    -2.72723   3.21336  -0.70518
N     0.07959   1.34828   0.10935
C     0.65939   0.30829  -0.21546
C     2.05280  -0.00390  -0.49207
C     2.38726  -1.13897  -1.25428
C     3.72446  -1.43849  -1.51031
C     4.73781  -0.62227  -0.99916
C     4.41544   0.50736  -0.23541
C     3.08213   0.82284   0.01612
C    -0.67360  -1.26675  -0.15953
C     0.03507  -2.05069   0.94887
O     0.64506  -3.09491   0.60559
O    -0.03093  -1.56878   2.11101
C    -1.92762  -0.70193   0.07664
C    -2.83404  -0.25940  -1.04746
O    -2.32582  -0.17316  -2.20031
O    -4.02660   0.01407  -0.73922
H     1.59808  -1.77787  -1.63681
H     3.97446  -2.31947  -2.10522
H     5.78623  -0.87307  -1.19688
H     5.22196   1.13835   0.16295
H     2.83631   1.70628   0.60869
H    -0.48962  -1.58517  -1.19260
H    -2.36911  -0.73591   1.07862
28

N    -1.55067   1.39995   3.16355
C    -1.35941   1.51235   2.01867
C    -1.15127   1.62931   0.61147
C    -2.00011   2.52480  -0.10334
N    -2.72534   3.21206  -0.70368
N     0.08904   1.35489   0.11054
C     0.64409   0.28926  -0.21301
C     2.04678  -0.00785  -0.49125
C     2.38652  -1.14083  -1.25401
C     3.72440  -1.43815  -1.51054
C     4.73641  -0.62091  -0.99894
C     4.41053   0.50821  -0.23570
C     3.07573   0.82098   0.01561
C    -0.65469  -1.24393  -0.16107
C     0.03838  -2.04728   0.94922
O     0.64167  -3.09407   0.60428
O    -0.03193  -1.56987   2.11276
C    -1.91990  -0.68621   0.07840
C    -2.83241  -0.25690  -1.04699
O    -2.32525  -0.17386  -2.20048
O    -4.02563   0.01233  -0.73846
H     1.59853  -1.77917  -1.63685
H     3.97474  -2.31924  -2.10538
H     5.78600  -0.87220  -1.19652
H     5.22008   1.13908   0.16307
H     2.83420   1.70550   0.60883
H    -0.48924  -1.58429  -1.19287
H    -2.36806  -0.73627   1.07864
28

N    -1.54968   1.40150   3.16265
C    -1.36025   1.50912   2.01711
C    -1.15599   1.61281   0.60622
C    -2.00072   2.51985  -0.10342
N    -2.72345   3.21076  -0.70217
N     0.09848   1.36149   0.11172
C     0.62880   0.27023  -0.21055
C     2.04076  -0.01179  -0.49043
C     2.38578  -1.14268  -1.25375
C     3.72434  -1.43780  -1.51078
C     4.73502  -0.61954  -0.99873
C     4.40563   0.50905  -0.23600
C     3.06933   0.81911   0.01509
C    -0.63579  -1.22111  -0.16262
C     0.04168  -2.04388   0.94958
O     0.63827  -3.09322   0.60296
O    -0.03292  -1.57097   2.11450
C    -1.91218  -0.67049   0.08015
C    -2.83077  -0.25439  -1.04653
O    -2.32468  -0.17457  -2.20064
O    -4.02467   0.01058  -0.73769
H     1.59897  -1.78048  -1.63689
H     3.97502  -2.31901  -2.10554
H     5.78577  -0.87134  -1.19615
H     5.21820   1.13981   0.16318
H     2.83210   1.70473   0.60896
H    -0.48885  -1.58340  -1.19314
H    -2.36701  -0.73662   1.07867
28

N    -1.54868   1.40305   3.16174
C    -1.36109   1.50589   2.01555
C    -1.16070   1.59631   0.60096
C    -2.00134   2.51490  -0.10350
N    -2.72157   3.20947  -0.70067
N     0.10792   1.36809   0.11290
C     0.61350   0.25120  -0.20809
C     2.03474  -0.01574  -0.48960
C     2.38504  -1.14453  -1.25349
C     3.72428  -1.43746  -1.51102
C     4.73363  -0.61818  -0.99851
C     4.40072   0.50990  -0.23629
C     3.06292   0.81725   0.01458
C    -0.61689  -1.19830  -0.16416
C     0.04499  -2.04047   0.94993
O     0.63487  -3.09238   0.60165
O    -0.03392  -1.57206   2.11625
C    -1.90445  -0.65476   0.08191
C    -2.82914  -0.25189  -1.04606
O    -2.32411  -0.17527  -2.20080
O    -4.02370   0.00883  -0.73693
H     1.59942  -1.78178  -1.63693
H     3.97530  -2.31878  -2.10570
H     5.78555  -0.87047  -1.19579
H     5.21632   1.14054   0.16330
H     2.82999   1.70396   0.60909
H    -0.48847  -1.58251  -1.19341
H    -2.36595  -0.73698   1.07869
28

N    -1.54769   1.40460   3.16083
C    -1.36193   1.50266   2.01399
C    -1.16541   1.57981   0.59570
C    -2.00195   2.50995  -0.10359
N    -2.71968   3.20817  -0.69917
N     0.11737   1.37469   0.11409
C     0.59820   0.23217  -0.20564
C     2.02872  -0.01968  -0.48878
C     2.38431  -1.14639  -1.25323
C     3.72422  -1.43711  -1.51126
C     4.73223  -0.61681  -0.99830
C     4.39581   0.51074  -0.23658
C     3.05652   0.81539   0.01407
C    -0.59798  -1.17548  -0.16571
C     0.04829  -2.03706   0.95028
O     0.63147  -3.09153   0.60033
O    -0.03492  -1.57316   2.11799
C    -1.89673  -0.63904   0.08366
C    -2.82750  -0.24938  -1.04559
O    -2.32354  -0.17597  -2.20096
O    -4.02273   0.00708  -0.73617
H     1.59986  -1.78309  -1.63697
H     3.97558  -2.31855  -2.10587
H     5.78532  -0.86961  -1.19543
H     5.21444   1.14127   0.16341
H     2.82788   1.70319   0.60922
H    -0.48809  -1.58162  -1.19368
H    -2.36490  -0.73734   1.07872
28

N    -1.54670   1.40615   3.15992
C    -1.36277   1.49943   2.01242
C    -1.17013   1.56331   0.59044
C    -2.00257   2.50500  -0.10367
N    -2.71779   3.20688  -0.69767
N     0.12681   1.38130   0.11527
C     0.58290   0.21314  -0.20318
C     2.02270  -0.02363  -0.48795
C     2.38357  -1.14824  -1.25296
C     3.72417  -1.43677  -1.51150
C     4.73084  -0.61545  -0.99808
C     4.39090   0.51159  -0.23688
C     3.05012   0.81353   0.01355
C    -0.57908  -1.15266  -0.16726
C     0.05160  -2.03366   0.95064
O     0.62808  -3.09069   0.59902
O    -0.03591  -1.57425   2.11973
C    -1.88900  -0.62332   0.08542
C    -2.82587  -0.24688  -1.04512
O    -2.32297  -0.17668  -2.20113
O    -4.02176   0.00533  -0.73540
H     1.60031  -1.78440  -1.63701
H     3.97587  -2.31831  -2.10603
H     5.78509  -0.86874  -1.19507
H     5.21256   1.14200   0.16353
H     2.82577   1.70241   0.60935
H    -0.48770  -1.58074  -1.19396
H    -2.36385  -0.73770   1.07874
28

N    -1.54571   1.40770   3.15901
C    -1.36361   1.49620   2.01086
C    -1.17484   1.54681   0.58518
C    -2.00318   2.50005  -0.10375
N    -2.71590   3.20558  -0.69616
N     0.13625   1.38790   0.11645
C     0.56760   0.19411  -0.20072
C     2.01668  -0.02757  -0.48713
C     2.38283  -1.15009  -1.25270
C     3.72411  -1.43642  -1.51173
C     4.72945  -0.61408  -0.99787
C     4.38599   0.51243  -0.23717
C     3.04372   0.81167   0.01304
C    -0.56017  -1.12985  -0.16880
C     0.05490  -2.03025   0.95099
O     0.62468  -3.08984   0.59770
O    -0.03691  -1.57535   2.12148
C    -1.88128  -0.60760   0.08718
C    -2.82424  -0.24437  -1.04466
O    -2.32240  -0.17738  -2.20129
O    -4.02080   0.00358  -0.73464
H     1.60075  -1.78570  -1.63705
H     3.97615  -2.31808  -2.10619
H     5.78486  -0.86787  -1.19471
H     5.21068   1.14274   0.16364
H     2.82367   1.70164   0.60949
H    -0.48732  -1.57985  -1.19423
H    -2.36280  -0.73806   1.07877
28

N    -1.54471   1.40925   3.15810
C    -1.36445   1.49297   2.00930
C    -1.17956   1.53031   0.57992
C    -2.00380   2.49510  -0.10383
N    -2.71401   3.20429  -0.69466
N     0.14570   1.39450   0.11763
C     0.55230   0.17508  -0.19827
C     2.01066  -0.03152  -0.48631
C     2.38209  -1.15194  -1.25244
C     3.72405  -1.43608  -1.51197
C     4.72806  -0.61272  -0.99765
C     4.38108   0.51328  -0.23747
C     3.03732   0.80980   0.01253
C    -0.54127  -1.10703  -0.17035
C     0.05821  -2.02685   0.95135
O     0.62128  -3.08899   0.59638
O    -0.03791  -1.57644   2.12322
C    -1.87355  -0.59188   0.08893
C    -2.82260  -0.24187  -1.04419
O    -2.32183  -0.17809  -2.20145
O    -4.01983   0.00183  -0.73387
H     1.60120  -1.78701  -1.63709
H     3.97643  -2.31785  -2.10635
H     5.78463  -0.86701  -1.19435
H     5.20880   1.14347   0.16376
H     2.82156   1.70087   0.60962
H    -0.48693  -1.57896  -1.19450
H    -2.36175  -0.73841   1.07879
28

N    -1.54571   1.40770   3.15901
C    -1.36361   1.49620   2.01086
C    -1.17484   1.54681   0.58518
C    -2.00318   2.50005  -0.10375
N    -2.71590   3.20558  -0.69616
N     0.13625   1.38790   0.11645
C     0.56760   0.19411  -0.20072
C     2.01668  -0.02757  -0.48713
C     2.38283  -1.15009  -1.25270
C     3.72411  -1.43642  -1.51173
C     4.72945  -0.61408  -0.99787
C     4.38599   0.51243  -0.23717
C     3.04372   0.81167   0.01304
C    -0.56017  -1.12985  -0.16880
C     0.05490  -2.03025   0.95099
O     0.62468  -3.08984   0.59770
O    -0.03691  -1.57535   2.12148
C    -1.88128  -0.60760   0.08718
C    -2.82424  -0.24437  -1.04466
O    -2.32240  -0.17738  -2.20129
O    -4.02080   0.00358  -0.73464
H     1.60075  -1.78570  -1.63705
H     3.97615  -2.31808  -2.10619
H     5.78486  -0.86787  -1.19471
H     5.21068   1.14274   0.16364
H     2.82367   1.70164   0.60949
H    -0.48732  -1.57985  -1.19423
H    -2.36280  -0.73806   1.07877
28

N    -1.54670   1.40615   3.15992
C    -1.36277   1.49943   2.01242
C    -1.17013   1.56331   0.59044
C    -2.00257   2.50500  -0.10367
N    -2.71779   3.20688  -0.69767
N     0.12681   1.38130   0.11527
C     0.58290   0.21314  -0.20318
C     2.02270  -0.02363  -0.48795
C     2.38357  -1.14824  -1.25296
C     3.72417  -1.43677  -1.51150
C     4.73084  -0.61545  -0.99808
C     4.39090   0.51159  -0.23688
C     3.05012   0.81353   0.01355
C    -0.57908  -1.15266  -0.16726
C     0.05160  -2.03366   0.95064
O     0.62808  -3.09069   0.59902
O    -0.03591  -1.57425   2.11973
C    -1.88900  -0.62332   0.08542
C    -2.82587  -0.24688  -1.04512
O    -2.32297  -0.17668  -2.20113
O    -4.02176   0.00533  -0.73540
H     1.60031  -1.78440  -1.63701
H     3.97587  -2.31831  -2.10603
H     5.78509  -0.86874  -1.19507
H     5.21256   1.14200   0.16353
H     2.82577   1.70241   0.60935
H    -0.48770  -1.58074  -1.19396
H    -2.36385  -0.73770   1.07874
28

N    -1.54769   1.40460   3.16083
C    -1.36193   1.50266   2.01399
C    -1.16541   1.57981   0.59570
C    -2.00195   2.50995  -0.10359
N    -2.71968   3.20817  -0.69917
N     0.11737   1.37469   0.11409
C     0.59820   0.23217  -0.20564
C     2.02872  -0.01968  -0.48878
C     2.38431  -1.14639  -1.25323
C     3.72422  -1.43711  -1.51126
C     4.73223  -0.61681  -0.99830
C     4.39581   0.51074  -0.23658
C     3.05652   0.81539   0.01407
C    -0.59798  -1.17548  -0.16571
C     0.04829  -2.03706   0.95028
O     0.63147  -3.09153   0.60033
O    -0.03492  -1.57316   2.11799
C    -1.89673  -0.63904   0.08366
C    -2.82750  -0.24938  -1.04559
O    -2.32354  -0.17597  -2.20096
O    -4.02273   0.00708  -0.73617
H     1.59986  -1.78309  -1.63697
H     3.97558  -2.31855  -2.10587
H     5.78532  -0.86961  -1.19543
H     5.21444   1.14127   0.16341
H     2.82788   1.70319   0.60922
H    -0.48809  -1.58162  -1.19368
H    -2.36490  -0.73734   1.07872
28

N    -1.54868   1.40305   3.16174
C    -1.36109   1.50589   2.01555
C    -1.16070   1.59631   0.60096
C    -2.00134   2.51490  -0.10350
N    -2.72157   3.20947  -0.70067
N     0.10792   1.36809   0.11290
C     0.61350   0.25120  -0.20809
C     2.03474  -0.01574  -0.48960
C     2.38504  -1.14453  -1.25349
C     3.72428  -1.43746  -1.51102
C     4.73363  -0.61818  -0.99851
C     4.40072   0.50990  -0.23629
C     3.06292   0.81725   0.01458
C    -0.61689  -1.19830  -0.16416
C     0.04499  -2.04047   0.94993
O     0.63487  -3.09238   0.60165
O    -0.03392  -1.57206   2.11625
C    -1.90445  -0.65476   0.08191
C    -2.82914  -0.25189  -1.04606
O    -2.32411  -0.17527  -2.20080
O    -4.02370   0.00883  -0.73693
H     1.59942  -1.78178  -1.63693
H     3.97530  -2.31878  -2.10570
H     5.78555  -0.87047  -1.19579
H     5.21632   1.14054   0.16330
H     2.82999   1.70396   0.60909
H    -0.48847  -1.58251  -1.19341
H    -2.36595  -0.73698   1.07869
28

N    -1.54968   1.40150   3.16265
C    -1.36025   1.50912   2.01711
C    -1.15599   1.61281   0.60622
C    -2.00072   2.51985  -0.10342
N    -2.72345   3.21076  -0.70217
N     0.09848   1.36149   0.11172
C     0.62880   0.27023  -0.21055
C     2.04076  -0.01179  -0.49043
C     2.38578  -1.14268  -1.25375
C     3.72434  -1.43780  -1.51078
C     4.73502  -0.61954  -0.99873
C     4.40563   0.50905  -0.23600
C     3.06933   0.81911   0.01509
C    -0.63579  -1.22111  -0.16262
C     0.04168  -2.04388   0.94958
O     0.63827  -3.09322   0.60296
O    -0.03292  -1.57097   2.11450
C    -1.91218  -0.67049   0.08015
C    -2.83077  -0.25439  -1.04653
O    -2.32468  -0.17457  -2.20064
O    -4.02467   0.01058  -0.73769
H     1.59897  -1.78048  -1.63689
H     3.97502  -2.31901  -2.10554
H     5.78577  -0.87134  -1.19615
H     5.21820   1.13981   0.16318
H     2.83210   1.70473   0.60896
H    -0.48885  -1.58340  -1.19314
H    -2.36701  -0.73662   1.07867
28

N    -1.55067   1.39995   3.16355
C    -1.35941   1.51235   2.01867
C    -1.15127   1.62931   0.61147
C    -2.00011   2.52480  -0.10334
N    -2.72534   3.21206  -0.70368
N     0.08904   1.35489   0.11054
C     0.64409   0.28926  -0.21301
C     2.04678  -0.00785  -0.49125
C     2.38652  -1.14083  -1.25401
C     3.72440  -1.43815  -1.51054
C     4.73641  -0.62091  -0.99894
C     4.41053   0.50821  -0.23570
C     3.07573   0.82098   0.01561
C    -0.65469  -1.24393  -0.16107
C     0.03838  -2.04728   0.94922
O     0.64167  -3.09407   0.60428
O    -0.03193  -1.56987   2.11276
C    -1.91990  -0.68621   0.07840
C    -2.83241  -0.25690  -1.04699
O    -2.32525  -0.17386  -2.20048
O    -4.02563   0.01233  -0.73846
H     1.59853  -1.77917  -1.63685
H     3.97474  -2.31924  -2.10538
H     5.78600  -0.87220  -1.19652
H     5.22008   1.13908   0.16307
H     2.83420   1.70550   0.60883
H    -0.48924  -1.58429  -1.19287
H    -2.36806  -0.73627   1.07864
28

N    -1.55166   1.39840   3.16446
C    -1.35857   1.51558   2.02023
C    -1.14656   1.64581   0.61673
C    -1.99949   2.52975  -0.10326
N    -2.72723   3.21336  -0.70518
N     0.07959   1.34828   0.10935
C     0.65939   0.30829  -0.21546
C     2.05280  -0.00390  -0.49207
C     2.38726  -1.13897  -1.25428
C     3.72446  -1.43849  -1.51031
C     4.73781  -0.62227  -0.99916
C     4.41544   0.50736  -0.23541
C     3.08213   0.82284   0.01612
C    -0.67360  -1.26675  -0.15953
C     0.03507  -2.05069   0.94887
O     0.64506  -3.09491   0.60559
O    -0.03093  -1.56878   2.11101
C    -1.92762  -0.70193   0.07664
C    -2.83404  -0.25940  -1.04746
O    -2.32582  -0.17316  -2.20031
O    -4.02660   0.01407  -0.73922
H     1.59808  -1.77787  -1.63681
H     3.97446  -2.31947  -2.10522
H     5.78623  -0.87307  -1.19688
H     5.22196   1.13835   0.16295
H     2.83631   1.70628   0.60869
H    -0.48962  -1.58517  -1.19260
H    -2.36911  -0.73591   1.07862
28

N    -1.55266   1.39685   3.16537
C    -1.35773   1.51881   2.02179
C    -1.14185   1.66231   0.62199
C    -1.99888   2.53470  -0.10318
N    -2.72912   3.21465  -0.70668
N     0.07015   1.34168   0.10817
C     0.67469   0.32732  -0.21792
C     2.05882   0.00004  -0.49290
C     2.38799  -1.13712  -1.25454
C     3.72452  -1.43884  -1.51007
C     4.73920  -0.62364  -0.99937
C     4.42035   0.50652  -0.23511
C     3.08853   0.82470   0.01663
C    -0.69250  -1.28956  -0.15798
C     0.03177  -2.05409   0.94851
O     0.64846  -3.09576   0.60691
O    -0.02994  -1.56768   2.10927
C    -1.93535  -0.71765   0.07488
C    -2.83568  -0.26191  -1.04793
O    -2.32639  -0.17246  -2.20015
O    -4.02757   0.01582  -0.73998
H     1.59764  -1.77656  -1.63678
H     3.97418  -2.31971  -2.10506
H     5.78646  -0.87394  -1.19724
H     5.22384   1.13762   0.16284
H     2.83842   1.70705   0.60856
H    -0.49001  -1.58606  -1.19232
H    -2.37016  -0.73555   1.07859
28

N    -1.55365   1.39530   3.16628
C    -1.35689   1.52204   2.02335
C    -1.13713   1.67881   0.62725
C    -1.99826   2.53965  -0.10310
N    -2.73101   3.21595  -0.70818
N     0.06070   1.33508   0.10699
C     0.68999   0.34635  -0.22038
C     2.06485   0.00398  -0.49372
C     2.38873  -1.13527  -1.25480
C     3.72457  -1.43918  -1.50983
C     4.74059  -0.62500  -0.99959
C     4.42526   0.50567  -0.23482
C     3.09493   0.82656   0.01714
C    -0.71141  -1.31238  -0.15643
C     0.02846  -2.05750   0.94816
O     0.65186  -3.09661   0.60822
O    -0.02894  -1.56659   2.10752
C    -1.94307  -0.73337   0.07313
C    -2.83731  -0.26441  -1.04840
O    -2.32696  -0.17175  -2.19999
O    -4.02853   0.01757  -0.74075
H     1.59720  -1.77525  -1.63674
H     3.97390  -2.31994  -2.10489
H     5.78669  -0.87480  -1.19760
H     5.22572   1.13689   0.16272
H     2.84052   1.70782   0.60843
H    -0.49039  -1.58695  -1.19205
H    -2.37121  -0.73519   1.07857
28

N    -1.55464   1.39375   3.16719
C    -1.35605   1.52528   2.02491
C    -1.13242   1.69531   0.63251
C    -1.99765   2.54460  -0.10302
N    -2.73290   3.21724  -0.70969
N     0.05126   1.32847   0.10581
C     0.70529   0.36539  -0.22283
C     2.07087   0.00793  -0.49455
C     2.38947  -1.13342  -1.25506
C     3.72463  -1.43953  -1.50959
C     4.74198  -0.62637  -0.99980
C     4.43017   0.50483  -0.23453
C     3.10133   0.82842   0.01766
C    -0.73031  -1.33520  -0.15489
C     0.02516  -2.06091   0.94780
O     0.65526  -3.09745   0.60954
O    -0.02794  -1.56549   2.10578
C    -1.95080  -0.74909   0.07137
C    -2.83894  -0.26692  -1.04886
O    -2.32754  -0.17105  -2.19983
O    -4.02950   0.01932  -0.74151
H     1.59675  -1.77395  -1.63670
H     3.97362  -2.32017  -2.10473
H     5.78691  -0.87567  -1.19796
H     5.22760   1.13616   0.16261
H     2.84263   1.70859   0.60830
H    -0.49078  -1.58783  -1.19178
H    -2.37226  -0.73483   1.07854
28

N    -1.55563   1.39221   3.16810
C    -1.35521   1.52851   2.02647
C    -1.12771   1.71181   0.63776
C    -1.99703   2.54955  -0.10294
N    -2.73479   3.21854  -0.71119
N     0.04182   1.32187   0.10462
C     0.72059   0.38442  -0.22529
C     2.07689   0.01187  -0.49537
C     2.39021  -1.13156  -1.25533
C     3.72469  -1.43987  -1.50935
C     4.74338  -0.62774  -1.00002
C     4.43507   0.50398  -0.23423
C     3.10773   0.83029   0.01817
C    -0.74921  -1.35801  -0.15334
C     0.02185  -2.06431   0.94745
O     0.65866  -3.09830   0.61085
O    -0.02695  -1.56440   2.10404
C    -1.95852  -0.76481   0.06961
C    -2.84058  -0.26942  -1.04933
O    -2.32811  -0.17034  -2.19966
O    -4.03047   0.02107  -0.74227
H     1.59631  -1.77264  -1.63666
H     3.97334  -2.32040  -2.10457
H     5.78714  -0.87654  -1.19832
H     5.22948   1.13543   0.16249
H     2.84474   1.70937   0.60817
H    -0.49116  -1.58872  -1.19151
H    -2.37332  -0.73448   1.07852
28

N    -1.55663   1.39066   3.16901
C    -1.35437   1.53174   2.02803
C    -1.12299   1.72831   0.64302
C    -1.99642   2.55450  -0.10285
N    -2.73668   3.21984  -0.71269
N     0.03237   1.31527   0.10344
C     0.73589   0.40345  -0.22775
C     2.08291   0.01582  -0.49619
C     2.39094  -1.12971  -1.25559
C     3.72475  -1.44022  -1.50912
C     4.74477  -0.62910  -1.00023
C     4.43998   0.50314  -0.23394
C     3.11414   0.83215   0.01868
C    -0.76812  -1.38083  -0.15180
C     0.01855  -2.06772   0.94709
O     0.66205  -3.09914   0.61217
O    -0.02595  -1.56330   2.10229
C    -1.96624  -0.78053   0.06786
C    -2.84221  -0.27193  -1.04980
O    -2.32868  -0.16964  -2.19950
O    -4.03144   0.02282  -0.74304
H     1.59586  -1.77133  -1.63662
H     3.97306  -2.32063  -2.10441
H     5.78737  -0.87740  -1.19869
H     5.23136   1.13470   0.16237
H     2.84685   1.71014   0.60804
H    -0.49155  -1.58961  -1.19124
H    -2.37437  -0.73412   1.07849
28

N    -1.55762   1.38911   3.16992
C    -1.35352   1.53497   2.02959
C    -1.11828   1.74481   0.64828
C    -1.99581   2.55945  -0.10277
N    -2.73857   3.22113  -0.71419
N     0.02293   1.30866   0.10226
C     0.75118   0.42248  -0.23021
C     2.08893   0.01976  -0.49702
C     2.39168  -1.12786  -1.25585
C     3.72481  -1.44056  -1.50888
C     4.74616  -0.63047  -1.00045
C     4.44489   0.50229  -0.23364
C     3.12054   0.83401   0.01919
C    -0.78702  -1.40365  -0.15025
C     0.01525  -2.07112   0.94674
O     0.66545  -3.09999   0.61348
O    -0.02495  -1.56221   2.10055
C    -1.97397  -0.79625   0.06610
C    -2.84385  -0.27443  -1.05026
O    -2.32925  -0.16894  -2.19934
O    -4.03240   0.02457  -0.74380
H     1.59542  -1.77003  -1.63658
H     3.97277  -2.32087  -2.10425
H     5.78760  -0.87827  -1.19905
H     5.23324   1.13397   0.16226
H     2.84895   1.71091   0.60790
H    -0.49193  -1.59049  -1.19096
H    -2.37542  -0.73376   1.07847
28

N    -1.55861   1.38756   3.17083
C    -1.35268   1.53820   2.03115
C    -1.11357   1.76131   0.65354
C    -1.99519   2.56440  -0.10269
N    -2.74046   3.22243  -0.71570
N     0.01349   1.30206   0.10108
C     0.76648   0.44151  -0.23266
C     2.09495   0.02371  -0.49784
C     2.39242  -1.12600  -1.25611
C     3.72487  -1.44091  -1.50864
C     4.74756  -0.63183  -1.00067
C     4.44980   0.50144  -0.23335
C     3.12694   0.83587   0.01971
C    -0.80593  -1.42647  -0.14870
C     0.01194  -2.07453   0.94638
O     0.66885  -3.10084   0.61480
O    -0.02396  -1.56112   2.09880
C    -1.98169  -0.81197   0.06434
C    -2.84548  -0.27694  -1.05073
O    -2.32982  -0.16823  -2.19917
O    -4.03337   0.02632  -0.74456
H     1.59497  -1.76872  -1.63654
H     3.97249  -2.32110  -2.10408
H     5.78783  -0.87913  -1.19941
H     5.23512   1.13324   0.16214
H     2.85106   1.71168   0.60777
H    -0.49232  -1.59138  -1.19069
H    -2.37647  -0.73340   1.07844
28

N    -1.55961   1.38601   3.17173
C    -1.35184   1.54143   2.03271
C    -1.10885   1.77782   0.65880
C    -1.99458   2.56935  -0.10261
N    -2.74235   3.22372  -0.71720
N     0.00404   1.29546   0.09989
C     0.78178   0.46054  -0.23512
C     2.10097   0.02765  -0.49867
C     2.39316  -1.12415  -1.25638
C     3.72492  -1.44125  -1.50840
C     4.74895  -0.63320  -1.00088
C     4.45471   0.50060  -0.23305
C     3.13334   0.83773   0.02022
C    -0.82483  -1.44928  -0.14716
C     0.00864  -2.07794   0.94603
O     0.67225  -3.10168   0.61611
O    -0.02296  -1.56002   2.09706
C    -1.98942  -0.82769   0.06259
C    -2.84711  -0.27944  -1.05120
O    -2.33039  -0.16753  -2.19901
O    -4.03434   0.02807  -0.74533
H     1.59453  -1.76741  -1.63650
H     3.97221  -2.32133  -2.10392
H     5.78805  -0.88000  -1.19977
H     5.23701   1.13251   0.16203
H     2.85317   1.71246   0.60764
H    -0.49270  -1.59227  -1.19042
H    -2.37752  -0.73304   1.07842
28

N    -1.56060   1.38446   3.17264
C    -1.35100   1.54466   2.03427
C    -1.10414   1.79432   0.66406
C    -1.99396   2.57430  -0.10253
N    -2.74424   3.22502  -0.71870
N    -0.00540   1.28886   0.09871
C     0.79708   0.47957  -0.23758
C     2.10699   0.03160  -0.49949
C     2.39389  -1.12230  -1.25664
C     3.72498  -1.44160  -1.50816
C     4.75034  -0.63456  -1.00110
C     4.45961   0.49975  -0.23276
C     3.13974   0.83960   0.02073
C    -0.84373  -1.47210  -0.14561
C     0.00533  -2.08134   0.94567
O     0.67564  -3.10253   0.61743
O    -0.02196  -1.55893   2.09532
C    -1.99714  -0.84341   0.06083
C    -2.84875  -0.28195  -1.05167
O    -2.33096  -0.16682  -2.19885
O    -4.03530   0.02982  -0.74609
H     1.59408  -1.76611  -1.63646
H     3.97193  -2.32156  -2.10376
H     5.78828  -0.88087  -1.20013
H     5.23889   1.13178   0.16191
H     2.85528   1.71323   0.60751
H    -0.49308  -1.59316  -1.19015
H    -2.37858  -0.73269   1.07839
28

N    -1.56159   1.38291   3.17355
C    -1.35016   1.54789   2.03583
C    -1.09943   1.81082   0.66931
C    -1.99335   2.57925  -0.10245
N    -2.74612   3.22631  -0.72020
N    -0.01485   1.28225   0.09753
C     0.81238   0.49860  -0.24003
C     2.11301   0.03554  -0.50031
C     2.39463  -1.12045  -1.25690
C     3.72504  -1.44194  -1.50793
C     4.75173  -0.63593  -1.00131
C     4.46452   0.49891  -0.23247
C     3.14614   0.84146   0.02125
C    -0.86264  -1.49492  -0.14407
C     0.00203  -2.08475   0.94532
O     0.67904  -3.10337   0.61874
O    -0.02097  -1.55783   2.09357
C    -2.00486  -0.85914   0.05907
C    -2.85038  -0.28445  -1.05213
O    -2.33153  -0.16612  -2.19869
O    -4.03627   0.03156  -0.74685
H     1.59364  -1.76480  -1.63643
H     3.97165  -2.32179  -2.10360
H     5.78851  -0.88173  -1.20049
H     5.24077   1.13105   0.16180
H     2.85738   1.71400   0.60738
H    -0.49347  -1.59404  -1.18988
H    -2.37963  -0.73233   1.07837
28

N    -1.56258   1.38136   3.17446
C    -1.34932   1.55112   2.03739
C    -1.09471   1.82732   0.67457
C    -1.99273   2.58420  -0.10237
N    -2.74801   3.22761  -0.72170
N    -0.02429   1.27565   0.09634
C     0.82768   0.51763  -0.24249
C     2.11903   0.03949  -0.50114
C     2.39537  -1.11859  -1.25716
C     3.72510  -1.44229  -1.50769
C     4.75313  -0.63729  -1.00153
C     4.46943   0.49806  -0.23217
C     3.15254   0.84332   0.02176
C    -0.88154  -1.51773  -0.14252
C    -0.00128  -2.08815   0.94496
O     0.68244  -3.10422   0.62006
O    -0.01997  -1.55674   2.09183
C    -2.01259  -0.87486   0.05732
C    -2.85202  -0.28696  -1.05260
O    -2.33210  -0.16542  -2.19852
O    -4.03724   0.03331  -0.74762
H     1.59319  -1.76350  -1.63639
H     3.97137  -2.32203  -2.10344
H     5.78874  -0.88260  -1.20086
H     5.24265   1.13031   0.16168
H     2.85949   1.71478   0.60725
H    -0.49385  -1.59493  -1.18960
H    -2.38068  -0.73197   1.07834
28

N    -1.56358   1.37981   3.17537
C    -1.34848   1.55435   2.03895
C    -1.09000   1.84382   0.67983
C    -1.99212   2.58915  -0.10229
N    -2.74990   3.22891  -0.72321
N    -0.03373   1.26905   0.09516
C     0.84297   0.53666  -0.24495
C     2.12505   0.04343  -0.50196
C     2.39611  -1.11674  -1.25743
C     3.72516  -1.44263  -1.50745
C     4.75452  -0.63866  -1.00174
C     4.47434   0.49722  -0.23188
C     3.15894   0.84518   0.02227
C    -0.90045  -1.54055  -0.14097
C    -0.00458  -2.09156   0.94461
O     0.68584  -3.10506   0.62137
O    -0.01897  -1.55564   2.09008
C    -2.02031  -0.89058   0.05556
C    -2.85365  -0.28946  -1.05307
O    -2.33267  -0.16471  -2.19836
O    -4.03821   0.03506  -0.74838
H     1.59275  -1.76219  -1.63635
H     3.97109  -2.32226  -2.10327
H     5.78897  -0.88347  -1.20122
H     5.24453   1.12958   0.16157
H     2.86160   1.71555   0.60711
H    -0.49424  -1.59582  -1.18933
H    -2.38173  -0.73161   1.07832
