11

O 2.852298510 -0.467015973 1.414615793
C 2.390595464 -1.596556338 -0.751707069
C 2.430411351 2.177841971 0.401055007
C -0.139068347 2.455042778 0.301934563
N -1.989518687 0.605598811 0.622153247
C -1.783122271 -1.795528039 -0.073912423
N 0.230687353 -2.714338770 -1.195271106
H 3.925383137 -1.806351484 -2.103397080
H -0.909094534 4.324939364 -0.019420885
H -3.743148343 1.196242557 1.081799175
H -3.471613539 -2.944683799 0.086239296

