11

O 4.358657256 -2.427857178 1.297160093
C 2.754741946 -1.859686868 -0.192066548
C 1.812713473 3.001950816 -0.920086466
C -0.430407348 2.632093675 0.066944644
N -2.147637439 0.692771216 0.436783057
C -1.707330061 -1.812596310 -0.044874098
N 0.382386497 -2.942523767 -0.282764010
H 3.167382543 -0.495697348 -1.759102718
H -0.972978200 4.526889104 0.718541581
H -3.957001014 1.199270862 0.703344650
H -3.444617214 -2.909253249 -0.167316049

