14

C -2.094249029 -2.239515602 0.156271374
C -2.948713225 0.437369383 -0.577831554
O -0.654824193 1.704911514 -1.070518095
C 1.080877215 0.641775388 0.627968728
C 3.747231323 1.068538078 -0.247788694
O 0.514760565 -1.963917717 0.698036579
H -3.109879953 -2.953388426 1.808848964
H -2.304955835 -3.587407301 -1.391591313
H -4.111649850 0.498661024 -2.274182665
H -3.965242147 1.356325887 0.977666289
H 0.765013707 1.453579622 2.525260484
H 4.155622001 3.086743262 -0.302924307
H 5.061133841 0.155737489 1.048941184
H 3.987101195 0.269817194 -2.130982924

