16

C 1.732747577 -1.426210850 -1.296071478
C 0.899692958 -1.110936843 1.486683957
C 1.562266445 1.715960422 1.151662803
C 0.561012027 1.237985058 -1.550882206
C -2.244961793 0.708245333 -1.066284504
C -1.987000911 -1.080786829 1.250246130
H 0.900717057 -2.965918614 -2.391679392
H 3.781145406 -1.414744767 -1.515551470
H 1.712072537 -2.244585850 2.999710848
H 3.592460996 2.063547026 1.194570528
H 0.571423285 3.093935465 2.327475266
H 1.029219832 2.487059028 -3.117795015
H -3.154122429 -0.202343955 -2.678274576
H -3.299367478 2.426682808 -0.630664611
H -2.760242580 -2.959870224 0.895699929
H -2.897062909 -0.328017225 2.941153772

