13

C -4.228427800 1.229647681 0.150588080
C -1.876612257 -0.204519389 -0.331772261
C -1.331564862 -2.599398295 -0.965428612
N 1.372720981 -2.482603035 -1.079897222
C 2.244389546 -0.217490658 -0.551044818
N 4.669037666 0.608463258 -0.561962125
O 0.419015682 1.319803660 -0.062865122
H -4.481399881 2.788038637 -1.181541565
H -5.803449953 -0.074413673 -0.075638972
H -4.294852562 2.004946468 2.064121843
H 2.465229781 -3.962574137 -1.546121872
H 4.974473854 2.282222278 0.281933947
H 6.040284944 -0.683991303 -0.341638786

