20

C -3.410021431 1.308640576 -1.446408054
C -2.069975686 0.073167474 0.787520478
N 0.120331486 -1.309355894 -0.128458215
C -3.798908813 -1.778462641 2.153338554
C 2.285386190 -0.311227953 -0.303798041
C 4.412987902 -1.907255848 -1.306978222
C 3.013856053 2.370800261 0.341418331
H -5.142546625 2.245983927 -0.832485453
H -2.201303544 2.709859137 -2.359205393
H -3.900713915 -0.121368189 -2.851232099
H -1.537331225 1.557344067 2.135387818
H -4.399942991 -3.270407671 0.861268741
H -2.814038264 -2.666813651 3.732010580
H -5.473950673 -0.821185779 2.887491144
H 5.871893963 -2.154403528 0.135612151
H 3.700395519 -3.750900982 -1.870595728
H 5.313224685 -0.993685573 -2.927104282
H 1.562520386 3.397515771 1.370680284
H 3.410752717 3.402314126 -1.404271376
H 4.752614905 2.387090438 1.452102668

