12

C -3.233764559 0.124602229 -0.255505542
C 0.002101092 0.588200613 0.024903340
C -1.058295895 2.689515857 -0.626631501
O 5.251818375 1.018933391 -0.501824482
C 4.259865303 -0.982013509 0.005271637
C 1.570823295 -1.384343288 0.340697570
H -4.681613095 1.569891452 -0.027380771
H -3.355966439 -1.083807462 1.413321029
H -3.519513618 -0.894111368 -2.007294320
H -1.527689672 4.285145152 0.557010684
H 5.423965131 -2.706398103 0.251447431
H 0.853775882 -3.231733916 0.829607494

