16

C 4.927733217 0.370187030 0.069769331
C 2.604587540 -0.938379412 -0.727752957
C 1.371603983 -2.949524257 -1.347744830
C -0.130367538 -0.584763768 -1.239133066
N -1.833343330 -0.160793281 0.862063635
C -4.497389402 -0.090931656 0.224148730
C -3.122944480 2.257034251 0.863839675
H 5.386064935 1.887701812 -1.251827207
H 6.525936338 -0.924202970 0.180598102
H 4.642409063 1.233443441 1.922203336
H -0.749668697 0.331925405 -2.997370365
H 1.318297265 -4.956911401 -1.667603502
H -5.767055604 -0.958019638 1.576611431
H -5.004153779 -0.369439946 -1.747204662
H -2.713831077 3.551328839 -0.678332348
H -3.363944673 3.141633059 2.695058273

