16

C 4.587202831 0.624929500 0.056914885
C 2.613747609 -1.209971777 -0.661010722
C 2.242405125 -3.643428308 -0.959073104
C -0.076942561 -1.126136288 -1.255429252
N -1.831170636 -0.632117470 0.738827338
C -4.384382740 0.031601984 0.014106692
C -2.635803680 1.982113625 0.998161011
H 4.853656955 2.039389599 -1.422613322
H 6.380315196 -0.332670543 0.382229499
H 4.052205057 1.621188464 1.783155870
H -0.635885679 -0.494210303 -3.148523473
H -0.107785311 -3.583581059 -1.599793042
H -5.866967749 -0.726928375 1.203508082
H -4.821670921 0.094358277 -1.991969511
H -1.903636909 3.342680209 -0.354125529
H -2.810970388 2.670157673 2.918054932

