22

C    -2.79110  -0.10813  -0.17755
C    -1.41201  -0.58849  -0.02037
O    -0.82166  -1.11865  -0.98980
N     0.52902  -1.63757  -0.96473
C     0.96868  -1.72959   0.27578
N     1.45487  -1.90428   1.33898
C     0.93271   1.42142  -0.66380
C     2.17820   1.23295   0.17429
C    -0.20576   1.93744  -0.22474
C    -0.51032   2.30731   1.20303
H    -3.00482   0.84927   0.39715
H    -3.04738   0.04277  -1.22233
H    -3.36392  -0.88424   0.28059
H    -0.84907  -0.41452   0.95840
H     1.01079   1.05281  -1.72930
H     2.97768   0.73264  -0.37422
H     1.97569   0.63262   1.09168
H     2.48649   2.21762   0.48792
H    -1.07181   1.92117  -0.96449
H    -0.23705   3.30878   1.25430
H    -1.59012   2.18245   1.45661
H     0.06154   1.69115   1.92014
22

C    -2.78802  -0.10193  -0.17583
C    -1.40245  -0.56473  -0.02049
O    -0.82058  -1.11465  -0.98790
N     0.53207  -1.61900  -0.96196
C     0.97000  -1.72580   0.27651
N     1.45631  -1.90641   1.33833
C     0.93072   1.40532  -0.66468
C     2.17458   1.23013   0.17373
C    -0.21698   1.91007  -0.22431
C    -0.51283   2.29854   1.19887
H    -3.00706   0.84951   0.39862
H    -3.04646   0.04593  -1.22173
H    -3.36063  -0.88495   0.27904
H    -0.85001  -0.41439   0.95978
H     1.01142   1.05107  -1.72999
H     2.97832   0.73462  -0.37401
H     1.97571   0.63161   1.09169
H     2.48146   2.21794   0.48796
H    -1.07147   1.91932  -0.96606
H    -0.23486   3.30544   1.24913
H    -1.59071   2.18338   1.45612
H     0.05982   1.68937   1.92019
22

C    -2.78493  -0.09573  -0.17411
C    -1.39289  -0.54097  -0.02062
O    -0.81949  -1.11066  -0.98600
N     0.53512  -1.60043  -0.95918
C     0.97132  -1.72200   0.27725
N     1.45774  -1.90854   1.33769
C     0.92874   1.38923  -0.66556
C     2.17097   1.22730   0.17317
C    -0.22820   1.88270  -0.22387
C    -0.51535   2.28977   1.19471
H    -3.00929   0.84976   0.40010
H    -3.04554   0.04909  -1.22113
H    -3.35734  -0.88565   0.27750
H    -0.85096  -0.41426   0.96115
H     1.01204   1.04934  -1.73068
H     2.97896   0.73659  -0.37379
H     1.97573   0.63060   1.09170
H     2.47642   2.21827   0.48799
H    -1.07113   1.91747  -0.96764
H    -0.23266   3.30210   1.24395
H    -1.59130   2.18432   1.45564
H     0.05809   1.68758   1.92025
22

C    -2.78185  -0.08954  -0.17239
C    -1.38333  -0.51720  -0.02075
O    -0.81841  -1.10666  -0.98410
N     0.53818  -1.58186  -0.95640
C     0.97264  -1.71820   0.27798
N     1.45917  -1.91067   1.33704
C     0.92676   1.37314  -0.66644
C     2.16735   1.22447   0.17261
C    -0.23942   1.85533  -0.22344
C    -0.51786   2.28100   1.19055
H    -3.01153   0.85000   0.40158
H    -3.04462   0.05225  -1.22053
H    -3.35405  -0.88636   0.27595
H    -0.85191  -0.41413   0.96253
H     1.01267   1.04761  -1.73137
H     2.97961   0.73856  -0.37357
H     1.97576   0.62959   1.09171
H     2.47139   2.21860   0.48802
H    -1.07079   1.91562  -0.96922
H    -0.23047   3.29876   1.23878
H    -1.59190   2.18526   1.45515
H     0.05637   1.68579   1.92030
22

C    -2.77876  -0.08334  -0.17067
C    -1.37378  -0.49344  -0.02087
O    -0.81732  -1.10267  -0.98220
N     0.54123  -1.56329  -0.95363
C     0.97396  -1.71441   0.27871
N     1.46061  -1.91280   1.33640
C     0.92477   1.35704  -0.66732
C     2.16373   1.22165   0.17205
C    -0.25064   1.82796  -0.22300
C    -0.52038   2.27223   1.18639
H    -3.01377   0.85024   0.40305
H    -3.04370   0.05541  -1.21993
H    -3.35075  -0.88707   0.27441
H    -0.85286  -0.41400   0.96390
H     1.01329   1.04588  -1.73206
H     2.98025   0.74053  -0.37336
H     1.97578   0.62858   1.09171
H     2.46636   2.21892   0.48806
H    -1.07045   1.91377  -0.97080
H    -0.22827   3.29542   1.23361
H    -1.59249   2.18620   1.45466
H     0.05464   1.68400   1.92035
22

C    -2.77568  -0.07714  -0.16895
C    -1.36422  -0.46968  -0.02100
O    -0.81623  -1.09867  -0.98030
N     0.54428  -1.54473  -0.95085
C     0.97527  -1.71061   0.27944
N     1.46204  -1.91493   1.33575
C     0.92279   1.34095  -0.66820
C     2.16011   1.21882   0.17149
C    -0.26186   1.80059  -0.22257
C    -0.52289   2.26346   1.18224
H    -3.01600   0.85048   0.40453
H    -3.04278   0.05857  -1.21933
H    -3.34746  -0.88778   0.27286
H    -0.85381  -0.41387   0.96528
H     1.01392   1.04415  -1.73275
H     2.98089   0.74250  -0.37314
H     1.97581   0.62757   1.09172
H     2.46132   2.21925   0.48809
H    -1.07011   1.91192  -0.97237
H    -0.22608   3.29207   1.22843
H    -1.59308   2.18713   1.45417
H     0.05292   1.68221   1.92040
22

C    -2.77260  -0.07095  -0.16723
C    -1.35466  -0.44592  -0.02112
O    -0.81515  -1.09468  -0.97840
N     0.54733  -1.52616  -0.94807
C     0.97659  -1.70682   0.28017
N     1.46348  -1.91705   1.33510
C     0.92081   1.32486  -0.66908
C     2.15649   1.21599   0.17093
C    -0.27308   1.77322  -0.22213
C    -0.52541   2.25469   1.17808
H    -3.01824   0.85073   0.40601
H    -3.04186   0.06173  -1.21873
H    -3.34417  -0.88849   0.27132
H    -0.85476  -0.41375   0.96666
H     1.01455   1.04242  -1.73344
H     2.98153   0.74448  -0.37292
H     1.97583   0.62656   1.09173
H     2.45629   2.21957   0.48813
H    -1.06977   1.91006  -0.97395
H    -0.22388   3.28873   1.22326
H    -1.59368   2.18807   1.45368
H     0.05119   1.68042   1.92045
22

C    -2.76951  -0.06475  -0.16552
C    -1.34510  -0.42216  -0.02125
O    -0.81406  -1.09068  -0.97650
N     0.55039  -1.50759  -0.94530
C     0.97791  -1.70302   0.28090
N     1.46491  -1.91918   1.33446
C     0.91882   1.30876  -0.66996
C     2.15288   1.21317   0.17037
C    -0.28430   1.74585  -0.22169
C    -0.52792   2.24592   1.17392
H    -3.02048   0.85097   0.40748
H    -3.04094   0.06490  -1.21813
H    -3.34088  -0.88920   0.26977
H    -0.85571  -0.41362   0.96803
H     1.01517   1.04069  -1.73413
H     2.98217   0.74645  -0.37271
H     1.97586   0.62555   1.09174
H     2.45126   2.21990   0.48816
H    -1.06943   1.90821  -0.97553
H    -0.22169   3.28539   1.21809
H    -1.59427   2.18901   1.45320
H     0.04947   1.67863   1.92050
22

C    -2.76643  -0.05855  -0.16380
C    -1.33554  -0.39839  -0.02138
O    -0.81298  -1.08668  -0.97460
N     0.55344  -1.48902  -0.94252
C     0.97923  -1.69923   0.28163
N     1.46634  -1.92131   1.33381
C     0.91684   1.29267  -0.67084
C     2.14926   1.21034   0.16981
C    -0.29553   1.71849  -0.22126
C    -0.53044   2.23715   1.16976
H    -3.02271   0.85121   0.40896
H    -3.04002   0.06806  -1.21753
H    -3.33759  -0.88991   0.26823
H    -0.85666  -0.41349   0.96941
H     1.01580   1.03896  -1.73482
H     2.98281   0.74842  -0.37249
H     1.97588   0.62454   1.09175
H     2.44622   2.22023   0.48819
H    -1.06909   1.90636  -0.97710
H    -0.21949   3.28205   1.21292
H    -1.59486   2.18995   1.45271
H     0.04774   1.67685   1.92055
22

C    -2.76334  -0.05235  -0.16208
C    -1.32598  -0.37463  -0.02150
O    -0.81189  -1.08269  -0.97270
N     0.55649  -1.47045  -0.93974
C     0.98055  -1.69543   0.28236
N     1.46778  -1.92344   1.33317
C     0.91486   1.27658  -0.67172
C     2.14564   1.20751   0.16925
C    -0.30675   1.69112  -0.22082
C    -0.53295   2.22838   1.16560
H    -3.02495   0.85146   0.41044
H    -3.03910   0.07122  -1.21693
H    -3.33429  -0.89062   0.26668
H    -0.85761  -0.41336   0.97078
H     1.01642   1.03722  -1.73551
H     2.98345   0.75039  -0.37228
H     1.97590   0.62352   1.09176
H     2.44119   2.22055   0.48823
H    -1.06875   1.90451  -0.97868
H    -0.21730   3.27871   1.20774
H    -1.59546   2.19089   1.45222
H     0.04602   1.67506   1.92060
22

C    -2.76026  -0.04616  -0.16036
C    -1.31642  -0.35087  -0.02163
O    -0.81081  -1.07869  -0.97080
N     0.55955  -1.45188  -0.93697
C     0.98187  -1.69164   0.28309
N     1.46921  -1.92557   1.33252
C     0.91287   1.26048  -0.67260
C     2.14202   1.20469   0.16869
C    -0.31797   1.66375  -0.22039
C    -0.53547   2.21961   1.16145
H    -3.02718   0.85170   0.41191
H    -3.03818   0.07438  -1.21633
H    -3.33100  -0.89133   0.26514
H    -0.85856  -0.41323   0.97216
H     1.01705   1.03549  -1.73620
H     2.98409   0.75236  -0.37206
H     1.97593   0.62251   1.09176
H     2.43616   2.22088   0.48826
H    -1.06841   1.90266  -0.98026
H    -0.21511   3.27536   1.20257
H    -1.59605   2.19182   1.45173
H     0.04429   1.67327   1.92066
22

C    -2.75718  -0.03996  -0.15864
C    -1.30686  -0.32711  -0.02176
O    -0.80972  -1.07470  -0.96890
N     0.56260  -1.43332  -0.93419
C     0.98319  -1.68784   0.28382
N     1.47065  -1.92770   1.33188
C     0.91089   1.24439  -0.67348
C     2.13841   1.20186   0.16813
C    -0.32919   1.63638  -0.21995
C    -0.53798   2.21084   1.15729
H    -3.02942   0.85194   0.41339
H    -3.03726   0.07754  -1.21573
H    -3.32771  -0.89204   0.26359
H    -0.85951  -0.41310   0.97354
H     1.01768   1.03376  -1.73690
H     2.98473   0.75434  -0.37184
H     1.97595   0.62150   1.09177
H     2.43112   2.22120   0.48830
H    -1.06807   1.90081  -0.98183
H    -0.21291   3.27202   1.19740
H    -1.59664   2.19276   1.45125
H     0.04257   1.67148   1.92071
22

C    -2.75409  -0.03376  -0.15692
C    -1.29730  -0.30335  -0.02188
O    -0.80864  -1.07070  -0.96700
N     0.56565  -1.41475  -0.93141
C     0.98451  -1.68404   0.28455
N     1.47208  -1.92983   1.33123
C     0.90891   1.22830  -0.67436
C     2.13479   1.19904   0.16757
C    -0.34041   1.60901  -0.21952
C    -0.54050   2.20207   1.15313
H    -3.03166   0.85219   0.41487
H    -3.03634   0.08070  -1.21513
H    -3.32442  -0.89275   0.26205
H    -0.86046  -0.41297   0.97491
H     1.01830   1.03203  -1.73759
H     2.98537   0.75631  -0.37163
H     1.97598   0.62049   1.09178
H     2.42609   2.22153   0.48833
H    -1.06773   1.89896  -0.98341
H    -0.21072   3.26868   1.19222
H    -1.59724   2.19370   1.45076
H     0.04084   1.66969   1.92076
22

C    -2.75101  -0.02757  -0.15520
C    -1.28774  -0.27958  -0.02201
O    -0.80755  -1.06671  -0.96510
N     0.56870  -1.39618  -0.92864
C     0.98583  -1.68025   0.28528
N     1.47351  -1.93196   1.33058
C     0.90692   1.21220  -0.67524
C     2.13117   1.19621   0.16701
C    -0.35163   1.58164  -0.21908
C    -0.54301   2.19330   1.14897
H    -3.03389   0.85243   0.41634
H    -3.03542   0.08386  -1.21453
H    -3.32113  -0.89346   0.26050
H    -0.86141  -0.41284   0.97629
H     1.01893   1.03030  -1.73828
H     2.98601   0.75828  -0.37141
H     1.97600   0.61948   1.09179
H     2.42106   2.22186   0.48836
H    -1.06739   1.89710  -0.98499
H    -0.20852   3.26534   1.18705
H    -1.59783   2.19464   1.45027
H     0.03912   1.66790   1.92081
22

C    -2.74793  -0.02137  -0.15348
C    -1.27818  -0.25582  -0.02214
O    -0.80647  -1.06271  -0.96320
N     0.57176  -1.37761  -0.92586
C     0.98715  -1.67645   0.28601
N     1.47495  -1.93409   1.32994
C     0.90494   1.19611  -0.67613
C     2.12755   1.19338   0.16645
C    -0.36285   1.55427  -0.21865
C    -0.54553   2.18454   1.14481
H    -3.03613   0.85267   0.41782
H    -3.03450   0.08702  -1.21393
H    -3.31783  -0.89416   0.25896
H    -0.86236  -0.41271   0.97766
H     1.01955   1.02857  -1.73897
H     2.98665   0.76025  -0.37119
H     1.97603   0.61847   1.09180
H     2.41602   2.22218   0.48840
H    -1.06705   1.89525  -0.98657
H    -0.20633   3.26199   1.18188
H    -1.59842   2.19557   1.44978
H     0.03739   1.66611   1.92086
22

C    -2.74484  -0.01517  -0.15176
C    -1.26862  -0.23206  -0.02226
O    -0.80538  -1.05871  -0.96130
N     0.57481  -1.35904  -0.92308
C     0.98847  -1.67266   0.28674
N     1.47638  -1.93622   1.32929
C     0.90295   1.18002  -0.67701
C     2.12394   1.19056   0.16589
C    -0.37407   1.52690  -0.21821
C    -0.54804   2.17577   1.14065
H    -3.03837   0.85292   0.41930
H    -3.03358   0.09019  -1.21333
H    -3.31454  -0.89487   0.25741
H    -0.86331  -0.41258   0.97904
H     1.02018   1.02684  -1.73966
H     2.98730   0.76222  -0.37098
H     1.97605   0.61746   1.09180
H     2.41099   2.22251   0.48843
H    -1.06671   1.89340  -0.98814
H    -0.20413   3.25865   1.17671
H    -1.59902   2.19651   1.44929
H     0.03567   1.66433   1.92091
22

C    -2.74176  -0.00898  -0.15004
C    -1.25906  -0.20830  -0.02239
O    -0.80430  -1.05472  -0.95940
N     0.57786  -1.34047  -0.92030
C     0.98979  -1.66886   0.28747
N     1.47782  -1.93835   1.32865
C     0.90097   1.16392  -0.67789
C     2.12032   1.18773   0.16533
C    -0.38529   1.49954  -0.21778
C    -0.55055   2.16700   1.13650
H    -3.04060   0.85316   0.42077
H    -3.03266   0.09335  -1.21273
H    -3.31125  -0.89558   0.25587
H    -0.86426  -0.41245   0.98042
H     1.02081   1.02511  -1.74035
H     2.98794   0.76420  -0.37076
H     1.97608   0.61645   1.09181
H     2.40596   2.22283   0.48846
H    -1.06637   1.89155  -0.98972
H    -0.20194   3.25531   1.17153
H    -1.59961   2.19745   1.44881
H     0.03394   1.66254   1.92096
22

C    -2.73867  -0.00278  -0.14832
C    -1.24950  -0.18454  -0.02252
O    -0.80321  -1.05072  -0.95750
N     0.58091  -1.32190  -0.91753
C     0.99111  -1.66507   0.28820
N     1.47925  -1.94048   1.32800
C     0.89899   1.14783  -0.67877
C     2.11670   1.18490   0.16477
C    -0.39652   1.47217  -0.21734
C    -0.55307   2.15823   1.13234
H    -3.04284   0.85340   0.42225
H    -3.03174   0.09651  -1.21212
H    -3.30796  -0.89629   0.25432
H    -0.86521  -0.41233   0.98179
H     1.02143   1.02337  -1.74104
H     2.98858   0.76617  -0.37055
H     1.97610   0.61544   1.09182
H     2.40092   2.22316   0.48850
H    -1.06603   1.88970  -0.99130
H    -0.19974   3.25197   1.16636
H    -1.60020   2.19839   1.44832
H     0.03222   1.66075   1.92101
22

C    -2.73559   0.00342  -0.14660
C    -1.23994  -0.16077  -0.02264
O    -0.80212  -1.04673  -0.95560
N     0.58397  -1.30334  -0.91475
C     0.99243  -1.66127   0.28894
N     1.48068  -1.94261   1.32735
C     0.89700   1.13174  -0.67965
C     2.11308   1.18208   0.16421
C    -0.40774   1.44480  -0.21691
C    -0.55558   2.14946   1.12818
H    -3.04507   0.85365   0.42373
H    -3.03081   0.09967  -1.21152
H    -3.30467  -0.89700   0.25278
H    -0.86616  -0.41220   0.98317
H     1.02206   1.02164  -1.74173
H     2.98922   0.76814  -0.37033
H     1.97612   0.61443   1.09183
H     2.39589   2.22349   0.48853
H    -1.06569   1.88785  -0.99287
H    -0.19755   3.24863   1.16119
H    -1.60080   2.19933   1.44783
H     0.03049   1.65896   1.92107
22

C    -2.73251   0.00961  -0.14488
C    -1.23038  -0.13701  -0.02277
O    -0.80104  -1.04273  -0.95370
N     0.58702  -1.28477  -0.91197
C     0.99375  -1.65748   0.28967
N     1.48212  -1.94473   1.32671
C     0.89502   1.11564  -0.68053
C     2.10947   1.17925   0.16365
C    -0.41896   1.41743  -0.21647
C    -0.55810   2.14069   1.12402
H    -3.04731   0.85389   0.42520
H    -3.02989   0.10283  -1.21092
H    -3.30137  -0.89771   0.25123
H    -0.86711  -0.41207   0.98454
H     1.02269   1.01991  -1.74242
H     2.98986   0.77011  -0.37011
H     1.97615   0.61342   1.09184
H     2.39086   2.22381   0.48857
H    -1.06535   1.88599  -0.99445
H    -0.19536   3.24528   1.15601
H    -1.60139   2.20026   1.44734
H     0.02877   1.65717   1.92112
22

C    -2.72942   0.01581  -0.14317
C    -1.22082  -0.11325  -0.02290
O    -0.79995  -1.03874  -0.95180
N     0.59007  -1.26620  -0.90920
C     0.99507  -1.65368   0.29040
N     1.48355  -1.94686   1.32606
C     0.89304   1.09955  -0.68141
C     2.10585   1.17642   0.16309
C    -0.43018   1.39006  -0.21604
C    -0.56061   2.13192   1.11986
H    -3.04955   0.85413   0.42668
H    -3.02897   0.10599  -1.21032
H    -3.29808  -0.89842   0.24969
H    -0.86806  -0.41194   0.98592
H     1.02331   1.01818  -1.74311
H     2.99050   0.77208  -0.36990
H     1.97617   0.61241   1.09184
H     2.38582   2.22414   0.48860
H    -1.06501   1.88414  -0.99603
H    -0.19316   3.24194   1.15084
H    -1.60198   2.20120   1.44685
H     0.02704   1.65538   1.92117
22

C    -2.73251   0.00961  -0.14488
C    -1.23038  -0.13701  -0.02277
O    -0.80104  -1.04273  -0.95370
N     0.58702  -1.28477  -0.91197
C     0.99375  -1.65748   0.28967
N     1.48212  -1.94473   1.32671
C     0.89502   1.11564  -0.68053
C     2.10947   1.17925   0.16365
C    -0.41896   1.41743  -0.21647
C    -0.55810   2.14069   1.12402
H    -3.04731   0.85389   0.42520
H    -3.02989   0.10283  -1.21092
H    -3.30137  -0.89771   0.25123
H    -0.86711  -0.41207   0.98454
H     1.02269   1.01991  -1.74242
H     2.98986   0.77011  -0.37011
H     1.97615   0.61342   1.09184
H     2.39086   2.22381   0.48857
H    -1.06535   1.88599  -0.99445
H    -0.19536   3.24528   1.15601
H    -1.60139   2.20026   1.44734
H     0.02877   1.65717   1.92112
22

C    -2.73559   0.00342  -0.14660
C    -1.23994  -0.16077  -0.02264
O    -0.80212  -1.04673  -0.95560
N     0.58397  -1.30334  -0.91475
C     0.99243  -1.66127   0.28894
N     1.48068  -1.94261   1.32735
C     0.89700   1.13174  -0.67965
C     2.11308   1.18208   0.16421
C    -0.40774   1.44480  -0.21691
C    -0.55558   2.14946   1.12818
H    -3.04507   0.85365   0.42373
H    -3.03081   0.09967  -1.21152
H    -3.30467  -0.89700   0.25278
H    -0.86616  -0.41220   0.98317
H     1.02206   1.02164  -1.74173
H     2.98922   0.76814  -0.37033
H     1.97612   0.61443   1.09183
H     2.39589   2.22349   0.48853
H    -1.06569   1.88785  -0.99287
H    -0.19755   3.24863   1.16119
H    -1.60080   2.19933   1.44783
H     0.03049   1.65896   1.92107
22

C    -2.73867  -0.00278  -0.14832
C    -1.24950  -0.18454  -0.02252
O    -0.80321  -1.05072  -0.95750
N     0.58091  -1.32190  -0.91753
C     0.99111  -1.66507   0.28820
N     1.47925  -1.94048   1.32800
C     0.89899   1.14783  -0.67877
C     2.11670   1.18490   0.16477
C    -0.39652   1.47217  -0.21734
C    -0.55307   2.15823   1.13234
H    -3.04284   0.85340   0.42225
H    -3.03174   0.09651  -1.21212
H    -3.30796  -0.89629   0.25432
H    -0.86521  -0.41233   0.98179
H     1.02143   1.02337  -1.74104
H     2.98858   0.76617  -0.37055
H     1.97610   0.61544   1.09182
H     2.40092   2.22316   0.48850
H    -1.06603   1.88970  -0.99130
H    -0.19974   3.25197   1.16636
H    -1.60020   2.19839   1.44832
H     0.03222   1.66075   1.92101
22

C    -2.74176  -0.00898  -0.15004
C    -1.25906  -0.20830  -0.02239
O    -0.80430  -1.05472  -0.95940
N     0.57786  -1.34047  -0.92030
C     0.98979  -1.66886   0.28747
N     1.47782  -1.93835   1.32865
C     0.90097   1.16392  -0.67789
C     2.12032   1.18773   0.16533
C    -0.38529   1.49954  -0.21778
C    -0.55055   2.16700   1.13650
H    -3.04060   0.85316   0.42077
H    -3.03266   0.09335  -1.21273
H    -3.31125  -0.89558   0.25587
H    -0.86426  -0.41245   0.98042
H     1.02081   1.02511  -1.74035
H     2.98794   0.76420  -0.37076
H     1.97608   0.61645   1.09181
H     2.40596   2.22283   0.48846
H    -1.06637   1.89155  -0.98972
H    -0.20194   3.25531   1.17153
H    -1.59961   2.19745   1.44881
H     0.03394   1.66254   1.92096
22

C    -2.74484  -0.01517  -0.15176
C    -1.26862  -0.23206  -0.02226
O    -0.80538  -1.05871  -0.96130
N     0.57481  -1.35904  -0.92308
C     0.98847  -1.67266   0.28674
N     1.47638  -1.93622   1.32929
C     0.90295   1.18002  -0.67701
C     2.12394   1.19056   0.16589
C    -0.37407   1.52690  -0.21821
C    -0.54804   2.17577   1.14065
H    -3.03837   0.85292   0.41930
H    -3.03358   0.09019  -1.21333
H    -3.31454  -0.89487   0.25741
H    -0.86331  -0.41258   0.97904
H     1.02018   1.02684  -1.73966
H     2.98730   0.76222  -0.37098
H     1.97605   0.61746   1.09180
H     2.41099   2.22251   0.48843
H    -1.06671   1.89340  -0.98814
H    -0.20413   3.25865   1.17671
H    -1.59902   2.19651   1.44929
H     0.03567   1.66433   1.92091
22

C    -2.74793  -0.02137  -0.15348
C    -1.27818  -0.25582  -0.02214
O    -0.80647  -1.06271  -0.96320
N     0.57176  -1.37761  -0.92586
C     0.98715  -1.67645   0.28601
N     1.47495  -1.93409   1.32994
C     0.90494   1.19611  -0.67613
C     2.12755   1.19338   0.16645
C    -0.36285   1.55427  -0.21865
C    -0.54553   2.18454   1.14481
H    -3.03613   0.85267   0.41782
H    -3.03450   0.08702  -1.21393
H    -3.31783  -0.89416   0.25896
H    -0.86236  -0.41271   0.97766
H     1.01955   1.02857  -1.73897
H     2.98665   0.76025  -0.37119
H     1.97603   0.61847   1.09180
H     2.41602   2.22218   0.48840
H    -1.06705   1.89525  -0.98657
H    -0.20633   3.26199   1.18188
H    -1.59842   2.19557   1.44978
H     0.03739   1.66611   1.92086
22

C    -2.75101  -0.02757  -0.15520
C    -1.28774  -0.27958  -0.02201
O    -0.80755  -1.06671  -0.96510
N     0.56870  -1.39618  -0.92864
C     0.98583  -1.68025   0.28528
N     1.47351  -1.93196   1.33058
C     0.90692   1.21220  -0.67524
C     2.13117   1.19621   0.16701
C    -0.35163   1.58164  -0.21908
C    -0.54301   2.19330   1.14897
H    -3.03389   0.85243   0.41634
H    -3.03542   0.08386  -1.21453
H    -3.32113  -0.89346   0.26050
H    -0.86141  -0.41284   0.97629
H     1.01893   1.03030  -1.73828
H     2.98601   0.75828  -0.37141
H     1.97600   0.61948   1.09179
H     2.42106   2.22186   0.48836
H    -1.06739   1.89710  -0.98499
H    -0.20852   3.26534   1.18705
H    -1.59783   2.19464   1.45027
H     0.03912   1.66790   1.92081
22

C    -2.75409  -0.03376  -0.15692
C    -1.29730  -0.30335  -0.02188
O    -0.80864  -1.07070  -0.96700
N     0.56565  -1.41475  -0.93141
C     0.98451  -1.68404   0.28455
N     1.47208  -1.92983   1.33123
C     0.90891   1.22830  -0.67436
C     2.13479   1.19904   0.16757
C    -0.34041   1.60901  -0.21952
C    -0.54050   2.20207   1.15313
H    -3.03166   0.85219   0.41487
H    -3.03634   0.08070  -1.21513
H    -3.32442  -0.89275   0.26205
H    -0.86046  -0.41297   0.97491
H     1.01830   1.03203  -1.73759
H     2.98537   0.75631  -0.37163
H     1.97598   0.62049   1.09178
H     2.42609   2.22153   0.48833
H    -1.06773   1.89896  -0.98341
H    -0.21072   3.26868   1.19222
H    -1.59724   2.19370   1.45076
H     0.04084   1.66969   1.92076
22

C    -2.75718  -0.03996  -0.15864
C    -1.30686  -0.32711  -0.02176
O    -0.80972  -1.07470  -0.96890
N     0.56260  -1.43332  -0.93419
C     0.98319  -1.68784   0.28382
N     1.47065  -1.92770   1.33188
C     0.91089   1.24439  -0.67348
C     2.13841   1.20186   0.16813
C    -0.32919   1.63638  -0.21995
C    -0.53798   2.21084   1.15729
H    -3.02942   0.85194   0.41339
H    -3.03726   0.07754  -1.21573
H    -3.32771  -0.89204   0.26359
H    -0.85951  -0.41310   0.97354
H     1.01768   1.03376  -1.73690
H     2.98473   0.75434  -0.37184
H     1.97595   0.62150   1.09177
H     2.43112   2.22120   0.48830
H    -1.06807   1.90081  -0.98183
H    -0.21291   3.27202   1.19740
H    -1.59664   2.19276   1.45125
H     0.04257   1.67148   1.92071
22

C    -2.76026  -0.04616  -0.16036
C    -1.31642  -0.35087  -0.02163
O    -0.81081  -1.07869  -0.97080
N     0.55955  -1.45188  -0.93697
C     0.98187  -1.69164   0.28309
N     1.46921  -1.92557   1.33252
C     0.91287   1.26048  -0.67260
C     2.14202   1.20469   0.16869
C    -0.31797   1.66375  -0.22039
C    -0.53547   2.21961   1.16145
H    -3.02718   0.85170   0.41191
H    -3.03818   0.07438  -1.21633
H    -3.33100  -0.89133   0.26514
H    -0.85856  -0.41323   0.97216
H     1.01705   1.03549  -1.73620
H     2.98409   0.75236  -0.37206
H     1.97593   0.62251   1.09176
H     2.43616   2.22088   0.48826
H    -1.06841   1.90266  -0.98026
H    -0.21511   3.27536   1.20257
H    -1.59605   2.19182   1.45173
H     0.04429   1.67327   1.92066
22

C    -2.76334  -0.05235  -0.16208
C    -1.32598  -0.37463  -0.02150
O    -0.81189  -1.08269  -0.97270
N     0.55649  -1.47045  -0.93974
C     0.98055  -1.69543   0.28236
N     1.46778  -1.92344   1.33317
C     0.91486   1.27658  -0.67172
C     2.14564   1.20751   0.16925
C    -0.30675   1.69112  -0.22082
C    -0.53295   2.22838   1.16560
H    -3.02495   0.85146   0.41044
H    -3.03910   0.07122  -1.21693
H    -3.33429  -0.89062   0.26668
H    -0.85761  -0.41336   0.97078
H     1.01642   1.03722  -1.73551
H     2.98345   0.75039  -0.37228
H     1.97590   0.62352   1.09176
H     2.44119   2.22055   0.48823
H    -1.06875   1.90451  -0.97868
H    -0.21730   3.27871   1.20774
H    -1.59546   2.19089   1.45222
H     0.04602   1.67506   1.92060
22

C    -2.76643  -0.05855  -0.16380
C    -1.33554  -0.39839  -0.02138
O    -0.81298  -1.08668  -0.97460
N     0.55344  -1.48902  -0.94252
C     0.97923  -1.69923   0.28163
N     1.46634  -1.92131   1.33381
C     0.91684   1.29267  -0.67084
C     2.14926   1.21034   0.16981
C    -0.29553   1.71849  -0.22126
C    -0.53044   2.23715   1.16976
H    -3.02271   0.85121   0.40896
H    -3.04002   0.06806  -1.21753
H    -3.33759  -0.88991   0.26823
H    -0.85666  -0.41349   0.96941
H     1.01580   1.03896  -1.73482
H     2.98281   0.74842  -0.37249
H     1.97588   0.62454   1.09175
H     2.44622   2.22023   0.48819
H    -1.06909   1.90636  -0.97710
H    -0.21949   3.28205   1.21292
H    -1.59486   2.18995   1.45271
H     0.04774   1.67685   1.92055
22

C    -2.76951  -0.06475  -0.16552
C    -1.34510  -0.42216  -0.02125
O    -0.81406  -1.09068  -0.97650
N     0.55039  -1.50759  -0.94530
C     0.97791  -1.70302   0.28090
N     1.46491  -1.91918   1.33446
C     0.91882   1.30876  -0.66996
C     2.15288   1.21317   0.17037
C    -0.28430   1.74585  -0.22169
C    -0.52792   2.24592   1.17392
H    -3.02048   0.85097   0.40748
H    -3.04094   0.06490  -1.21813
H    -3.34088  -0.88920   0.26977
H    -0.85571  -0.41362   0.96803
H     1.01517   1.04069  -1.73413
H     2.98217   0.74645  -0.37271
H     1.97586   0.62555   1.09174
H     2.45126   2.21990   0.48816
H    -1.06943   1.90821  -0.97553
H    -0.22169   3.28539   1.21809
H    -1.59427   2.18901   1.45320
H     0.04947   1.67863   1.92050
22

C    -2.77260  -0.07095  -0.16723
C    -1.35466  -0.44592  -0.02112
O    -0.81515  -1.09468  -0.97840
N     0.54733  -1.52616  -0.94807
C     0.97659  -1.70682   0.28017
N     1.46348  -1.91705   1.33510
C     0.92081   1.32486  -0.66908
C     2.15649   1.21599   0.17093
C    -0.27308   1.77322  -0.22213
C    -0.52541   2.25469   1.17808
H    -3.01824   0.85073   0.40601
H    -3.04186   0.06173  -1.21873
H    -3.34417  -0.88849   0.27132
H    -0.85476  -0.41375   0.96666
H     1.01455   1.04242  -1.73344
H     2.98153   0.74448  -0.37292
H     1.97583   0.62656   1.09173
H     2.45629   2.21957   0.48813
H    -1.06977   1.91006  -0.97395
H    -0.22388   3.28873   1.22326
H    -1.59368   2.18807   1.45368
H     0.05119   1.68042   1.92045
22

C    -2.77568  -0.07714  -0.16895
C    -1.36422  -0.46968  -0.02100
O    -0.81623  -1.09867  -0.98030
N     0.54428  -1.54473  -0.95085
C     0.97527  -1.71061   0.27944
N     1.46204  -1.91493   1.33575
C     0.92279   1.34095  -0.66820
C     2.16011   1.21882   0.17149
C    -0.26186   1.80059  -0.22257
C    -0.52289   2.26346   1.18224
H    -3.01600   0.85048   0.40453
H    -3.04278   0.05857  -1.21933
H    -3.34746  -0.88778   0.27286
H    -0.85381  -0.41387   0.96528
H     1.01392   1.04415  -1.73275
H     2.98089   0.74250  -0.37314
H     1.97581   0.62757   1.09172
H     2.46132   2.21925   0.48809
H    -1.07011   1.91192  -0.97237
H    -0.22608   3.29207   1.22843
H    -1.59308   2.18713   1.45417
H     0.05292   1.68221   1.92040
22

C    -2.77876  -0.08334  -0.17067
C    -1.37378  -0.49344  -0.02087
O    -0.81732  -1.10267  -0.98220
N     0.54123  -1.56329  -0.95363
C     0.97396  -1.71441   0.27871
N     1.46061  -1.91280   1.33640
C     0.92477   1.35704  -0.66732
C     2.16373   1.22165   0.17205
C    -0.25064   1.82796  -0.22300
C    -0.52038   2.27223   1.18639
H    -3.01377   0.85024   0.40305
H    -3.04370   0.05541  -1.21993
H    -3.35075  -0.88707   0.27441
H    -0.85286  -0.41400   0.96390
H     1.01329   1.04588  -1.73206
H     2.98025   0.74053  -0.37336
H     1.97578   0.62858   1.09171
H     2.46636   2.21892   0.48806
H    -1.07045   1.91377  -0.97080
H    -0.22827   3.29542   1.23361
H    -1.59249   2.18620   1.45466
H     0.05464   1.68400   1.92035
22

C    -2.78185  -0.08954  -0.17239
C    -1.38333  -0.51720  -0.02075
O    -0.81841  -1.10666  -0.98410
N     0.53818  -1.58186  -0.95640
C     0.97264  -1.71820   0.27798
N     1.45917  -1.91067   1.33704
C     0.92676   1.37314  -0.66644
C     2.16735   1.22447   0.17261
C    -0.23942   1.85533  -0.22344
C    -0.51786   2.28100   1.19055
H    -3.01153   0.85000   0.40158
H    -3.04462   0.05225  -1.22053
H    -3.35405  -0.88636   0.27595
H    -0.85191  -0.41413   0.96253
H     1.01267   1.04761  -1.73137
H     2.97961   0.73856  -0.37357
H     1.97576   0.62959   1.09171
H     2.47139   2.21860   0.48802
H    -1.07079   1.91562  -0.96922
H    -0.23047   3.29876   1.23878
H    -1.59190   2.18526   1.45515
H     0.05637   1.68579   1.92030
22

C    -2.78493  -0.09573  -0.17411
C    -1.39289  -0.54097  -0.02062
O    -0.81949  -1.11066  -0.98600
N     0.53512  -1.60043  -0.95918
C     0.97132  -1.72200   0.27725
N     1.45774  -1.90854   1.33769
C     0.92874   1.38923  -0.66556
C     2.17097   1.22730   0.17317
C    -0.22820   1.88270  -0.22387
C    -0.51535   2.28977   1.19471
H    -3.00929   0.84976   0.40010
H    -3.04554   0.04909  -1.22113
H    -3.35734  -0.88565   0.27750
H    -0.85096  -0.41426   0.96115
H     1.01204   1.04934  -1.73068
H     2.97896   0.73659  -0.37379
H     1.97573   0.63060   1.09170
H     2.47642   2.21827   0.48799
H    -1.07113   1.91747  -0.96764
H    -0.23266   3.30210   1.24395
H    -1.59130   2.18432   1.45564
H     0.05809   1.68758   1.92025
22

C    -2.78802  -0.10193  -0.17583
C    -1.40245  -0.56473  -0.02049
O    -0.82058  -1.11465  -0.98790
N     0.53207  -1.61900  -0.96196
C     0.97000  -1.72580   0.27651
N     1.45631  -1.90641   1.33833
C     0.93072   1.40532  -0.66468
C     2.17458   1.23013   0.17373
C    -0.21698   1.91007  -0.22431
C    -0.51283   2.29854   1.19887
H    -3.00706   0.84951   0.39862
H    -3.04646   0.04593  -1.22173
H    -3.36063  -0.88495   0.27904
H    -0.85001  -0.41439   0.95978
H     1.01142   1.05107  -1.72999
H     2.97832   0.73462  -0.37401
H     1.97571   0.63161   1.09169
H     2.48146   2.21794   0.48796
H    -1.07147   1.91932  -0.96606
H    -0.23486   3.30544   1.24913
H    -1.59071   2.18338   1.45612
H     0.05982   1.68937   1.92019
