11

N 1.552188762 -0.409342363 2.818543598
C 1.453329006 1.536731332 1.097193772
C 1.768814946 0.612651005 -1.636964314
O -0.317289400 -1.076947643 -1.906399613
C -2.023503597 -1.436477903 0.151823375
C -0.877089943 0.274376441 2.197551966
N -0.805050938 2.768625141 1.466532485
H 3.527941947 -0.422830453 -1.894431996
H 1.588192750 2.155260084 -2.986563097
H -3.907521162 -0.812818090 -0.392296882
H -2.012573251 -3.415894530 0.713760801

