13

C -2.618083435 -1.531682040 0.701919569
C -0.491207850 -0.170031169 -0.621921529
C -0.082061527 2.431505861 -0.223298429
O 3.709546083 1.221635185 1.293439298
C 3.583326589 -0.724172153 -0.032762125
N 1.588984527 -1.586774303 -1.328056094
H -3.134972304 -3.207004657 -0.375523465
H -4.282653926 -0.341629356 0.960343623
H -1.936036755 -2.151666392 2.546559361
H -1.476725119 1.091316648 -2.322165873
H -1.397906929 3.562849800 0.876857337
H 1.296302913 3.404182763 -1.366267774
H 5.241585962 -1.964144730 -0.119900949

