8

O -4.730541449 -0.087570381 1.727381322
C -3.423186321 -0.588925248 -0.076145645
C -1.196232164 0.740312814 -0.823849801
C 1.167526449 0.396030584 -0.358434011
C 3.555901806 0.050359671 0.189432628
O 5.615726922 -0.433880778 0.798297491
H -3.925249117 -2.105998514 -1.440339407
H 2.915754436 1.992912881 -1.407592966

