12

C -0.768701338 2.610560114 -0.286029211
H 0.372796647 3.515880714 1.148810715
H 0.070055020 2.611870639 -2.153377199
C -3.591410780 2.853719867 -0.103159185
H -4.648537351 3.014855963 -1.848601621
H -4.370110111 3.922207376 1.456763149
C -2.342154527 0.371509082 0.442045472
C -2.648210091 -1.809195502 -1.360757333
H -4.396880784 -2.844520813 -0.996464358
H -2.710961849 -1.141338058 -3.313925683
H -1.076923700 -3.138718724 -1.202233537
H -2.258840508 -0.158551291 2.420785218

