19

C 4.745300455 -0.918640656 -0.759843492
O 2.457369050 -2.132577115 -0.072543090
C 1.021519009 -1.223332291 1.838514603
C -0.099947407 2.348524302 0.298466292
C -2.840558548 2.503125461 -0.284944943
C -2.302339811 -0.030122650 0.908096834
C -3.031838838 -2.256819030 -0.713367379
H 5.429609062 0.290022693 0.772586898
H 4.501354860 0.218116158 -2.470669396
H 6.141122563 -2.383737667 -1.146607332
H 2.101151405 0.079611459 3.040572982
H 0.576268505 3.531069935 1.818696422
H 1.162933186 2.192109517 -1.295587689
H -3.354492660 2.475199580 -2.269331172
H -3.938041618 3.835375179 0.817985112
H -2.972661327 -0.118097792 2.835998658
H -5.037666636 -2.130304701 -1.195415065
H -1.952316802 -2.263019430 -2.471414477
H -2.633498403 -4.018235812 0.272346006

