14

C 3.135491279 0.089596772 -1.203822192
C 1.069031996 0.326048054 0.733466525
C -0.311410595 -2.164136354 0.964148624
C -2.400896285 -0.679321752 -0.316625124
O -4.499836162 -0.700269083 1.187403250
C -1.045148560 1.901660936 -0.324931358
H 2.375611183 -0.619618803 -3.017749739
H 4.016355799 1.919351096 -1.572896702
H 4.583075839 -1.242214643 -0.579461613
H -5.546515004 0.722572046 0.762834608
H -1.066336150 -2.850761066 2.745584315
H 0.695442571 -3.660464359 -0.015601711
H -2.140577498 3.164873554 0.868058168
H -0.504438408 2.844829121 -2.067101809

