11

C -3.449623817 -0.452504823 -0.415735439
C -0.839821880 -0.174331203 -1.058815948
O -0.037612863 -2.008087609 -2.486444754
C 0.870130630 0.372513113 1.273221723
O 0.067671905 0.970582178 3.292226978
C 3.701827157 0.218096731 0.721926912
O 4.590069375 1.506145717 -0.901302456
H -4.167284956 -0.286493384 1.503065143
H -4.684018111 -1.130143528 -1.902038900
H -0.838285060 1.870670013 -1.828415567
H 4.831626414 -0.990402930 1.994387850

