13

C -1.731407383 -2.437074506 0.288455449
C -0.125190217 -0.154721459 0.836078578
C 2.444680748 0.126031278 -0.502806422
O -0.118598002 0.625688169 3.364331255
C 0.295324074 1.788610867 -1.086076286
N -0.676162924 3.632278753 -2.208090930
H -1.122842363 -4.019164915 1.463385694
H -3.712447398 -2.035203856 0.702858990
H -1.597604475 -2.985086560 -1.694223488
H 3.969547151 0.914433861 0.615679650
H 0.586126960 4.435081635 -3.424240543
H 2.987627580 -1.330709912 -1.837895718
H -1.535776510 1.728299558 3.623124259

