12

N 0.431543754 2.568438515 1.188781541
C 0.430658058 0.255451401 -0.214396251
C -2.135212887 -0.569627459 -1.113984461
O -3.842191610 -0.811559382 0.915623670
C 2.436763986 -1.158616031 -0.506913250
N 4.328557056 -2.421620931 -0.930847984
H 1.900090668 2.698697337 2.396794427
H 0.445468503 4.098681624 0.040180132
H 4.768243658 -3.686598553 0.451485108
H -2.843315092 0.818572098 -2.491266806
H -2.022749030 -2.392845013 -2.066129942
H -3.549503080 0.620898733 1.999690195

