9

N -1.062582493 1.180521926 -0.124481551
C 1.520297196 1.026106678 0.325324062
C 2.174730877 -1.563977422 0.838588134
N -0.126665961 -2.871831909 0.427156622
C -1.894845109 -1.234434508 -0.020754900
H -2.084782994 2.717231960 -0.564729856
H 2.633053864 2.694925104 0.709938906
H 2.705508364 -0.162696462 -1.312399600
H -3.869405953 -1.684578723 -0.324046249

