10

O -0.543883059 -3.403872035 0.353893698
C -0.110711929 -1.066394694 -0.852847705
C -2.179735930 0.744729123 -0.417415462
C -3.879573794 2.184895241 -0.039033748
C 2.333802088 0.053343964 -0.130707575
C 4.324652447 0.927732166 0.484805836
H -0.602921032 -3.116688542 2.146084424
H -0.049504343 -1.504316198 -2.870861932
H -5.388736989 3.472623919 0.294644208
H 6.096612540 1.707947038 1.031438238

