8

O 4.081020489 -1.111829342 0.659550190
C 1.836851814 -0.876583610 0.572857473
N 0.458031894 1.361615230 0.623841075
N -1.989373273 0.709872690 0.018708667
N -2.167371093 -1.817912488 0.174858267
N -0.035565685 -2.820222185 0.396274775
H 1.174413915 2.919858618 -0.203840373
H -3.395912169 1.628467973 0.930371433

