15

O 4.277104500 1.565321943 -0.303928621
C 2.036581693 0.643108685 0.317226510
C 1.336631577 -2.131643836 0.672945627
C -1.248204262 -1.561871738 -0.540311344
C -2.452101400 0.295165262 1.356977540
C -0.327274638 2.093209849 0.619890961
C -0.132518462 0.727667863 -2.028985107
H 2.763619653 1.004248140 -2.155885470
H 1.315202310 -2.791241704 2.627901394
H 2.542807064 -3.326036616 -0.489313853
H -2.321860985 -3.088345806 -1.391968125
H -4.269051073 1.004075457 0.691975755
H -2.603542295 -0.300100338 3.329897667
H -0.245477635 4.125293238 0.828020597
H -0.837578945 1.743226411 -3.661429385

