14

O -1.864122414 -2.030405614 2.612478186
C -1.360248278 -1.441111341 0.041331353
C -2.230687860 1.247440624 -0.716814353
N 0.472288328 2.114169426 -0.929201881
C 1.254996883 -0.550752610 -0.486720487
C 3.703537264 -0.887638489 0.382272962
O 5.274176046 0.853191843 0.414392883
H -3.279288836 -3.159953406 2.694138373
H -2.119174063 -2.948635255 -1.157383760
H -3.235041371 2.253473950 0.767660741
H -3.200736965 1.428798830 -2.520958410
H 1.112911418 3.318649941 0.440131104
H 0.983566165 2.852476446 -2.626513976
H 4.206381103 -2.805559233 1.041487367

