8

C 3.671071429 0.764872677 -0.158953028
C 1.555679861 -0.018213502 -0.242991870
C -1.016863083 -1.022080598 -0.331078033
C -4.350724620 2.355715390 -1.496067808
N -2.836237123 0.849738407 -0.975143372
H 5.550706246 1.479856452 -0.088257391
H -1.522385362 -1.814454327 1.505713216
H -1.129502797 -2.544383549 -1.719122897

