12

C -3.366359819 1.459764166 -0.931519385
C -0.713624174 0.886820578 -0.208433787
N 0.411988376 -1.179916741 -0.931146315
C 2.787903786 -2.061416625 -0.491693510
C 4.423089112 -0.606094600 0.974040963
N 5.686835049 0.689411699 2.202506431
H -3.485607963 3.234934980 -1.981137657
H -4.170652845 -0.027797550 -2.115851509
H -4.569902880 1.657939235 0.735929159
H 0.381609782 2.168234414 0.950080785
H -0.647748151 -2.350692215 -2.011718226
H 3.302501665 -3.853040320 -1.295520888

