26

C    -2.41246  -1.83902  -1.32906
N    -2.05084  -0.87662  -0.32001
N    -1.67113   0.24745  -0.72367
C    -1.33078   1.27357   0.11845
C    -1.62124   1.16681   1.49631
N    -1.90438   1.15319   2.62815
C    -0.68666   2.40998  -0.40297
N    -0.14310   3.36360  -0.80557
C     0.91702  -0.43109   0.59577
C     1.09321  -0.00785   1.93151
N     1.30660   0.29527   3.03807
C     1.72231   0.13074  -0.62352
C     2.88599  -0.87464  -0.78364
C     2.31462  -2.00225  -1.21392
C     0.80629  -1.67066  -1.31015
O     0.85566  -0.28382  -1.68712
C     0.40790  -1.56523   0.18311
H    -2.03525  -1.62435  -2.31938
H    -3.46174  -1.84357  -1.25646
H    -2.03445  -2.87749  -1.02294
H    -1.60877   0.45722  -1.73283
H     1.94766   1.20638  -0.66440
H     3.88709  -0.69699  -0.45530
H     2.69632  -2.99538  -1.33495
H     0.19585  -2.24585  -2.03674
H    -0.13027  -2.32907   0.72417
26

C    -2.40485  -1.84247  -1.32370
N    -2.02288  -0.88552  -0.31749
N    -1.67104   0.24846  -0.72347
C    -1.31978   1.26686   0.12068
C    -1.61941   1.16600   1.49746
N    -1.90474   1.15404   2.62849
C    -0.68317   2.40851  -0.40097
N    -0.14408   3.36334  -0.80516
C     0.90565  -0.42028   0.59151
C     1.09112  -0.00829   1.92819
N     1.30656   0.29234   3.03509
C     1.72006   0.13204  -0.62407
C     2.88135  -0.87559  -0.77798
C     2.30856  -2.00270  -1.20828
C     0.80249  -1.66834  -1.31237
O     0.85644  -0.28191  -1.69054
C     0.38305  -1.55628   0.17310
H    -2.03396  -1.62647  -2.31841
H    -3.45915  -1.84079  -1.25316
H    -2.03477  -2.87939  -1.02216
H    -1.60586   0.45679  -1.73248
H     1.94802   1.20653  -0.66508
H     3.88566  -0.69784  -0.45295
H     2.69442  -2.99566  -1.33291
H     0.19593  -2.24496  -2.03854
H    -0.12886  -2.32819   0.72299
26

C    -2.39724  -1.84591  -1.31834
N    -1.99492  -0.89443  -0.31498
N    -1.67094   0.24948  -0.72328
C    -1.30879   1.26015   0.12291
C    -1.61758   1.16519   1.49861
N    -1.90510   1.15490   2.62884
C    -0.67969   2.40705  -0.39898
N    -0.14506   3.36307  -0.80475
C     0.89427  -0.40948   0.58725
C     1.08903  -0.00872   1.92488
N     1.30651   0.28940   3.03210
C     1.71781   0.13333  -0.62463
C     2.87670  -0.87653  -0.77232
C     2.30250  -2.00315  -1.20265
C     0.79869  -1.66602  -1.31460
O     0.85722  -0.28000  -1.69397
C     0.35820  -1.54734   0.16308
H    -2.03266  -1.62859  -2.31744
H    -3.45655  -1.83801  -1.24987
H    -2.03510  -2.88129  -1.02137
H    -1.60295   0.45636  -1.73213
H     1.94837   1.20668  -0.66575
H     3.88423  -0.69868  -0.45061
H     2.69252  -2.99593  -1.33088
H     0.19601  -2.24408  -2.04033
H    -0.12744  -2.32732   0.72181
26

C    -2.38963  -1.84935  -1.31298
N    -1.96696  -0.90334  -0.31246
N    -1.67085   0.25049  -0.72309
C    -1.29779   1.25345   0.12514
C    -1.61575   1.16438   1.49977
N    -1.90546   1.15576   2.62918
C    -0.67620   2.40558  -0.39698
N    -0.14603   3.36281  -0.80435
C     0.88290  -0.39868   0.58298
C     1.08694  -0.00915   1.92156
N     1.30647   0.28647   3.02911
C     1.71555   0.13462  -0.62518
C     2.87206  -0.87747  -0.76665
C     2.29644  -2.00360  -1.19701
C     0.79489  -1.66370  -1.31682
O     0.85800  -0.27809  -1.69740
C     0.33336  -1.53839   0.15307
H    -2.03136  -1.63071  -2.31647
H    -3.45396  -1.83523  -1.24658
H    -2.03542  -2.88319  -1.02059
H    -1.60003   0.45593  -1.73178
H     1.94872   1.20683  -0.66643
H     3.88279  -0.69952  -0.44826
H     2.69062  -2.99621  -1.32885
H     0.19610  -2.24319  -2.04213
H    -0.12603  -2.32644   0.72064
26

C    -2.38202  -1.85279  -1.30762
N    -1.93901  -0.91224  -0.30995
N    -1.67076   0.25150  -0.72289
C    -1.28680   1.24674   0.12737
C    -1.61393   1.16357   1.50092
N    -1.90582   1.15662   2.62952
C    -0.67272   2.40411  -0.39498
N    -0.14701   3.36255  -0.80394
C     0.87153  -0.38787   0.57872
C     1.08485  -0.00958   1.91825
N     1.30643   0.28353   3.02613
C     1.71330   0.13591  -0.62573
C     2.86741  -0.87842  -0.76099
C     2.29038  -2.00406  -1.19138
C     0.79109  -1.66138  -1.31905
O     0.85878  -0.27619  -1.70082
C     0.30851  -1.52945   0.14305
H    -2.03006  -1.63283  -2.31550
H    -3.45137  -1.83245  -1.24328
H    -2.03574  -2.88509  -1.01981
H    -1.59712   0.45549  -1.73143
H     1.94907   1.20699  -0.66711
H     3.88136  -0.70037  -0.44591
H     2.68872  -2.99648  -1.32681
H     0.19618  -2.24230  -2.04393
H    -0.12462  -2.32557   0.71946
26

C    -2.37441  -1.85623  -1.30226
N    -1.91105  -0.92115  -0.30743
N    -1.67067   0.25252  -0.72270
C    -1.27580   1.24003   0.12960
C    -1.61210   1.16275   1.50207
N    -1.90618   1.15748   2.62987
C    -0.66923   2.40264  -0.39299
N    -0.14799   3.36228  -0.80354
C     0.86016  -0.37707   0.57446
C     1.08276  -0.01001   1.91493
N     1.30638   0.28060   3.02314
C     1.71104   0.13721  -0.62629
C     2.86277  -0.87936  -0.75533
C     2.28432  -2.00451  -1.18574
C     0.78729  -1.65906  -1.32127
O     0.85956  -0.27428  -1.70425
C     0.28366  -1.52050   0.13304
H    -2.02876  -1.63495  -2.31453
H    -3.44877  -1.82968  -1.23999
H    -2.03606  -2.88699  -1.01903
H    -1.59421   0.45506  -1.73107
H     1.94943   1.20714  -0.66779
H     3.87992  -0.70121  -0.44356
H     2.68682  -2.99676  -1.32478
H     0.19626  -2.24142  -2.04573
H    -0.12321  -2.32469   0.71828
26

C    -2.36680  -1.85967  -1.29690
N    -1.88309  -0.93006  -0.30492
N    -1.67058   0.25353  -0.72250
C    -1.26481   1.23333   0.13183
C    -1.61027   1.16194   1.50322
N    -1.90654   1.15834   2.63021
C    -0.66574   2.40117  -0.39099
N    -0.14897   3.36202  -0.80313
C     0.84878  -0.36627   0.57020
C     1.08066  -0.01044   1.91162
N     1.30634   0.27766   3.02016
C     1.70879   0.13850  -0.62684
C     2.85812  -0.88031  -0.74966
C     2.27826  -2.00496  -1.18011
C     0.78349  -1.65674  -1.32350
O     0.86034  -0.27237  -1.70767
C     0.25882  -1.51156   0.12302
H    -2.02746  -1.63707  -2.31356
H    -3.44618  -1.82690  -1.23670
H    -2.03638  -2.88889  -1.01825
H    -1.59130   0.45463  -1.73072
H     1.94978   1.20729  -0.66846
H     3.87849  -0.70206  -0.44121
H     2.68492  -2.99703  -1.32274
H     0.19635  -2.24053  -2.04753
H    -0.12179  -2.32382   0.71710
26

C    -2.35919  -1.86311  -1.29154
N    -1.85513  -0.93897  -0.30240
N    -1.67049   0.25455  -0.72231
C    -1.25381   1.22662   0.13406
C    -1.60844   1.16113   1.50438
N    -1.90690   1.15920   2.63056
C    -0.66226   2.39970  -0.38900
N    -0.14995   3.36176  -0.80272
C     0.83741  -0.35546   0.56593
C     1.07857  -0.01088   1.90830
N     1.30630   0.27473   3.01717
C     1.70654   0.13979  -0.62739
C     2.85348  -0.88125  -0.74400
C     2.27220  -2.00541  -1.17447
C     0.77969  -1.65442  -1.32572
O     0.86112  -0.27046  -1.71110
C     0.23397  -1.50261   0.11301
H    -2.02616  -1.63918  -2.31259
H    -3.44359  -1.82412  -1.23340
H    -2.03670  -2.89079  -1.01747
H    -1.58838   0.45419  -1.73037
H     1.95013   1.20744  -0.66914
H     3.87706  -0.70290  -0.43887
H     2.68302  -2.99731  -1.32071
H     0.19643  -2.23964  -2.04933
H    -0.12038  -2.32294   0.71593
26

C    -2.35157  -1.86655  -1.28618
N    -1.82717  -0.94787  -0.29989
N    -1.67039   0.25556  -0.72212
C    -1.24281   1.21991   0.13629
C    -1.60661   1.16032   1.50553
N    -1.90726   1.16006   2.63090
C    -0.65877   2.39823  -0.38700
N    -0.15093   3.36149  -0.80232
C     0.82604  -0.34466   0.56167
C     1.07648  -0.01131   1.90498
N     1.30626   0.27179   3.01419
C     1.70428   0.14108  -0.62795
C     2.84883  -0.88220  -0.73833
C     2.26614  -2.00587  -1.16884
C     0.77589  -1.65210  -1.32795
O     0.86190  -0.26855  -1.71452
C     0.20912  -1.49367   0.10299
H    -2.02486  -1.64130  -2.31161
H    -3.44099  -1.82134  -1.23011
H    -2.03702  -2.89269  -1.01669
H    -1.58547   0.45376  -1.73002
H     1.95048   1.20759  -0.66982
H     3.87562  -0.70374  -0.43652
H     2.68112  -2.99758  -1.31867
H     0.19651  -2.23875  -2.05112
H    -0.11897  -2.32207   0.71475
26

C    -2.34396  -1.87000  -1.28081
N    -1.79921  -0.95678  -0.29737
N    -1.67030   0.25658  -0.72192
C    -1.23182   1.21320   0.13852
C    -1.60478   1.15951   1.50668
N    -1.90762   1.16092   2.63125
C    -0.65529   2.39676  -0.38501
N    -0.15191   3.36123  -0.80191
C     0.81467  -0.33386   0.55741
C     1.07439  -0.01174   1.90167
N     1.30621   0.26886   3.01120
C     1.70203   0.14237  -0.62850
C     2.84419  -0.88314  -0.73267
C     2.26008  -2.00632  -1.16320
C     0.77209  -1.64979  -1.33017
O     0.86268  -0.26665  -1.71795
C     0.18428  -1.48473   0.09298
H    -2.02357  -1.64342  -2.31064
H    -3.43840  -1.81856  -1.22682
H    -2.03734  -2.89459  -1.01590
H    -1.58256   0.45333  -1.72967
H     1.95084   1.20774  -0.67050
H     3.87419  -0.70459  -0.43417
H     2.67922  -2.99786  -1.31664
H     0.19660  -2.23787  -2.05292
H    -0.11755  -2.32120   0.71357
26

C    -2.33635  -1.87344  -1.27545
N    -1.77125  -0.96569  -0.29486
N    -1.67021   0.25759  -0.72173
C    -1.22082   1.20650   0.14075
C    -1.60295   1.15870   1.50783
N    -1.90798   1.16178   2.63159
C    -0.65180   2.39529  -0.38301
N    -0.15289   3.36096  -0.80151
C     0.80329  -0.32305   0.55315
C     1.07230  -0.01217   1.89835
N     1.30617   0.26592   3.00822
C     1.69977   0.14367  -0.62905
C     2.83954  -0.88408  -0.72701
C     2.25402  -2.00677  -1.15757
C     0.76829  -1.64747  -1.33240
O     0.86346  -0.26474  -1.72138
C     0.15943  -1.47578   0.08297
H    -2.02227  -1.64554  -2.30967
H    -3.43581  -1.81578  -1.22352
H    -2.03767  -2.89648  -1.01512
H    -1.57964   0.45289  -1.72932
H     1.95119   1.20789  -0.67118
H     3.87276  -0.70543  -0.43182
H     2.67732  -2.99813  -1.31460
H     0.19668  -2.23698  -2.05472
H    -0.11614  -2.32032   0.71239
26

C    -2.32874  -1.87688  -1.27009
N    -1.74329  -0.97459  -0.29234
N    -1.67012   0.25860  -0.72154
C    -1.20983   1.19979   0.14298
C    -1.60113   1.15788   1.50899
N    -1.90834   1.16264   2.63194
C    -0.64831   2.39382  -0.38102
N    -0.15387   3.36070  -0.80110
C     0.79192  -0.31225   0.54889
C     1.07021  -0.01260   1.89504
N     1.30613   0.26299   3.00523
C     1.69752   0.14496  -0.62961
C     2.83490  -0.88503  -0.72134
C     2.24796  -2.00722  -1.15193
C     0.76449  -1.64515  -1.33462
O     0.86424  -0.26283  -1.72480
C     0.13458  -1.46684   0.07295
H    -2.02097  -1.64766  -2.30870
H    -3.43321  -1.81301  -1.22023
H    -2.03799  -2.89838  -1.01434
H    -1.57673   0.45246  -1.72897
H     1.95154   1.20804  -0.67185
H     3.87132  -0.70628  -0.42948
H     2.67542  -2.99841  -1.31257
H     0.19676  -2.23609  -2.05652
H    -0.11473  -2.31945   0.71122
26

C    -2.32113  -1.88032  -1.26473
N    -1.71533  -0.98350  -0.28983
N    -1.67003   0.25962  -0.72134
C    -1.19883   1.19308   0.14521
C    -1.59930   1.15707   1.51014
N    -1.90870   1.16349   2.63228
C    -0.64483   2.39236  -0.37902
N    -0.15485   3.36044  -0.80069
C     0.78055  -0.30145   0.54462
C     1.06812  -0.01304   1.89172
N     1.30608   0.26006   3.00225
C     1.69526   0.14625  -0.63016
C     2.83025  -0.88597  -0.71568
C     2.24190  -2.00768  -1.14630
C     0.76069  -1.64283  -1.33685
O     0.86502  -0.26092  -1.72823
C     0.10974  -1.45789   0.06294
H    -2.01967  -1.64978  -2.30773
H    -3.43062  -1.81023  -1.21694
H    -2.03831  -2.90028  -1.01356
H    -1.57382   0.45203  -1.72862
H     1.95189   1.20819  -0.67253
H     3.86989  -0.70712  -0.42713
H     2.67352  -2.99868  -1.31054
H     0.19685  -2.23521  -2.05832
H    -0.11332  -2.31857   0.71004
26

C    -2.31352  -1.88376  -1.25937
N    -1.68737  -0.99241  -0.28731
N    -1.66993   0.26063  -0.72115
C    -1.18784   1.18637   0.14744
C    -1.59747   1.15626   1.51129
N    -1.90906   1.16435   2.63263
C    -0.64134   2.39089  -0.37702
N    -0.15583   3.36017  -0.80029
C     0.76917  -0.29064   0.54036
C     1.06603  -0.01347   1.88841
N     1.30604   0.25712   2.99926
C     1.69301   0.14754  -0.63071
C     2.82561  -0.88692  -0.71002
C     2.23584  -2.00813  -1.14067
C     0.75689  -1.64051  -1.33907
O     0.86580  -0.25901  -1.73165
C     0.08489  -1.44895   0.05292
H    -2.01837  -1.65190  -2.30676
H    -3.42803  -1.80745  -1.21364
H    -2.03863  -2.90218  -1.01278
H    -1.57090   0.45160  -1.72827
H     1.95225   1.20835  -0.67321
H     3.86845  -0.70796  -0.42478
H     2.67162  -2.99896  -1.30850
H     0.19693  -2.23432  -2.06011
H    -0.11190  -2.31770   0.70886
26

C    -2.30591  -1.88720  -1.25401
N    -1.65942  -1.00131  -0.28480
N    -1.66984   0.26165  -0.72096
C    -1.17684   1.17967   0.14967
C    -1.59564   1.15545   1.51244
N    -1.90942   1.16521   2.63297
C    -0.63786   2.38942  -0.37503
N    -0.15681   3.35991  -0.79988
C     0.75780  -0.27984   0.53610
C     1.06394  -0.01390   1.88509
N     1.30600   0.25419   2.99628
C     1.69076   0.14884  -0.63127
C     2.82096  -0.88786  -0.70435
C     2.22978  -2.00858  -1.13503
C     0.75309  -1.63819  -1.34129
O     0.86658  -0.25710  -1.73508
C     0.06004  -1.44000   0.04291
H    -2.01707  -1.65401  -2.30579
H    -3.42543  -1.80467  -1.21035
H    -2.03895  -2.90408  -1.01200
H    -1.56799   0.45116  -1.72791
H     1.95260   1.20850  -0.67389
H     3.86702  -0.70881  -0.42243
H     2.66972  -2.99923  -1.30647
H     0.19701  -2.23343  -2.06191
H    -0.11049  -2.31682   0.70768
26

C    -2.29830  -1.89064  -1.24865
N    -1.63146  -1.01022  -0.28228
N    -1.66975   0.26266  -0.72076
C    -1.16585   1.17296   0.15190
C    -1.59381   1.15464   1.51359
N    -1.90978   1.16607   2.63332
C    -0.63437   2.38795  -0.37303
N    -0.15779   3.35964  -0.79948
C     0.74643  -0.26904   0.53184
C     1.06185  -0.01433   1.88178
N     1.30596   0.25125   2.99329
C     1.68850   0.15013  -0.63182
C     2.81632  -0.88880  -0.69869
C     2.22372  -2.00903  -1.12940
C     0.74929  -1.63587  -1.34352
O     0.86736  -0.25520  -1.73851
C     0.03520  -1.43106   0.03289
H    -2.01577  -1.65613  -2.30481
H    -3.42284  -1.80189  -1.20706
H    -2.03927  -2.90598  -1.01122
H    -1.56508   0.45073  -1.72756
H     1.95295   1.20865  -0.67457
H     3.86559  -0.70965  -0.42008
H     2.66782  -2.99951  -1.30443
H     0.19710  -2.23255  -2.06371
H    -0.10908  -2.31595   0.70651
26

C    -2.29069  -1.89409  -1.24329
N    -1.60350  -1.01913  -0.27977
N    -1.66966   0.26368  -0.72057
C    -1.15485   1.16625   0.15413
C    -1.59198   1.15383   1.51475
N    -1.91014   1.16693   2.63366
C    -0.63088   2.38648  -0.37104
N    -0.15876   3.35938  -0.79907
C     0.73506  -0.25823   0.52757
C     1.05976  -0.01476   1.87846
N     1.30591   0.24832   2.99030
C     1.68625   0.15142  -0.63238
C     2.81167  -0.88975  -0.69303
C     2.21766  -2.00949  -1.12376
C     0.74549  -1.63355  -1.34574
O     0.86814  -0.25329  -1.74193
C     0.01035  -1.42211   0.02288
H    -2.01448  -1.65825  -2.30384
H    -3.42025  -1.79912  -1.20376
H    -2.03959  -2.90788  -1.01043
H    -1.56217   0.45030  -1.72721
H     1.95330   1.20880  -0.67524
H     3.86415  -0.71050  -0.41774
H     2.66592  -2.99978  -1.30240
H     0.19718  -2.23166  -2.06551
H    -0.10767  -2.31507   0.70533
26

C    -2.28307  -1.89753  -1.23793
N    -1.57554  -1.02804  -0.27725
N    -1.66957   0.26469  -0.72038
C    -1.14385   1.15955   0.15636
C    -1.59015   1.15302   1.51590
N    -1.91050   1.16779   2.63401
C    -0.62740   2.38501  -0.36904
N    -0.15974   3.35912  -0.79866
C     0.72368  -0.24743   0.52331
C     1.05767  -0.01519   1.87515
N     1.30587   0.24538   2.98732
C     1.68399   0.15271  -0.63293
C     2.80703  -0.89069  -0.68736
C     2.21160  -2.00994  -1.11813
C     0.74169  -1.63123  -1.34797
O     0.86892  -0.25138  -1.74536
C    -0.01449  -1.41317   0.01287
H    -2.01318  -1.66037  -2.30287
H    -3.41765  -1.79634  -1.20047
H    -2.03991  -2.90978  -1.00965
H    -1.55925   0.44986  -1.72686
H     1.95366   1.20895  -0.67592
H     3.86272  -0.71134  -0.41539
H     2.66402  -3.00006  -1.30036
H     0.19726  -2.23077  -2.06731
H    -0.10625  -2.31420   0.70415
26

C    -2.27546  -1.90097  -1.23256
N    -1.54758  -1.03694  -0.27474
N    -1.66948   0.26571  -0.72018
C    -1.13286   1.15284   0.15859
C    -1.58833   1.15220   1.51705
N    -1.91087   1.16865   2.63435
C    -0.62391   2.38354  -0.36705
N    -0.16072   3.35885  -0.79826
C     0.71231  -0.23663   0.51905
C     1.05558  -0.01563   1.87183
N     1.30583   0.24245   2.98433
C     1.68174   0.15400  -0.63348
C     2.80238  -0.89164  -0.68170
C     2.20554  -2.01039  -1.11249
C     0.73789  -1.62892  -1.35019
O     0.86970  -0.24947  -1.74878
C    -0.03934  -1.40422   0.00285
H    -2.01188  -1.66249  -2.30190
H    -3.41506  -1.79356  -1.19717
H    -2.04024  -2.91168  -1.00887
H    -1.55634   0.44943  -1.72651
H     1.95401   1.20910  -0.67660
H     3.86129  -0.71218  -0.41304
H     2.66212  -3.00033  -1.29833
H     0.19735  -2.22988  -2.06910
H    -0.10484  -2.31332   0.70297
26

C    -2.26785  -1.90441  -1.22720
N    -1.51962  -1.04585  -0.27222
N    -1.66938   0.26672  -0.71999
C    -1.12186   1.14613   0.16082
C    -1.58650   1.15139   1.51820
N    -1.91123   1.16951   2.63469
C    -0.62043   2.38207  -0.36505
N    -0.16170   3.35859  -0.79785
C     0.70094  -0.22582   0.51479
C     1.05348  -0.01606   1.86852
N     1.30578   0.23951   2.98135
C     1.67949   0.15530  -0.63404
C     2.79774  -0.89258  -0.67603
C     2.19948  -2.01085  -1.10686
C     0.73409  -1.62660  -1.35242
O     0.87048  -0.24756  -1.75221
C    -0.06419  -1.39528  -0.00716
H    -2.01058  -1.66461  -2.30093
H    -3.41247  -1.79078  -1.19388
H    -2.04056  -2.91358  -1.00809
H    -1.55343   0.44900  -1.72616
H     1.95436   1.20925  -0.67728
H     3.85985  -0.71303  -0.41069
H     2.66022  -3.00061  -1.29629
H     0.19743  -2.22900  -2.07090
H    -0.10343  -2.31245   0.70180
26

C    -2.26024  -1.90785  -1.22184
N    -1.49166  -1.05476  -0.26971
N    -1.66929   0.26773  -0.71979
C    -1.11087   1.13942   0.16305
C    -1.58467   1.15058   1.51936
N    -1.91159   1.17037   2.63504
C    -0.61694   2.38060  -0.36306
N    -0.16268   3.35832  -0.79745
C     0.68957  -0.21502   0.51053
C     1.05139  -0.01649   1.86520
N     1.30574   0.23658   2.97836
C     1.67723   0.15659  -0.63459
C     2.79309  -0.89353  -0.67037
C     2.19342  -2.01130  -1.10122
C     0.73029  -1.62428  -1.35464
O     0.87126  -0.24565  -1.75563
C    -0.08903  -1.38633  -0.01718
H    -2.00928  -1.66673  -2.29996
H    -3.40988  -1.78800  -1.19059
H    -2.04088  -2.91548  -1.00731
H    -1.55051   0.44856  -1.72581
H     1.95471   1.20940  -0.67796
H     3.85842  -0.71387  -0.40834
H     2.65832  -3.00088  -1.29426
H     0.19752  -2.22811  -2.07270
H    -0.10201  -2.31157   0.70062
26

C    -2.26785  -1.90441  -1.22720
N    -1.51962  -1.04585  -0.27222
N    -1.66938   0.26672  -0.71999
C    -1.12186   1.14613   0.16082
C    -1.58650   1.15139   1.51820
N    -1.91123   1.16951   2.63469
C    -0.62043   2.38207  -0.36505
N    -0.16170   3.35859  -0.79785
C     0.70094  -0.22582   0.51479
C     1.05348  -0.01606   1.86852
N     1.30578   0.23951   2.98135
C     1.67949   0.15530  -0.63404
C     2.79774  -0.89258  -0.67603
C     2.19948  -2.01085  -1.10686
C     0.73409  -1.62660  -1.35242
O     0.87048  -0.24756  -1.75221
C    -0.06419  -1.39528  -0.00716
H    -2.01058  -1.66461  -2.30093
H    -3.41247  -1.79078  -1.19388
H    -2.04056  -2.91358  -1.00809
H    -1.55343   0.44900  -1.72616
H     1.95436   1.20925  -0.67728
H     3.85985  -0.71303  -0.41069
H     2.66022  -3.00061  -1.29629
H     0.19743  -2.22900  -2.07090
H    -0.10343  -2.31245   0.70180
26

C    -2.27546  -1.90097  -1.23256
N    -1.54758  -1.03694  -0.27474
N    -1.66948   0.26571  -0.72018
C    -1.13286   1.15284   0.15859
C    -1.58833   1.15220   1.51705
N    -1.91087   1.16865   2.63435
C    -0.62391   2.38354  -0.36705
N    -0.16072   3.35885  -0.79826
C     0.71231  -0.23663   0.51905
C     1.05558  -0.01563   1.87183
N     1.30583   0.24245   2.98433
C     1.68174   0.15400  -0.63348
C     2.80238  -0.89164  -0.68170
C     2.20554  -2.01039  -1.11249
C     0.73789  -1.62892  -1.35019
O     0.86970  -0.24947  -1.74878
C    -0.03934  -1.40422   0.00285
H    -2.01188  -1.66249  -2.30190
H    -3.41506  -1.79356  -1.19717
H    -2.04024  -2.91168  -1.00887
H    -1.55634   0.44943  -1.72651
H     1.95401   1.20910  -0.67660
H     3.86129  -0.71218  -0.41304
H     2.66212  -3.00033  -1.29833
H     0.19735  -2.22988  -2.06910
H    -0.10484  -2.31332   0.70297
26

C    -2.28307  -1.89753  -1.23793
N    -1.57554  -1.02804  -0.27725
N    -1.66957   0.26469  -0.72038
C    -1.14385   1.15955   0.15636
C    -1.59015   1.15302   1.51590
N    -1.91050   1.16779   2.63401
C    -0.62740   2.38501  -0.36904
N    -0.15974   3.35912  -0.79866
C     0.72368  -0.24743   0.52331
C     1.05767  -0.01519   1.87515
N     1.30587   0.24538   2.98732
C     1.68399   0.15271  -0.63293
C     2.80703  -0.89069  -0.68736
C     2.21160  -2.00994  -1.11813
C     0.74169  -1.63123  -1.34797
O     0.86892  -0.25138  -1.74536
C    -0.01449  -1.41317   0.01287
H    -2.01318  -1.66037  -2.30287
H    -3.41765  -1.79634  -1.20047
H    -2.03991  -2.90978  -1.00965
H    -1.55925   0.44986  -1.72686
H     1.95366   1.20895  -0.67592
H     3.86272  -0.71134  -0.41539
H     2.66402  -3.00006  -1.30036
H     0.19726  -2.23077  -2.06731
H    -0.10625  -2.31420   0.70415
26

C    -2.29069  -1.89409  -1.24329
N    -1.60350  -1.01913  -0.27977
N    -1.66966   0.26368  -0.72057
C    -1.15485   1.16625   0.15413
C    -1.59198   1.15383   1.51475
N    -1.91014   1.16693   2.63366
C    -0.63088   2.38648  -0.37104
N    -0.15876   3.35938  -0.79907
C     0.73506  -0.25823   0.52757
C     1.05976  -0.01476   1.87846
N     1.30591   0.24832   2.99030
C     1.68625   0.15142  -0.63238
C     2.81167  -0.88975  -0.69303
C     2.21766  -2.00949  -1.12376
C     0.74549  -1.63355  -1.34574
O     0.86814  -0.25329  -1.74193
C     0.01035  -1.42211   0.02288
H    -2.01448  -1.65825  -2.30384
H    -3.42025  -1.79912  -1.20376
H    -2.03959  -2.90788  -1.01043
H    -1.56217   0.45030  -1.72721
H     1.95330   1.20880  -0.67524
H     3.86415  -0.71050  -0.41774
H     2.66592  -2.99978  -1.30240
H     0.19718  -2.23166  -2.06551
H    -0.10767  -2.31507   0.70533
26

C    -2.29830  -1.89064  -1.24865
N    -1.63146  -1.01022  -0.28228
N    -1.66975   0.26266  -0.72076
C    -1.16585   1.17296   0.15190
C    -1.59381   1.15464   1.51359
N    -1.90978   1.16607   2.63332
C    -0.63437   2.38795  -0.37303
N    -0.15779   3.35964  -0.79948
C     0.74643  -0.26904   0.53184
C     1.06185  -0.01433   1.88178
N     1.30596   0.25125   2.99329
C     1.68850   0.15013  -0.63182
C     2.81632  -0.88880  -0.69869
C     2.22372  -2.00903  -1.12940
C     0.74929  -1.63587  -1.34352
O     0.86736  -0.25520  -1.73851
C     0.03520  -1.43106   0.03289
H    -2.01577  -1.65613  -2.30481
H    -3.42284  -1.80189  -1.20706
H    -2.03927  -2.90598  -1.01122
H    -1.56508   0.45073  -1.72756
H     1.95295   1.20865  -0.67457
H     3.86559  -0.70965  -0.42008
H     2.66782  -2.99951  -1.30443
H     0.19710  -2.23255  -2.06371
H    -0.10908  -2.31595   0.70651
26

C    -2.30591  -1.88720  -1.25401
N    -1.65942  -1.00131  -0.28480
N    -1.66984   0.26165  -0.72096
C    -1.17684   1.17967   0.14967
C    -1.59564   1.15545   1.51244
N    -1.90942   1.16521   2.63297
C    -0.63786   2.38942  -0.37503
N    -0.15681   3.35991  -0.79988
C     0.75780  -0.27984   0.53610
C     1.06394  -0.01390   1.88509
N     1.30600   0.25419   2.99628
C     1.69076   0.14884  -0.63127
C     2.82096  -0.88786  -0.70435
C     2.22978  -2.00858  -1.13503
C     0.75309  -1.63819  -1.34129
O     0.86658  -0.25710  -1.73508
C     0.06004  -1.44000   0.04291
H    -2.01707  -1.65401  -2.30579
H    -3.42543  -1.80467  -1.21035
H    -2.03895  -2.90408  -1.01200
H    -1.56799   0.45116  -1.72791
H     1.95260   1.20850  -0.67389
H     3.86702  -0.70881  -0.42243
H     2.66972  -2.99923  -1.30647
H     0.19701  -2.23343  -2.06191
H    -0.11049  -2.31682   0.70768
26

C    -2.31352  -1.88376  -1.25937
N    -1.68737  -0.99241  -0.28731
N    -1.66993   0.26063  -0.72115
C    -1.18784   1.18637   0.14744
C    -1.59747   1.15626   1.51129
N    -1.90906   1.16435   2.63263
C    -0.64134   2.39089  -0.37702
N    -0.15583   3.36017  -0.80029
C     0.76917  -0.29064   0.54036
C     1.06603  -0.01347   1.88841
N     1.30604   0.25712   2.99926
C     1.69301   0.14754  -0.63071
C     2.82561  -0.88692  -0.71002
C     2.23584  -2.00813  -1.14067
C     0.75689  -1.64051  -1.33907
O     0.86580  -0.25901  -1.73165
C     0.08489  -1.44895   0.05292
H    -2.01837  -1.65190  -2.30676
H    -3.42803  -1.80745  -1.21364
H    -2.03863  -2.90218  -1.01278
H    -1.57090   0.45160  -1.72827
H     1.95225   1.20835  -0.67321
H     3.86845  -0.70796  -0.42478
H     2.67162  -2.99896  -1.30850
H     0.19693  -2.23432  -2.06011
H    -0.11190  -2.31770   0.70886
26

C    -2.32113  -1.88032  -1.26473
N    -1.71533  -0.98350  -0.28983
N    -1.67003   0.25962  -0.72134
C    -1.19883   1.19308   0.14521
C    -1.59930   1.15707   1.51014
N    -1.90870   1.16349   2.63228
C    -0.64483   2.39236  -0.37902
N    -0.15485   3.36044  -0.80069
C     0.78055  -0.30145   0.54462
C     1.06812  -0.01304   1.89172
N     1.30608   0.26006   3.00225
C     1.69526   0.14625  -0.63016
C     2.83025  -0.88597  -0.71568
C     2.24190  -2.00768  -1.14630
C     0.76069  -1.64283  -1.33685
O     0.86502  -0.26092  -1.72823
C     0.10974  -1.45789   0.06294
H    -2.01967  -1.64978  -2.30773
H    -3.43062  -1.81023  -1.21694
H    -2.03831  -2.90028  -1.01356
H    -1.57382   0.45203  -1.72862
H     1.95189   1.20819  -0.67253
H     3.86989  -0.70712  -0.42713
H     2.67352  -2.99868  -1.31054
H     0.19685  -2.23521  -2.05832
H    -0.11332  -2.31857   0.71004
26

C    -2.32874  -1.87688  -1.27009
N    -1.74329  -0.97459  -0.29234
N    -1.67012   0.25860  -0.72154
C    -1.20983   1.19979   0.14298
C    -1.60113   1.15788   1.50899
N    -1.90834   1.16264   2.63194
C    -0.64831   2.39382  -0.38102
N    -0.15387   3.36070  -0.80110
C     0.79192  -0.31225   0.54889
C     1.07021  -0.01260   1.89504
N     1.30613   0.26299   3.00523
C     1.69752   0.14496  -0.62961
C     2.83490  -0.88503  -0.72134
C     2.24796  -2.00722  -1.15193
C     0.76449  -1.64515  -1.33462
O     0.86424  -0.26283  -1.72480
C     0.13458  -1.46684   0.07295
H    -2.02097  -1.64766  -2.30870
H    -3.43321  -1.81301  -1.22023
H    -2.03799  -2.89838  -1.01434
H    -1.57673   0.45246  -1.72897
H     1.95154   1.20804  -0.67185
H     3.87132  -0.70628  -0.42948
H     2.67542  -2.99841  -1.31257
H     0.19676  -2.23609  -2.05652
H    -0.11473  -2.31945   0.71122
26

C    -2.33635  -1.87344  -1.27545
N    -1.77125  -0.96569  -0.29486
N    -1.67021   0.25759  -0.72173
C    -1.22082   1.20650   0.14075
C    -1.60295   1.15870   1.50783
N    -1.90798   1.16178   2.63159
C    -0.65180   2.39529  -0.38301
N    -0.15289   3.36096  -0.80151
C     0.80329  -0.32305   0.55315
C     1.07230  -0.01217   1.89835
N     1.30617   0.26592   3.00822
C     1.69977   0.14367  -0.62905
C     2.83954  -0.88408  -0.72701
C     2.25402  -2.00677  -1.15757
C     0.76829  -1.64747  -1.33240
O     0.86346  -0.26474  -1.72138
C     0.15943  -1.47578   0.08297
H    -2.02227  -1.64554  -2.30967
H    -3.43581  -1.81578  -1.22352
H    -2.03767  -2.89648  -1.01512
H    -1.57964   0.45289  -1.72932
H     1.95119   1.20789  -0.67118
H     3.87276  -0.70543  -0.43182
H     2.67732  -2.99813  -1.31460
H     0.19668  -2.23698  -2.05472
H    -0.11614  -2.32032   0.71239
26

C    -2.34396  -1.87000  -1.28081
N    -1.79921  -0.95678  -0.29737
N    -1.67030   0.25658  -0.72192
C    -1.23182   1.21320   0.13852
C    -1.60478   1.15951   1.50668
N    -1.90762   1.16092   2.63125
C    -0.65529   2.39676  -0.38501
N    -0.15191   3.36123  -0.80191
C     0.81467  -0.33386   0.55741
C     1.07439  -0.01174   1.90167
N     1.30621   0.26886   3.01120
C     1.70203   0.14237  -0.62850
C     2.84419  -0.88314  -0.73267
C     2.26008  -2.00632  -1.16320
C     0.77209  -1.64979  -1.33017
O     0.86268  -0.26665  -1.71795
C     0.18428  -1.48473   0.09298
H    -2.02357  -1.64342  -2.31064
H    -3.43840  -1.81856  -1.22682
H    -2.03734  -2.89459  -1.01590
H    -1.58256   0.45333  -1.72967
H     1.95084   1.20774  -0.67050
H     3.87419  -0.70459  -0.43417
H     2.67922  -2.99786  -1.31664
H     0.19660  -2.23787  -2.05292
H    -0.11755  -2.32120   0.71357
26

C    -2.35157  -1.86655  -1.28618
N    -1.82717  -0.94787  -0.29989
N    -1.67039   0.25556  -0.72212
C    -1.24281   1.21991   0.13629
C    -1.60661   1.16032   1.50553
N    -1.90726   1.16006   2.63090
C    -0.65877   2.39823  -0.38700
N    -0.15093   3.36149  -0.80232
C     0.82604  -0.34466   0.56167
C     1.07648  -0.01131   1.90498
N     1.30626   0.27179   3.01419
C     1.70428   0.14108  -0.62795
C     2.84883  -0.88220  -0.73833
C     2.26614  -2.00587  -1.16884
C     0.77589  -1.65210  -1.32795
O     0.86190  -0.26855  -1.71452
C     0.20912  -1.49367   0.10299
H    -2.02486  -1.64130  -2.31161
H    -3.44099  -1.82134  -1.23011
H    -2.03702  -2.89269  -1.01669
H    -1.58547   0.45376  -1.73002
H     1.95048   1.20759  -0.66982
H     3.87562  -0.70374  -0.43652
H     2.68112  -2.99758  -1.31867
H     0.19651  -2.23875  -2.05112
H    -0.11897  -2.32207   0.71475
26

C    -2.35919  -1.86311  -1.29154
N    -1.85513  -0.93897  -0.30240
N    -1.67049   0.25455  -0.72231
C    -1.25381   1.22662   0.13406
C    -1.60844   1.16113   1.50438
N    -1.90690   1.15920   2.63056
C    -0.66226   2.39970  -0.38900
N    -0.14995   3.36176  -0.80272
C     0.83741  -0.35546   0.56593
C     1.07857  -0.01088   1.90830
N     1.30630   0.27473   3.01717
C     1.70654   0.13979  -0.62739
C     2.85348  -0.88125  -0.74400
C     2.27220  -2.00541  -1.17447
C     0.77969  -1.65442  -1.32572
O     0.86112  -0.27046  -1.71110
C     0.23397  -1.50261   0.11301
H    -2.02616  -1.63918  -2.31259
H    -3.44359  -1.82412  -1.23340
H    -2.03670  -2.89079  -1.01747
H    -1.58838   0.45419  -1.73037
H     1.95013   1.20744  -0.66914
H     3.87706  -0.70290  -0.43887
H     2.68302  -2.99731  -1.32071
H     0.19643  -2.23964  -2.04933
H    -0.12038  -2.32294   0.71593
26

C    -2.36680  -1.85967  -1.29690
N    -1.88309  -0.93006  -0.30492
N    -1.67058   0.25353  -0.72250
C    -1.26481   1.23333   0.13183
C    -1.61027   1.16194   1.50322
N    -1.90654   1.15834   2.63021
C    -0.66574   2.40117  -0.39099
N    -0.14897   3.36202  -0.80313
C     0.84878  -0.36627   0.57020
C     1.08066  -0.01044   1.91162
N     1.30634   0.27766   3.02016
C     1.70879   0.13850  -0.62684
C     2.85812  -0.88031  -0.74966
C     2.27826  -2.00496  -1.18011
C     0.78349  -1.65674  -1.32350
O     0.86034  -0.27237  -1.70767
C     0.25882  -1.51156   0.12302
H    -2.02746  -1.63707  -2.31356
H    -3.44618  -1.82690  -1.23670
H    -2.03638  -2.88889  -1.01825
H    -1.59130   0.45463  -1.73072
H     1.94978   1.20729  -0.66846
H     3.87849  -0.70206  -0.44121
H     2.68492  -2.99703  -1.32274
H     0.19635  -2.24053  -2.04753
H    -0.12179  -2.32382   0.71710
26

C    -2.37441  -1.85623  -1.30226
N    -1.91105  -0.92115  -0.30743
N    -1.67067   0.25252  -0.72270
C    -1.27580   1.24003   0.12960
C    -1.61210   1.16275   1.50207
N    -1.90618   1.15748   2.62987
C    -0.66923   2.40264  -0.39299
N    -0.14799   3.36228  -0.80354
C     0.86016  -0.37707   0.57446
C     1.08276  -0.01001   1.91493
N     1.30638   0.28060   3.02314
C     1.71104   0.13721  -0.62629
C     2.86277  -0.87936  -0.75533
C     2.28432  -2.00451  -1.18574
C     0.78729  -1.65906  -1.32127
O     0.85956  -0.27428  -1.70425
C     0.28366  -1.52050   0.13304
H    -2.02876  -1.63495  -2.31453
H    -3.44877  -1.82968  -1.23999
H    -2.03606  -2.88699  -1.01903
H    -1.59421   0.45506  -1.73107
H     1.94943   1.20714  -0.66779
H     3.87992  -0.70121  -0.44356
H     2.68682  -2.99676  -1.32478
H     0.19626  -2.24142  -2.04573
H    -0.12321  -2.32469   0.71828
26

C    -2.38202  -1.85279  -1.30762
N    -1.93901  -0.91224  -0.30995
N    -1.67076   0.25150  -0.72289
C    -1.28680   1.24674   0.12737
C    -1.61393   1.16357   1.50092
N    -1.90582   1.15662   2.62952
C    -0.67272   2.40411  -0.39498
N    -0.14701   3.36255  -0.80394
C     0.87153  -0.38787   0.57872
C     1.08485  -0.00958   1.91825
N     1.30643   0.28353   3.02613
C     1.71330   0.13591  -0.62573
C     2.86741  -0.87842  -0.76099
C     2.29038  -2.00406  -1.19138
C     0.79109  -1.66138  -1.31905
O     0.85878  -0.27619  -1.70082
C     0.30851  -1.52945   0.14305
H    -2.03006  -1.63283  -2.31550
H    -3.45137  -1.83245  -1.24328
H    -2.03574  -2.88509  -1.01981
H    -1.59712   0.45549  -1.73143
H     1.94907   1.20699  -0.66711
H     3.88136  -0.70037  -0.44591
H     2.68872  -2.99648  -1.32681
H     0.19618  -2.24230  -2.04393
H    -0.12462  -2.32557   0.71946
26

C    -2.38963  -1.84935  -1.31298
N    -1.96696  -0.90334  -0.31246
N    -1.67085   0.25049  -0.72309
C    -1.29779   1.25345   0.12514
C    -1.61575   1.16438   1.49977
N    -1.90546   1.15576   2.62918
C    -0.67620   2.40558  -0.39698
N    -0.14603   3.36281  -0.80435
C     0.88290  -0.39868   0.58298
C     1.08694  -0.00915   1.92156
N     1.30647   0.28647   3.02911
C     1.71555   0.13462  -0.62518
C     2.87206  -0.87747  -0.76665
C     2.29644  -2.00360  -1.19701
C     0.79489  -1.66370  -1.31682
O     0.85800  -0.27809  -1.69740
C     0.33336  -1.53839   0.15307
H    -2.03136  -1.63071  -2.31647
H    -3.45396  -1.83523  -1.24658
H    -2.03542  -2.88319  -1.02059
H    -1.60003   0.45593  -1.73178
H     1.94872   1.20683  -0.66643
H     3.88279  -0.69952  -0.44826
H     2.69062  -2.99621  -1.32885
H     0.19610  -2.24319  -2.04213
H    -0.12603  -2.32644   0.72064
26

C    -2.39724  -1.84591  -1.31834
N    -1.99492  -0.89443  -0.31498
N    -1.67094   0.24948  -0.72328
C    -1.30879   1.26015   0.12291
C    -1.61758   1.16519   1.49861
N    -1.90510   1.15490   2.62884
C    -0.67969   2.40705  -0.39898
N    -0.14506   3.36307  -0.80475
C     0.89427  -0.40948   0.58725
C     1.08903  -0.00872   1.92488
N     1.30651   0.28940   3.03210
C     1.71781   0.13333  -0.62463
C     2.87670  -0.87653  -0.77232
C     2.30250  -2.00315  -1.20265
C     0.79869  -1.66602  -1.31460
O     0.85722  -0.28000  -1.69397
C     0.35820  -1.54734   0.16308
H    -2.03266  -1.62859  -2.31744
H    -3.45655  -1.83801  -1.24987
H    -2.03510  -2.88129  -1.02137
H    -1.60295   0.45636  -1.73213
H     1.94837   1.20668  -0.66575
H     3.88423  -0.69868  -0.45061
H     2.69252  -2.99593  -1.33088
H     0.19601  -2.24408  -2.04033
H    -0.12744  -2.32732   0.72181
26

C    -2.40485  -1.84247  -1.32370
N    -2.02288  -0.88552  -0.31749
N    -1.67104   0.24846  -0.72347
C    -1.31978   1.26686   0.12068
C    -1.61941   1.16600   1.49746
N    -1.90474   1.15404   2.62849
C    -0.68317   2.40851  -0.40097
N    -0.14408   3.36334  -0.80516
C     0.90565  -0.42028   0.59151
C     1.09112  -0.00829   1.92819
N     1.30656   0.29234   3.03509
C     1.72006   0.13204  -0.62407
C     2.88135  -0.87559  -0.77798
C     2.30856  -2.00270  -1.20828
C     0.80249  -1.66834  -1.31237
O     0.85644  -0.28191  -1.69054
C     0.38305  -1.55628   0.17310
H    -2.03396  -1.62647  -2.31841
H    -3.45915  -1.84079  -1.25316
H    -2.03477  -2.87939  -1.02216
H    -1.60586   0.45679  -1.73248
H     1.94802   1.20653  -0.66508
H     3.88566  -0.69784  -0.45295
H     2.69442  -2.99566  -1.33291
H     0.19593  -2.24496  -2.03854
H    -0.12886  -2.32819   0.72299
