10

C -2.879090801 -0.772686506 -0.969263641
O -1.346183481 -2.472528716 -1.818289961
C 1.095829144 -2.837728438 -1.537213533
N 2.742857421 -1.462069537 -0.245854049
C 2.425493528 0.562951983 1.057741015
H 0.666089682 1.566328317 1.363429878
H 4.091075778 1.371086746 1.945757884
H 1.711972155 -4.495570862 -2.547429296
H -2.280394233 0.725939576 0.255152862
H -4.811137323 -1.026849643 -1.565858814

