12

C -3.004942328 0.101589673 -1.071453680
O -1.721695325 -2.176158792 -1.064704977
C 0.693141017 -2.330902115 -0.945182861
N 2.272770171 -0.415030741 -0.549084360
C 2.388841099 1.005531000 1.414539373
H -2.050957463 1.483021725 -2.256527143
H -4.954128515 -0.282318091 -1.566863544
H -2.122759591 1.968335387 1.375032607
H 1.433649474 -4.170650161 -1.452127443
H -1.122974436 2.848787247 2.223991105
H 1.481332631 0.520656000 3.186718561
H 3.685973715 2.592679525 1.399652904

