19

C 4.453954916 -0.345595646 1.431113745
C 3.197138775 -0.827884385 -1.113809793
C 0.846820858 0.745466343 -1.463583208
C -1.311339615 -0.071810424 -3.124008453
C -1.585012360 -0.113451730 -0.313843560
C -4.547391120 -0.447219674 2.163083474
O -3.247493041 2.175233771 0.502337108
H 6.139336753 -1.507893903 1.685249254
H 3.140448541 -0.773525204 2.965372502
H 5.021671068 1.632585384 1.617269909
H 2.685300124 -2.824426920 -1.267331900
H 4.528575665 -0.445245799 -2.650957677
H 1.173017974 2.780435627 -1.447986996
H -1.212165522 -1.879118166 -4.087046901
H -2.276697135 1.397595200 -4.177114555
H -5.431728768 -1.741662984 0.858128356
H -5.928216286 0.820553533 3.040150458
H -3.370675009 -1.401814411 3.528918199
H -2.288874058 3.057173243 1.777843623

