18

C 5.733523151 1.271926674 -0.449245820
O 3.191118561 1.788232600 0.085063338
C 1.568298659 -0.284487516 -0.367661014
C -0.351971393 -0.647760661 1.775453989
N -2.246079603 -1.287690959 -0.265168052
C -4.966879971 -0.975377509 0.110861747
C -0.743275829 0.445857201 -1.967474371
H 6.824949290 2.958269796 0.035074923
H 6.021547875 0.835523584 -2.454708448
H 6.430567605 -0.334938006 0.655568821
H -1.796031954 -3.069117975 -0.833244386
H -0.142918740 -2.121261946 3.206672066
H -1.037178735 1.119040442 2.652584656
H -5.351175091 0.950299256 0.714248634
H -5.615663994 -2.290974091 1.556748804
H -5.952992334 -1.346835815 -1.658939202
H -1.481057638 2.368437291 -1.622639869
H -0.898452447 -0.028297288 -3.971352992

