18

C 5.683247328 0.776045135 -0.728339320
O 3.415851312 1.750416478 0.255323259
C 1.377348674 0.130394825 -0.041929319
C -0.640455396 0.049755752 2.055990371
N -2.183406572 -0.959993325 -0.083820749
C -4.873536533 -1.468477202 -0.030674734
C -0.877328597 0.889041422 -1.765388325
H 7.173652156 2.134291003 -0.296575829
H 5.578169919 0.525912236 -2.782966008
H 6.141606825 -1.053424219 0.123442277
H -0.370999253 -2.270370785 -0.469063283
H -0.444630410 -1.243861104 3.647974233
H -1.396296202 1.887563673 2.653118050
H -5.952592619 0.231066489 0.418903054
H -5.264587670 -2.907563418 1.390815808
H -5.469311944 -2.173111816 -1.872589332
H -1.645526644 2.788866753 -1.447010537
H -0.903910108 0.379517307 -3.762306632

