12

C -2.816033059 1.854203790 -1.170085894
C -3.214904525 -0.745445631 -0.026669440
N -0.779387115 -2.031795111 0.315580257
C -0.699438151 -3.770905736 2.517325657
H -1.215130880 -5.682386463 2.963333318
C 0.363326379 -1.645601118 2.862081603
H 1.498865170 -0.273337527 3.833051780
H -4.244140401 -0.599388245 1.773728971
H -4.351936955 -1.912151939 -1.300956326
H -4.619529299 2.788916491 -1.528182324
H -1.716800329 3.056771412 0.098873192
H -1.788707621 1.708434342 -2.951560229

