12

O 4.485946845 0.168878115 -0.027484158
C 2.278919888 -0.500198657 0.961457409
C 0.097703867 0.878850318 0.077902599
O 0.341887210 3.073054596 -0.758851103
C -2.364905015 -0.289010783 0.162995360
O -4.327444593 1.270629169 0.287367005
H 4.141003363 1.361112526 -1.378516525
H 2.479342199 -1.169526308 2.878790542
H 0.401224364 -3.057522823 1.170865633
H -1.027272601 -2.636411775 1.838824575
H -2.825849374 -2.005142489 -0.840520549
H -3.667174984 2.964882477 0.530717488

