14

C 3.394237664 0.605033594 -0.770959693
C 1.248278642 -1.290411276 -0.544775916
C 1.956080002 -3.461451537 0.333402566
C -1.416109849 -0.551600719 -1.277798261
C -3.014909273 0.210049276 1.004271384
O -1.871986774 2.099733921 2.500541204
H 2.908443388 2.312359347 0.276416684
H 5.172202437 -0.143516819 -0.046302977
H 3.656782586 1.092741483 -2.757669907
H -1.294197834 1.028057839 -2.601316840
H -2.353456657 -2.109058510 -2.254138945
H -4.805915348 0.991031755 0.341905011
H -3.437156708 -1.467478236 2.141596740
H -0.594734304 1.315880627 3.521537136

