16

C 3.818368060 0.823371247 -0.235549146
O 1.556830931 0.264432816 -1.596456919
C -0.552523529 -0.145168969 -0.387109830
C -2.603515593 -0.912526522 -2.173912777
C -0.520155752 -1.358806455 2.168951301
C -0.942866737 3.709000916 1.175603724
N -2.994591618 3.394341580 0.407723472
H 3.448456023 2.450666418 0.980790271
H 4.428936983 -0.810305170 0.862023856
H 5.221413797 1.272229673 -1.663903909
H -2.136022388 -2.824100640 -2.817681958
H -2.651259939 0.342704365 -3.797257400
H -4.431822274 -0.916917641 -1.248379081
H -2.398760687 -1.284959775 2.990762069
H 0.804545417 -0.472718845 3.458608047
H 0.012333052 -3.341633546 1.880571214

