14

C -2.677072370 0.573429512 0.108751943
C -2.996034650 -0.811907431 -2.420644812
C -0.392843032 -1.020863501 -1.758591604
C 1.914795288 -1.345671328 -1.325652835
C 3.457932659 -0.622085349 0.665206764
O 5.268236335 1.186926302 0.392176941
H -2.960483006 2.597303175 -0.025115386
H -3.694547913 -0.301658965 1.656265410
H -0.259695650 0.793321238 1.784386460
H -4.106555167 -2.538308514 -2.389025366
H -3.438248667 0.378643781 -4.033376978
H 4.056894091 -2.032649872 2.031671787
H 1.380624817 0.583138472 2.265171847
H 4.790192317 2.266690695 -0.988971764

