12

N -5.171328892 -1.867807191 -2.107267995
C -3.764954025 -0.420991013 -1.316229886
C -1.894340779 1.363355139 -0.360874724
C -0.214387690 0.243295322 1.708667780
C 2.424400604 -1.043381761 -0.075516687
N 2.255297026 1.280037719 1.418070742
H -0.868950817 2.213753665 -1.947451116
H -2.884402084 2.900891721 0.605623246
H 0.574845220 -2.180756042 0.550147576
H 2.418333015 -0.735306835 -2.100341090
H 3.831064014 -2.366896635 0.614555150
H 3.233246396 1.026847129 3.044161534

