11

C -1.933633533 -1.279404264 1.726515241
C 0.263903371 0.215153880 1.182501678
C 1.501142913 -0.198100235 -1.281705591
O 0.728224784 -1.919869373 -2.769552373
C 1.195711733 2.575830784 -2.149222201
N 0.915150445 4.589704224 -2.911696154
H -2.997564780 -0.777382929 3.404660713
H -3.049393297 -1.353158253 -0.033224295
H -1.257455265 -3.252011452 1.799642049
H 1.071349008 1.575582494 2.494289026
H 3.575293798 -0.211138552 -0.747294464

