11

N -3.834065636 -0.411111619 0.179056482
C -1.292032680 0.181266857 0.119185159
C -0.079577199 2.411801479 0.361478076
O 2.503105373 1.889483975 0.289957384
C 2.600011700 -0.580961715 0.007983450
O 4.891360203 -1.577366698 -0.122854629
N 0.466747707 -1.749501190 -0.114619297
H -4.220024075 -2.070138467 -0.668985063
H -5.004619408 0.980065051 -0.373445541
H -0.621357899 4.350490918 0.610237825
H 4.683322484 -3.375245330 -0.301223799

