11

N -3.558999634 -0.665615360 0.164431722
C -1.076127823 0.107691183 0.100607715
C -0.014567993 2.422662491 0.334281629
O 2.645426789 2.150716804 0.300281903
C 2.988556361 -0.283590274 0.028009294
O 4.921916961 -1.680519383 -0.117610393
N 0.884996841 -1.612863654 -0.110071520
H -3.905682628 -2.225354202 -0.868441045
H -4.834312452 0.708905981 -0.146830983
H -0.738208396 4.304217308 0.557035533
H 2.779872583 -3.177469504 -0.254920048

