14

C 3.217052823 0.259416840 0.091052447
C 0.475035404 1.096890641 -0.085868909
H 0.395944772 3.168092872 0.112354101
C -0.955759034 0.283889058 -2.477541990
H -0.769294825 1.627631958 -4.025499485
H -0.262163841 -1.547077129 -3.132247130
C -3.641738477 0.080432243 -1.526694939
H -4.720852407 -1.518181874 -2.237933070
H -4.739491966 1.809422345 -1.764201577
O -3.350070059 -0.302038630 1.218818359
C -1.137590013 0.223100103 2.107810724
H 4.331460884 1.031137998 -1.463695042
H 4.048058317 0.885941836 1.868291301
H 3.356691413 -1.798512805 0.017332114

