14

C -3.720133595 -0.268810026 -0.168764221
C -0.986889702 -0.273477329 0.546165432
N -0.023292972 -2.038544079 2.512327728
C -0.032675765 0.483587926 3.218357244
C 3.419740047 0.792468045 -1.987003613
C 0.898185070 0.379205256 -1.106995252
O 1.109647256 1.507764835 -3.350954167
H -4.273533050 1.584281924 -0.880581647
H -4.830808862 -0.688585170 1.508796739
H -4.111017075 -1.683355673 -1.617984736
H 1.680007418 -2.847072340 2.062980581
H 1.824262950 1.392135951 3.425391972
H 4.467817928 -0.730232410 -2.873606116
H 4.509815541 2.390540511 -1.310634672

