13

O 1.213047722 3.664506426 -0.554808983
C 0.450680481 1.443687567 -0.286165498
C 2.556309289 -0.656423959 -0.003509221
O 2.369908235 -1.469724062 -2.663457894
C 0.456573819 -0.168404493 -3.303538935
C -2.587193310 -0.793445355 2.644354559
C -2.045614773 1.007778054 0.994100160
H 2.251707831 -2.292410434 1.205130619
H 4.405507176 0.191846659 0.271662946
H 0.074593122 -0.221568196 -5.349775107
H -1.229248098 -2.220687864 3.207477108
H -4.428276070 -0.900498737 3.531966932
H -3.435383559 2.437240651 0.510619702

