15

C -3.732187270 -1.124451200 -0.678349790
C -1.307837650 0.239868190 -0.330437661
N -0.819493869 2.374978805 1.012749678
C 1.805506530 2.195178035 0.850605300
C 1.350957137 -0.526301368 0.270301965
N 2.381588179 -2.664391230 0.338455731
O 4.861551474 -2.539420089 1.139116363
H -5.243655098 0.181968399 -1.188041486
H -4.296096776 -2.142785907 1.031397684
H -3.540994002 -2.499116539 -2.198260273
H 0.252908397 1.600373982 -2.991031185
H -1.898816406 3.937813207 1.169299371
H 3.107270355 3.110526296 2.124372832
H 1.573381247 2.394922200 -2.345717473
H 5.390584007 -4.273892457 1.107918610

