13

C -3.335225334 -0.461881606 0.913662191
C 0.491647854 -0.342128849 -1.860037544
C -1.026786016 1.057975416 0.077744315
O 5.279232519 1.858786905 0.465221073
C 4.435309744 -0.226205867 0.155329951
N 2.802219785 -0.917255959 -1.771772689
H -4.523803238 -0.967598527 -0.695974189
H -4.486938611 0.633098012 2.224396111
H -2.774998431 -2.206351551 1.860421518
H -0.546080867 -0.960309703 -3.537071876
H 0.157401676 1.570907973 1.684722928
H -1.647455204 2.828585716 -0.795018760
H 5.046194290 -1.862158762 1.301042384

