13

C -2.871100888 -0.821506031 0.477202523
C -0.128298118 -0.242679290 -1.164077226
C -0.360218366 1.952640493 0.284648879
O 4.150545327 1.642117276 0.227235050
C 3.892134123 -0.677137134 -0.071213271
N 1.785452719 -1.942284095 -0.663225405
H -3.017712039 -2.723501145 -0.295374662
H -4.522917504 0.266098969 -0.074824197
H -2.655352689 -0.990188276 2.511704175
H -0.819521818 -0.126367271 -3.107052810
H 0.353231084 1.986432765 2.191299221
H -1.369070616 3.597786962 -0.407196258
H 5.562953505 -1.898116679 0.107960866

