11

N 2.404030736 0.856517516 -0.024832003
C 0.080983835 -0.337904895 -1.176859504
C -1.709344868 -1.504353804 0.713245227
O -1.909359888 -0.082648570 2.935461917
C 0.731170659 2.345711237 -1.309067503
O 0.420688279 4.430361496 -2.078686586
H -0.223611481 0.331475650 3.480173148
H 4.172595672 0.525680517 -0.668317896
H 0.325603836 -1.396474952 -2.923929996
H -3.591050995 -1.607609516 -0.126908526
H -1.085957026 -3.445834783 1.111370327

