17

C -3.673201906 -1.384965348 -1.952785624
O -1.286578193 -2.458032211 -2.449000152
C 0.739819803 -1.229599398 -1.434557015
C 3.162880875 -2.534218958 -2.077436060
C 0.287727678 2.902317462 4.142160726
C 0.585420826 0.832480993 -0.073223750
C 0.521612674 2.868220510 1.312792380
H -3.797584001 0.531525025 -2.720498106
H -5.062075567 -2.593983795 -2.867933952
H -4.042061895 -1.306740059 0.081530703
H 3.131975463 -4.469816162 -1.362898903
H 4.763967284 -1.538998701 -1.257706277
H 3.395894349 -2.621496583 -4.125969099
H 0.187455503 0.990903858 4.900676137
H 1.904391439 3.863484288 4.995838493
H -1.406645949 3.931026974 4.723594740
H 0.638050662 4.702518058 0.385122877

