18

C -4.096555965 0.260072027 1.247506783
C -2.588357514 -2.163707934 1.607863420
C 0.229180107 -1.707032278 1.233692658
C 1.095261319 -1.272318679 -1.354926488
C 3.493057150 0.149671317 -1.452419859
C 2.602803809 2.894247406 -1.925375524
H -3.814580028 1.005335697 -0.658290215
H -3.505960974 1.714054179 2.592602576
H -6.116577383 -0.056597392 1.514813910
H -2.928156841 -2.932766355 3.496384334
H -3.206826135 -3.582128559 0.241723183
H 1.284521888 -3.506118729 1.498897125
H 1.011288315 -0.410598483 2.670093573
H 1.514940937 3.026757723 -3.668926326
H 4.622754456 0.108303757 0.294203372
H 4.665001098 -0.426952418 -3.048993733
H 4.251282167 4.119187703 -2.075881080
H 1.430430250 3.586028217 -0.375564302

