13

C 3.358592213 0.097549288 0.152038766
C 0.733067906 0.356496399 -0.062689019
C -0.948738607 2.400661922 0.287361392
C -3.339443826 1.339059800 0.461679424
C -3.038982815 -1.269790849 -0.011295403
N -0.614532624 -1.813407570 -0.332325743
H 4.193116643 -1.120865521 1.567227770
H 3.344665310 -2.621991351 -1.462571468
H 4.583098346 1.631170621 -0.465072560
H -0.431153299 4.345269888 0.624399942
H -5.111935481 2.321210163 0.702524697
H -4.500242869 -2.651594988 -0.373076875
H 1.748189077 -3.174226300 -1.177248618

