17

C -3.633420280 -0.707276319 1.282841184
C -2.235553867 0.254671417 -1.059465333
C -0.303899992 2.164363348 -0.269975874
C 1.782692188 0.567038307 -0.694767561
C 4.214813080 0.096853793 0.969407165
O 3.286550487 -1.493271902 2.614476779
C 0.041840785 -1.465584296 -1.799369701
H -2.278242874 -1.166367140 2.773489693
H -4.971031095 0.693528996 1.988243443
H -4.672231001 -2.423094388 0.805525618
H -3.547876460 0.797369163 -2.553201427
H 1.883770634 2.214316444 -2.203173882
H -0.390945898 4.089252778 0.436473501
H 5.738617286 -0.593335094 -0.298982282
H 4.793629389 1.998101219 1.663604104
H 0.148302343 -3.226137624 -0.749343154
H 0.278633598 -1.803837751 -3.816222087

