10

C 4.007668936 1.186202518 -0.862158556
C 1.685600082 0.679368787 -0.334056090
C -0.704074896 0.275806397 0.226077234
C -2.603938835 2.136688952 0.999732337
N -4.707705696 0.637245034 1.320793310
N -4.257105075 -1.753435732 0.844925803
N -1.922040781 -2.066668967 0.192250361
H 5.439781439 1.160662832 0.602197909
H 4.559660394 1.665981134 -2.775778963
H -1.276392362 -3.802099029 -0.240617127

