14

O -0.600499064 -2.484089210 1.249662394
C -1.437810084 -1.238714152 -1.006579080
C -2.419456079 1.437162475 -0.480231395
N 0.130277625 2.446786111 -1.036791303
C 1.183926362 -0.070232522 -1.445548796
C 1.941260317 -1.592708553 0.926324018
O 2.883346407 -0.353873478 3.012656813
H 1.646695288 0.857778492 3.566219408
H -2.449410166 -2.486559895 -2.287884181
H -3.109618642 1.661611294 1.454369168
H -3.840006255 2.147688669 -1.799122563
H 0.981655860 3.555766407 0.264206219
H 2.365035142 -0.286216596 -3.116275353
H 3.243425727 -3.151105179 0.548426943

