14

O -0.453789024 -2.370310728 1.550699091
C -1.375826292 -1.155655133 -0.748961183
C -2.257224943 1.574933128 -0.384531355
N 0.227865387 2.496837492 -1.296174109
C 1.181351081 -0.087995834 -1.543261053
C 2.378993566 -1.227113709 0.890109590
O 2.542131392 0.149542003 2.923985648
H 0.267436800 -0.814788716 3.026327451
H -2.491011750 -2.476724891 -1.853559526
H -2.737144136 2.047190294 1.568437912
H -3.808977765 2.146502847 -1.617422089
H 1.198803552 3.508310150 0.008678832
H 2.148021375 -0.543687151 -3.302332685
H 3.698187468 -2.803745909 0.627435787

