15

C -3.215251233 0.668807656 0.021515439
C -0.951955488 -0.935798178 -0.574446185
C 1.096168161 0.952712115 -1.008926233
C -0.431930259 3.251918270 -0.640391239
N -0.951870053 5.464774730 -0.813932141
N 1.025901492 -0.581640297 1.285986993
C 2.955182834 -2.538009163 1.325085521
H -2.728573114 3.849432663 -0.253755183
H -4.644517298 0.622681917 -1.467590259
H -4.036151607 0.330783557 1.878089512
H -1.014202235 -2.697241700 -1.622330861
H 2.690473344 0.888098089 -2.290749857
H 3.330371138 -3.376296264 -0.538506712
H 2.342705798 -4.033866909 2.602571996
H 4.709519663 -1.740022607 2.053875843

