15

N 3.885031739 1.013533366 -1.988067037
C 3.111078437 -0.619188834 -0.333505764
O 5.028177055 -1.324439593 0.973864897
C 0.508843398 -1.628213351 0.090402570
N -1.366970280 -0.096595505 -1.176503914
C -2.401958047 1.974311494 0.297792945
C -3.925929286 -0.311054778 -0.226465081
H 2.754265074 1.805707673 -3.301855114
H 5.892167323 0.295122478 -0.682841896
H 0.458041021 -3.545402733 -0.680107292
H 0.212263827 -1.786986572 2.141022661
H -1.697065976 2.222958710 2.209555997
H -2.750402077 3.709108290 -0.729934589
H -4.258282091 -1.599384786 1.336697888
H -5.404403687 -0.266041559 -1.640612903

