12

O 3.466207184 2.559407892 1.712995895
C 2.933570792 0.548612136 0.031448066
C 0.513525308 -0.804036722 0.682233215
C -1.394629917 -1.045822210 -0.854236087
C -3.282765630 -1.281362152 -2.421478105
O -5.262319016 0.349040862 -2.673377350
H 3.863859909 1.874470951 3.342566580
H 4.500084624 -0.811559325 -0.001327589
H 2.783423170 1.380947355 -1.845295224
H -3.434769473 -2.872053744 -3.700354758
H 0.404719980 -1.622286017 2.570091648
H -5.034693265 1.733808053 -1.520996092

