12

O 2.482472398 2.486182347 1.426327220
C 2.896889999 0.228388709 0.078124264
C 0.616639347 -0.680803789 -1.335608668
C -0.684306944 -0.554071555 -3.438784215
C -2.530875825 -1.160071895 -1.369638063
O -4.228015972 0.632264737 -0.671533302
H 1.530273835 2.125001373 2.925388089
H 3.658271709 -1.251423354 1.306449665
H 4.295548548 0.641446141 -1.379628081
H -3.266473998 -3.066960872 -1.175951793
H -0.871508373 -1.533466811 0.496914823
H -3.869642868 2.128429733 -1.651257087

