12

N 3.475847943 -3.223674706 -0.542998383
C 1.762406583 -1.570964968 -0.405894690
O 2.372615249 0.976813871 -0.442209274
C 0.580196848 2.780152357 -0.293537244
H 1.397696130 4.652518323 -0.347517724
C -1.883139616 2.276718810 -0.105112085
H -3.230609888 3.804396804 0.009914524
C -2.652727897 -0.335412403 -0.060236060
H -4.639745513 -0.803241941 0.092551472
C -0.911800962 -2.166750753 -0.205309295
H -1.380307834 -4.154325800 -0.178594482
H 5.213871560 -2.416602026 -0.669368772

