12

O 5.404766666 -1.516733154 -0.767952798
C 3.299093733 -0.673907101 -0.787056191
C 2.190826619 0.527288674 1.531949569
C -1.885348291 1.299346959 -0.146360441
N -0.004435206 1.417066579 1.831721794
C -3.083032614 -1.312129804 -0.338911193
O -5.151567705 -1.665983213 -1.166667625
H 2.127304609 -0.761924005 -2.514336431
H 3.507684461 0.620033806 3.115324349
H -1.151748710 1.743069412 -2.033815606
H -3.383057949 2.652001619 0.258722007
H -1.869393333 -2.901540709 0.305690866

