15

O -3.097097884 3.024993021 -0.183473509
C -3.140857761 0.705664780 -1.489961347
C -2.144480973 -1.321538221 0.237027554
C 1.323006935 -0.998494718 2.966687317
O 0.512536263 -0.929539349 0.652258039
C 4.091175442 -0.479918002 2.949645389
O 5.354033604 -0.137314719 0.637496992
H -3.476653911 4.368682669 -1.334598931
H -1.981665345 0.775710313 -3.207421644
H -5.069462979 0.174903677 -2.041535629
H -2.351780300 -3.173831687 -0.646230701
H -3.078025766 -1.295708802 2.073107850
H 4.297423610 1.189601984 4.176509238
H 4.966989518 -2.041405313 3.995295709
H 4.088651486 0.067509181 -0.648358022

