12

N -3.399119979 0.254984034 0.156482154
C -0.828336332 -0.079796917 -0.164724025
C 0.973676416 1.871677161 0.218581333
N 3.072550171 1.687040639 -1.727568934
C 3.545698872 -0.125941648 -0.170131627
N 2.875328885 -2.578958621 -0.243076227
C 0.368324365 -2.478055598 -0.284362170
H -4.113221214 1.857494653 -0.572118307
H -4.480682484 -1.257193084 -0.242943455
H 0.568391295 3.730513955 0.992616271
H 2.644795696 0.722463462 1.949080551
H -0.691696699 -4.233115682 -0.184793275

