12

C -2.217958646 0.403044700 1.856183429
N -0.352523306 0.389166475 -0.132980594
C -0.597560124 1.018486244 -2.567278772
C 1.629216210 -1.262105957 -0.507164130
C 3.921700004 -0.955985896 0.854538254
N 5.790896125 -0.681177217 1.939595940
H -1.259482185 0.040590278 3.642549679
H -3.647631682 -1.061636628 1.555888695
H -3.131365327 2.246537371 1.935612605
H 0.916720864 2.034069094 -3.480705144
H -2.382989260 0.758251757 -3.570159431
H 1.360971061 -2.956495740 -1.609661230

