10

C -2.015953027 1.497597012 0.137669931
O -0.817698289 0.716810573 -1.852213379
C 1.197081577 -0.784427034 -1.630590154
C 2.978159712 -0.261548527 0.307937883
N 4.354796564 0.176817592 1.937669629
H -3.784034098 2.435170002 -0.271629895
H -0.971093387 1.915789001 1.850245192
H -2.052286394 -1.737137335 1.148113500
H 1.856800330 -1.508607898 -3.418992698
H -0.867503476 -2.542597002 0.506250920

