12

O 4.947489964 0.711096306 -2.540146802
C 2.783497625 0.412212007 -1.889480555
C -1.377651333 -2.835015811 1.196068343
C -2.298299048 -0.542928785 0.753247857
C -0.825899020 1.802637246 0.802387256
C 1.435493412 2.208975473 -0.246777615
H 0.594998544 -3.130479763 1.663392644
H -2.584791071 -4.487058345 1.161587512
H 1.679635161 -1.224972082 -2.571564141
H -4.314814022 -0.322047315 0.430571679
H -1.705483497 3.365333981 1.805795885
H 2.376991458 4.011431324 0.011537628

