16

C 5.109635155 2.571960455 3.415556439
C 3.422033910 1.226180317 1.701094456
C 2.037593528 0.096452358 0.308835748
C 0.309948740 -1.260423571 -1.367755952
C -1.994192112 -2.176000168 0.083630264
C -4.020059833 -0.266202091 0.143597473
N -4.233657655 -2.272063678 -1.792560376
H 4.310501667 2.644310301 5.315370488
H 5.423797569 4.508874496 2.780293009
H 6.941810898 1.632277151 3.530094402
H 1.307455661 -2.866326551 -2.202218399
H -0.175838298 0.031021347 -2.950495406
H -4.056258066 -1.667482484 -3.602314028
H -3.805538917 1.593446472 -0.733946553
H -5.457682909 -0.322019744 1.605199983
H -5.497934869 -3.673083496 -1.555444250

