12

C 3.269753826 -0.362690373 -0.860145185
N 1.525758146 1.058113744 0.732875362
C -1.015597514 0.588158038 0.367217250
N -2.425081567 -1.766889788 0.554611846
C -3.070288018 1.731445178 -0.537683604
O -4.616360511 -0.360092869 -0.275798536
H 3.182283015 -2.411221541 -0.567809316
H 5.192263637 0.279822235 -0.489625885
H 2.832737709 0.021765714 -2.836428306
H 2.033202957 1.022983282 2.571044504
H -2.810957481 -2.294526550 2.367123327
H -3.699868285 3.462286531 -1.405637818

