16

C 3.995352117 -1.018372086 0.690364593
C 1.356772259 -0.141721938 0.222693169
C -0.730429395 -1.978334419 -0.420974553
C -3.143758604 -0.370597025 -0.227940749
C -2.248129654 2.391353830 -0.459924171
C 0.512172509 2.221938862 0.200678956
H 4.067403652 -2.319205976 2.294751597
H 5.264310939 0.557659899 1.078892946
H 4.726354401 -2.047270626 -0.947102161
H -2.488294323 3.118499467 -2.384697062
H -0.444167899 -2.725160835 -2.333360176
H -0.760342569 -3.614357592 0.841576906
H -4.003212338 -0.650760488 1.627429871
H -4.559911198 -0.873863274 -1.637755486
H -3.301439469 3.662108042 0.780697659
H 1.682802021 3.870249432 0.534706133

