15

O 3.269759646 -2.783810488 1.052887896
C 3.384063227 -1.221286323 -0.585092807
C 1.142148485 -0.137647311 -1.995617854
H 1.477106939 -0.539373170 -4.001257228
C -1.433799461 -1.101440742 -1.067730957
H -1.254796212 -2.908561779 -0.099562318
H -2.682459752 -1.365344624 -2.686120227
C -2.482773507 0.998177698 0.657116204
H -4.504937195 1.301947903 0.378743974
H -2.217625733 0.557626829 2.660676671
C -0.936156111 3.272506382 -0.058673596
H -1.365666236 5.165245108 0.592635347
C 1.015612670 2.681891870 -1.512019591
H 2.415908194 3.999363855 -2.213610102
H 5.240437783 -0.428549369 -1.163934439

