11

O 4.699276497 -2.500465558 -0.033375133
C 3.012783161 -1.117084557 -0.032189179
C 2.068879172 1.267318634 -0.061752187
C -0.418810401 2.291841665 -0.004334654
N -2.555435348 1.151450719 0.109059780
C -2.266116615 -2.742398161 0.109556551
N -0.159134442 -3.358554400 0.036319194
H 3.595969140 2.628462415 -0.145216684
H -0.401331568 4.354849911 -0.066840445
H -4.043514792 2.354436348 0.119746389
H -4.265122805 -3.048316550 0.182425619

