8

C -2.521747295 -1.512815147 0.702920349
O -0.750515407 -3.158421424 1.378240209
H 0.677850770 -2.252929350 2.045204078
C -3.379521232 0.749032369 0.457347510
H -3.239844564 2.765223974 0.629352423
C -5.071751192 -1.436167723 -0.392622312
H -6.695632950 -1.970880678 0.759811972
H -5.331864131 -1.796993824 -2.405850637

