15

C 2.470482445 0.333423107 -2.060976885
C 1.531035414 0.572120575 0.662464223
O 2.894390439 -0.044306745 2.530089207
C -1.129964760 -1.238517053 0.955254553
O -0.553045944 -3.351334644 2.185872948
C -3.057293959 -0.263118795 -0.803769420
C -1.943946732 1.200544897 1.364200376
H 2.934567642 -1.639740303 -2.424698671
H 1.127959534 1.007605050 -3.465741650
H 4.190608258 1.454988261 -2.201248553
H 1.091519132 -2.857615273 2.970889803
H -5.002433694 -0.851453824 -0.484309934
H -2.638328505 0.217764102 -2.755369959
H 0.686330689 2.657107205 0.678825283
H -2.431821578 2.590135803 2.771400865

