14

C 3.559253197 0.120640135 -0.187496528
C 1.739718436 0.204497922 2.000384424
C -2.491928021 2.071215743 -0.267925502
C -3.276779733 -0.526554969 -0.581415760
O -0.818592413 -0.559861657 -1.798527469
C 1.221318921 -1.433400635 -0.104645474
H 3.598752858 1.701964675 -1.497867791
H 5.351079415 -0.882472507 -0.077166494
H 2.279007004 -0.592746444 3.811501891
H -2.661888930 3.309771611 -1.883170513
H -1.613610927 2.695641990 1.470688729
H -4.757555670 -0.979410997 -1.926475723
H -3.316676047 -1.675403875 1.120211713
H 1.186535639 -3.483959762 -0.097905501

