15

C -1.429386195 -2.482305120 1.365822271
C -0.534086529 -0.173224315 -0.119215924
C -2.318111466 2.066310789 0.225806115
C 2.102587181 0.550093171 0.785828871
O 2.497927505 1.292931642 2.918094200
N 3.989423083 0.285227457 -0.935280223
H -1.470412263 -2.049763288 3.381108791
H -0.177069983 -4.097334872 1.082185831
H -3.328287488 -3.028647374 0.773327236
H -0.449091240 -0.662516229 -2.128483156
H -1.714891593 3.693805723 -0.889370763
H -4.231270610 1.559451679 -0.355949512
H -2.360943280 2.631595336 2.207451598
H 3.662790309 -0.308927854 -2.702100715
H 5.760822589 0.723303257 -0.411948617

