15

C -1.626861517 -1.878922409 2.314573577
C -0.644096180 -0.477069656 -0.005591114
C -2.119564631 1.899916870 -0.578993263
C 2.061799540 -0.360711376 -0.172689239
O 2.947229374 -2.528229017 -0.865193040
N 3.592078496 1.613375373 0.080912914
H -1.724167446 -0.648300291 3.987287484
H -0.460787455 -3.508217345 2.802140076
H -3.539222535 -2.572884398 1.964923732
H 0.709960297 -2.748469038 -1.286503077
H -1.390044573 2.887158004 -2.239021023
H -4.090912128 1.432640738 -0.972183494
H -2.146756014 3.243257447 1.012040256
H 2.936647947 3.242057376 0.794863235
H 5.404500215 1.503124159 -0.473025774

