14

C 5.143982477 -0.335125373 -0.513453933
O 2.847464779 0.547484593 -0.724692224
C 0.714188881 -0.454508518 -0.158274503
C -1.591246737 0.980639338 -0.687996048
H -1.243093044 2.946391772 -1.143415849
C -3.980982753 0.398904121 0.739283688
H -5.168025557 1.965518599 1.302224975
H -3.912646836 -1.136561094 2.090894651
C -3.808443993 -0.250457516 -2.006047347
H -3.615815894 -2.222841641 -2.514160517
H -4.870475555 0.875586005 -3.342662162
H 0.705700552 -2.356420409 0.615300892
H 5.430222354 -2.194651765 0.281356787
H 6.610246526 0.956928170 -1.063673054

