12

O 4.730765532 -1.246563677 -0.116951578
C 3.265912788 0.043635609 1.033647687
C 0.863249041 1.087305005 -0.095184031
C -0.812407226 -0.763689104 -1.562446611
C -2.759948992 -0.190104540 0.506082961
O -1.039645772 1.490658448 1.784128380
H 3.583289852 0.567611367 3.039202288
H 1.343184032 2.837735222 -1.100707377
H -0.090862152 -2.688176117 -1.615814461
H -1.326471162 -0.169080354 -3.459841660
H -3.302592277 -1.775614748 1.711331311
H -4.454473665 0.806282869 -0.123446907

