12

O 4.564132903 -0.906425806 -0.640278990
C 3.301244846 0.823715876 0.577038001
C 0.574981261 0.362275805 0.468533650
C -0.983056393 -1.041076257 -1.382130022
C -3.142356031 -0.328824931 0.422383420
O -1.236455816 0.884219710 2.061336255
H 3.787689792 1.243703615 2.592433691
H 3.270327679 2.832915778 -0.260634693
H -0.472884139 -3.032673000 -1.468455772
H -0.984685525 -0.253730144 -3.282329216
H -4.067059173 -1.853086036 1.442843710
H -4.492960847 1.077998293 -0.224723472

