12

N 3.158027492 0.433965457 -0.991783866
C 1.770706902 1.207531989 1.002435969
O 2.598452657 2.113081850 2.939153459
C -1.038412990 0.756075152 0.627357194
C -1.988524559 -0.098561085 -1.866473971
N -1.769939182 -1.928432931 0.382521291
H 5.022513735 0.782805989 -1.009798625
H 2.171193423 0.083457865 -2.600056940
H -2.148122173 1.742721211 2.048834299
H -0.372773819 -3.225513523 0.298370313
H -4.000700911 0.314836007 -2.058258836
H -3.268285943 -2.473494140 1.432882415

