17

C 4.242580035 0.083841328 -0.064969578
C 1.463469957 -0.377704625 -0.311184017
C 0.047361885 -2.237444368 0.858741137
C -2.583668858 -1.746595131 0.608532366
C -2.747216547 -0.051874532 -1.734889770
C -0.319477666 1.303301325 -1.361640931
O -1.918212177 2.869833921 1.784132934
H 4.635633034 1.765304931 1.072794630
H 5.139481640 0.361313386 -1.902182708
H 5.169873690 -1.514863232 0.847250979
H 0.838339427 -3.728492118 2.022599571
H -2.538836976 0.430068161 1.907537492
H -3.978532893 -3.198971696 0.981190307
H -2.641216139 -1.197533561 -3.458699434
H -4.382849605 1.188208783 -1.822549536
H 0.148524669 3.050441717 -2.315374519
H -0.469321080 3.125893285 2.842983483

