12

C -4.390101221 0.726574788 -0.237771256
N -1.900167164 -0.271771567 0.266432997
C 5.154194708 -2.044663938 -0.912343540
C 3.546620416 -0.795185849 0.468425444
N 2.158180958 0.402263600 1.855346847
C -0.282235264 1.205414475 1.166748184
H -4.838403388 0.425984765 -2.228418185
H -5.777339400 -0.329429984 0.864640239
H -4.586013664 2.745574186 0.197640918
H 5.055425129 -4.082705690 -0.988662964
H 6.565502233 -1.049541928 -2.001481523
H -0.634373426 3.192639923 1.618610595

