19

C    -2.86448  -1.05828   0.15155
C    -2.03951  -0.32566  -0.88646
C    -0.98121   1.22252   1.27578
N     0.08879   0.69946   0.95413
C     1.14715   0.06975   0.54735
C     1.46459  -1.31832   1.04989
C     1.88259   0.66627  -0.50493
N     2.54326   1.13769  -1.34924
C    -0.91740  -0.73468  -1.39688
H    -2.29031  -1.84140   0.66904
H    -3.35577  -0.43378   0.92697
H    -3.65498  -1.53359  -0.43148
H    -2.37228   0.73032  -1.08751
H    -1.52491   1.78956   1.82816
H     1.88353  -1.94883   0.24556
H     0.57197  -1.81631   1.45317
H     2.20999  -1.20518   1.83207
H    -0.29337  -0.12838  -2.06866
H    -0.45456  -1.69889  -1.07875
19

C    -2.86332  -1.05649   0.15259
C    -2.02919  -0.31212  -0.86625
C    -0.98907   1.20623   1.25416
N     0.09081   0.70402   0.96125
C     1.13497   0.06272   0.53440
C     1.46326  -1.31755   1.04759
C     1.88044   0.66443  -0.50737
N     2.54379   1.13806  -1.34784
C    -0.90596  -0.72950  -1.38449
H    -2.29061  -1.84101   0.66983
H    -3.35873  -0.43544   0.92667
H    -3.65169  -1.53286  -0.43488
H    -2.37181   0.73070  -1.08727
H    -1.53241   1.78377   1.81912
H     1.88433  -1.94927   0.24614
H     0.57259  -1.81687   1.45362
H     2.20939  -1.20174   1.83107
H    -0.29336  -0.12913  -2.06870
H    -0.45591  -1.69962  -1.07922
19

C    -2.86216  -1.05471   0.15363
C    -2.01887  -0.29858  -0.84605
C    -0.99692   1.18994   1.23254
N     0.09283   0.70859   0.96838
C     1.12280   0.05569   0.52144
C     1.46193  -1.31678   1.04530
C     1.87830   0.66259  -0.50980
N     2.54433   1.13843  -1.34645
C    -0.89452  -0.72433  -1.37210
H    -2.29090  -1.84062   0.67062
H    -3.36169  -0.43710   0.92638
H    -3.64841  -1.53212  -0.43828
H    -2.37133   0.73108  -1.08702
H    -1.53991   1.77797   1.81007
H     1.88514  -1.94972   0.24672
H     0.57321  -1.81743   1.45407
H     2.20879  -1.19831   1.83007
H    -0.29335  -0.12988  -2.06873
H    -0.45726  -1.70036  -1.07969
19

C    -2.86101  -1.05292   0.15466
C    -2.00855  -0.28503  -0.82584
C    -1.00478   1.17366   1.21093
N     0.09486   0.71316   0.97550
C     1.11062   0.04866   0.50849
C     1.46060  -1.31601   1.04300
C     1.87615   0.66075  -0.51224
N     2.54487   1.13880  -1.34505
C    -0.88308  -0.71915  -1.35971
H    -2.29120  -1.84023   0.67141
H    -3.36465  -0.43876   0.92608
H    -3.64513  -1.53139  -0.44167
H    -2.37085   0.73145  -1.08678
H    -1.54740   1.77218   1.80103
H     1.88594  -1.95017   0.24730
H     0.57382  -1.81799   1.45452
H     2.20819  -1.19488   1.82907
H    -0.29334  -0.13062  -2.06877
H    -0.45862  -1.70109  -1.08016
19

C    -2.85985  -1.05114   0.15570
C    -1.99824  -0.27149  -0.80564
C    -1.01263   1.15737   1.18931
N     0.09688   0.71773   0.98262
C     1.09844   0.04164   0.49554
C     1.45927  -1.31524   1.04071
C     1.87400   0.65890  -0.51468
N     2.54541   1.13917  -1.34366
C    -0.87164  -0.71397  -1.34732
H    -2.29150  -1.83984   0.67220
H    -3.36761  -0.44042   0.92578
H    -3.64184  -1.53065  -0.44507
H    -2.37037   0.73183  -1.08653
H    -1.55490   1.76638   1.79198
H     1.88675  -1.95062   0.24788
H     0.57444  -1.81856   1.45497
H     2.20759  -1.19144   1.82807
H    -0.29333  -0.13137  -2.06881
H    -0.45997  -1.70183  -1.08062
19

C    -2.85869  -1.04936   0.15674
C    -1.98792  -0.25795  -0.78543
C    -1.02049   1.14108   1.16769
N     0.09890   0.72230   0.98974
C     1.08627   0.03461   0.48259
C     1.45793  -1.31447   1.03841
C     1.87186   0.65706  -0.51711
N     2.54595   1.13954  -1.34226
C    -0.86019  -0.70879  -1.33493
H    -2.29179  -1.83945   0.67299
H    -3.37057  -0.44208   0.92549
H    -3.63856  -1.52992  -0.44847
H    -2.36990   0.73221  -1.08629
H    -1.56240   1.76059   1.78294
H     1.88756  -1.95106   0.24846
H     0.57506  -1.81912   1.45543
H     2.20698  -1.18801   1.82706
H    -0.29332  -0.13212  -2.06884
H    -0.46132  -1.70256  -1.08109
19

C    -2.85753  -1.04757   0.15777
C    -1.97760  -0.24440  -0.76523
C    -1.02834   1.12479   1.14608
N     0.10092   0.72687   0.99687
C     1.07409   0.02758   0.46964
C     1.45660  -1.31370   1.03612
C     1.86971   0.65522  -0.51955
N     2.54649   1.13991  -1.34087
C    -0.84875  -0.70361  -1.32254
H    -2.29209  -1.83905   0.67378
H    -3.37353  -0.44374   0.92519
H    -3.63527  -1.52918  -0.45187
H    -2.36942   0.73258  -1.08604
H    -1.56989   1.75479   1.77389
H     1.88836  -1.95151   0.24904
H     0.57568  -1.81968   1.45588
H     2.20638  -1.18458   1.82606
H    -0.29331  -0.13287  -2.06888
H    -0.46267  -1.70330  -1.08156
19

C    -2.85637  -1.04579   0.15881
C    -1.96728  -0.23086  -0.74502
C    -1.03619   1.10851   1.12446
N     0.10295   0.73143   1.00399
C     1.06192   0.02055   0.45668
C     1.45527  -1.31293   1.03382
C     1.86756   0.65338  -0.52199
N     2.54702   1.14029  -1.33947
C    -0.83731  -0.69844  -1.31015
H    -2.29239  -1.83866   0.67457
H    -3.37649  -0.44540   0.92489
H    -3.63199  -1.52844  -0.45527
H    -2.36894   0.73296  -1.08580
H    -1.57739   1.74899   1.76485
H     1.88917  -1.95196   0.24962
H     0.57629  -1.82024   1.45633
H     2.20578  -1.18114   1.82506
H    -0.29330  -0.13362  -2.06891
H    -0.46403  -1.70403  -1.08203
19

C    -2.85521  -1.04400   0.15984
C    -1.95696  -0.21732  -0.72482
C    -1.04405   1.09222   1.10285
N     0.10497   0.73600   1.01111
C     1.04974   0.01352   0.44373
C     1.45394  -1.31216   1.03152
C     1.86542   0.65153  -0.52443
N     2.54756   1.14066  -1.33808
C    -0.82587  -0.69326  -1.29776
H    -2.29269  -1.83827   0.67536
H    -3.37945  -0.44706   0.92459
H    -3.62871  -1.52771  -0.45867
H    -2.36847   0.73334  -1.08555
H    -1.58488   1.74320   1.75581
H     1.88997  -1.95241   0.25020
H     0.57691  -1.82080   1.45678
H     2.20518  -1.17771   1.82406
H    -0.29329  -0.13436  -2.06895
H    -0.46538  -1.70477  -1.08250
19

C    -2.85405  -1.04222   0.16088
C    -1.94664  -0.20378  -0.70461
C    -1.05190   1.07593   1.08123
N     0.10699   0.74057   1.01824
C     1.03756   0.00649   0.43078
C     1.45261  -1.31139   1.02923
C     1.86327   0.64969  -0.52686
N     2.54810   1.14103  -1.33668
C    -0.81443  -0.68808  -1.28537
H    -2.29298  -1.83788   0.67615
H    -3.38241  -0.44872   0.92430
H    -3.62542  -1.52697  -0.46207
H    -2.36799   0.73371  -1.08531
H    -1.59238   1.73740   1.74676
H     1.89078  -1.95285   0.25078
H     0.57753  -1.82137   1.45723
H     2.20458  -1.17428   1.82306
H    -0.29328  -0.13511  -2.06898
H    -0.46673  -1.70550  -1.08297
19

C    -2.85289  -1.04044   0.16192
C    -1.93632  -0.19023  -0.68441
C    -1.05976   1.05964   1.05961
N     0.10902   0.74514   1.02536
C     1.02539  -0.00053   0.41783
C     1.45128  -1.31062   1.02693
C     1.86112   0.64785  -0.52930
N     2.54864   1.14140  -1.33529
C    -0.80299  -0.68290  -1.27298
H    -2.29328  -1.83749   0.67694
H    -3.38537  -0.45038   0.92400
H    -3.62214  -1.52624  -0.46547
H    -2.36751   0.73409  -1.08506
H    -1.59988   1.73161   1.73772
H     1.89158  -1.95330   0.25136
H     0.57815  -1.82193   1.45768
H     2.20398  -1.17084   1.82206
H    -0.29327  -0.13586  -2.06902
H    -0.46808  -1.70624  -1.08343
19

C    -2.85173  -1.03865   0.16295
C    -1.92601  -0.17669  -0.66420
C    -1.06761   1.04335   1.03800
N     0.11104   0.74971   1.03248
C     1.01321  -0.00756   0.40487
C     1.44994  -1.30984   1.02464
C     1.85897   0.64600  -0.53174
N     2.54918   1.14177  -1.33389
C    -0.79154  -0.67772  -1.26059
H    -2.29358  -1.83710   0.67773
H    -3.38833  -0.45204   0.92370
H    -3.61885  -1.52550  -0.46886
H    -2.36704   0.73447  -1.08482
H    -1.60737   1.72581   1.72867
H     1.89239  -1.95375   0.25194
H     0.57876  -1.82249   1.45813
H     2.20337  -1.16741   1.82106
H    -0.29326  -0.13661  -2.06905
H    -0.46943  -1.70697  -1.08390
19

C    -2.85058  -1.03687   0.16399
C    -1.91569  -0.16315  -0.64400
C    -1.07547   1.02707   1.01638
N     0.11306   0.75428   1.03960
C     1.00104  -0.01459   0.39192
C     1.44861  -1.30907   1.02234
C     1.85683   0.64416  -0.53418
N     2.54972   1.14214  -1.33250
C    -0.78010  -0.67255  -1.24820
H    -2.29387  -1.83670   0.67852
H    -3.39129  -0.45370   0.92340
H    -3.61557  -1.52476  -0.47226
H    -2.36656   0.73485  -1.08457
H    -1.61487   1.72002   1.71963
H     1.89319  -1.95420   0.25252
H     0.57938  -1.82305   1.45858
H     2.20277  -1.16398   1.82006
H    -0.29325  -0.13735  -2.06909
H    -0.47079  -1.70770  -1.08437
19

C    -2.84942  -1.03508   0.16503
C    -1.90537  -0.14961  -0.62379
C    -1.08332   1.01078   0.99476
N     0.11508   0.75884   1.04673
C     0.98886  -0.02162   0.37897
C     1.44728  -1.30830   1.02004
C     1.85468   0.64232  -0.53661
N     2.55025   1.14251  -1.33110
C    -0.76866  -0.66737  -1.23581
H    -2.29417  -1.83631   0.67931
H    -3.39425  -0.45536   0.92311
H    -3.61229  -1.52403  -0.47566
H    -2.36608   0.73522  -1.08433
H    -1.62237   1.71422   1.71059
H     1.89400  -1.95465   0.25310
H     0.58000  -1.82361   1.45903
H     2.20217  -1.16054   1.81906
H    -0.29324  -0.13810  -2.06912
H    -0.47214  -1.70844  -1.08484
19

C    -2.84826  -1.03330   0.16606
C    -1.89505  -0.13606  -0.60359
C    -1.09117   0.99449   0.97315
N     0.11711   0.76341   1.05385
C     0.97668  -0.02865   0.36602
C     1.44595  -1.30753   1.01775
C     1.85253   0.64048  -0.53905
N     2.55079   1.14288  -1.32971
C    -0.75722  -0.66219  -1.22342
H    -2.29447  -1.83592   0.68010
H    -3.39721  -0.45702   0.92281
H    -3.60900  -1.52329  -0.47906
H    -2.36561   0.73560  -1.08408
H    -1.62986   1.70843   1.70154
H     1.89481  -1.95509   0.25368
H     0.58061  -1.82418   1.45949
H     2.20157  -1.15711   1.81805
H    -0.29323  -0.13885  -2.06916
H    -0.47349  -1.70917  -1.08531
19

C    -2.84710  -1.03152   0.16710
C    -1.88473  -0.12252  -0.58338
C    -1.09903   0.97820   0.95153
N     0.11913   0.76798   1.06097
C     0.96451  -0.03568   0.35307
C     1.44462  -1.30676   1.01545
C     1.85039   0.63863  -0.54149
N     2.55133   1.14326  -1.32831
C    -0.74578  -0.65701  -1.21103
H    -2.29476  -1.83553   0.68089
H    -3.40017  -0.45868   0.92251
H    -3.60572  -1.52256  -0.48246
H    -2.36513   0.73598  -1.08384
H    -1.63736   1.70263   1.69250
H     1.89561  -1.95554   0.25426
H     0.58123  -1.82474   1.45994
H     2.20097  -1.15368   1.81705
H    -0.29322  -0.13960  -2.06919
H    -0.47484  -1.70991  -1.08577
19

C    -2.84594  -1.02973   0.16813
C    -1.87441  -0.10898  -0.56318
C    -1.10688   0.96192   0.92992
N     0.12115   0.77255   1.06809
C     0.95233  -0.04271   0.34011
C     1.44329  -1.30599   1.01316
C     1.84824   0.63679  -0.54393
N     2.55187   1.14363  -1.32692
C    -0.73433  -0.65183  -1.19864
H    -2.29506  -1.83514   0.68168
H    -3.40313  -0.46034   0.92222
H    -3.60243  -1.52182  -0.48586
H    -2.36465   0.73635  -1.08359
H    -1.64486   1.69684   1.68345
H     1.89642  -1.95599   0.25484
H     0.58185  -1.82530   1.46039
H     2.20036  -1.15024   1.81605
H    -0.29321  -0.14034  -2.06923
H    -0.47620  -1.71064  -1.08624
19

C    -2.84478  -1.02795   0.16917
C    -1.86409  -0.09543  -0.54297
C    -1.11474   0.94563   0.90830
N     0.12318   0.77712   1.07522
C     0.94016  -0.04973   0.32716
C     1.44196  -1.30522   1.01086
C     1.84609   0.63495  -0.54636
N     2.55241   1.14400  -1.32552
C    -0.72289  -0.64666  -1.18625
H    -2.29536  -1.83475   0.68247
H    -3.40609  -0.46200   0.92192
H    -3.59915  -1.52109  -0.48926
H    -2.36418   0.73673  -1.08335
H    -1.65235   1.69104   1.67441
H     1.89722  -1.95644   0.25542
H     0.58247  -1.82586   1.46084
H     2.19976  -1.14681   1.81505
H    -0.29320  -0.14109  -2.06926
H    -0.47755  -1.71138  -1.08671
19

C    -2.84362  -1.02616   0.17021
C    -1.85378  -0.08189  -0.52277
C    -1.12259   0.92934   0.88668
N     0.12520   0.78169   1.08234
C     0.92798  -0.05676   0.31421
C     1.44062  -1.30445   1.00857
C     1.84395   0.63311  -0.54880
N     2.55295   1.14437  -1.32413
C    -0.71145  -0.64148  -1.17387
H    -2.29566  -1.83435   0.68326
H    -3.40905  -0.46366   0.92162
H    -3.59587  -1.52035  -0.49266
H    -2.36370   0.73711  -1.08310
H    -1.65985   1.68525   1.66537
H     1.89803  -1.95688   0.25600
H     0.58308  -1.82642   1.46129
H     2.19916  -1.14338   1.81405
H    -0.29319  -0.14184  -2.06930
H    -0.47890  -1.71211  -1.08718
19

C    -2.84246  -1.02438   0.17124
C    -1.84346  -0.06835  -0.50256
C    -1.13045   0.91305   0.86507
N     0.12722   0.78626   1.08946
C     0.91580  -0.06379   0.30126
C     1.43929  -1.30368   1.00627
C     1.84180   0.63126  -0.55124
N     2.55348   1.14474  -1.32273
C    -0.70001  -0.63630  -1.16148
H    -2.29595  -1.83396   0.68405
H    -3.41201  -0.46532   0.92132
H    -3.59258  -1.51961  -0.49606
H    -2.36322   0.73748  -1.08285
H    -1.66734   1.67945   1.65632
H     1.89883  -1.95733   0.25658
H     0.58370  -1.82699   1.46174
H     2.19856  -1.13995   1.81305
H    -0.29318  -0.14259  -2.06933
H    -0.48025  -1.71285  -1.08765
19

C    -2.84130  -1.02260   0.17228
C    -1.83314  -0.05481  -0.48236
C    -1.13830   0.89676   0.84345
N     0.12924   0.79082   1.09659
C     0.90363  -0.07082   0.28830
C     1.43796  -1.30291   1.00397
C     1.83965   0.62942  -0.55368
N     2.55402   1.14511  -1.32134
C    -0.68857  -0.63112  -1.14909
H    -2.29625  -1.83357   0.68484
H    -3.41497  -0.46698   0.92103
H    -3.58930  -1.51888  -0.49945
H    -2.36274   0.73786  -1.08261
H    -1.67484   1.67366   1.64728
H     1.89964  -1.95778   0.25717
H     0.58432  -1.82755   1.46219
H     2.19796  -1.13651   1.81205
H    -0.29317  -0.14334  -2.06937
H    -0.48161  -1.71358  -1.08812
19

C    -2.84246  -1.02438   0.17124
C    -1.84346  -0.06835  -0.50256
C    -1.13045   0.91305   0.86507
N     0.12722   0.78626   1.08946
C     0.91580  -0.06379   0.30126
C     1.43929  -1.30368   1.00627
C     1.84180   0.63126  -0.55124
N     2.55348   1.14474  -1.32273
C    -0.70001  -0.63630  -1.16148
H    -2.29595  -1.83396   0.68405
H    -3.41201  -0.46532   0.92132
H    -3.59258  -1.51961  -0.49606
H    -2.36322   0.73748  -1.08285
H    -1.66734   1.67945   1.65632
H     1.89883  -1.95733   0.25658
H     0.58370  -1.82699   1.46174
H     2.19856  -1.13995   1.81305
H    -0.29318  -0.14259  -2.06933
H    -0.48025  -1.71285  -1.08765
19

C    -2.84362  -1.02616   0.17021
C    -1.85378  -0.08189  -0.52277
C    -1.12259   0.92934   0.88668
N     0.12520   0.78169   1.08234
C     0.92798  -0.05676   0.31421
C     1.44062  -1.30445   1.00857
C     1.84395   0.63311  -0.54880
N     2.55295   1.14437  -1.32413
C    -0.71145  -0.64148  -1.17387
H    -2.29566  -1.83435   0.68326
H    -3.40905  -0.46366   0.92162
H    -3.59587  -1.52035  -0.49266
H    -2.36370   0.73711  -1.08310
H    -1.65985   1.68525   1.66537
H     1.89803  -1.95688   0.25600
H     0.58308  -1.82642   1.46129
H     2.19916  -1.14338   1.81405
H    -0.29319  -0.14184  -2.06930
H    -0.47890  -1.71211  -1.08718
19

C    -2.84478  -1.02795   0.16917
C    -1.86409  -0.09543  -0.54297
C    -1.11474   0.94563   0.90830
N     0.12318   0.77712   1.07522
C     0.94016  -0.04973   0.32716
C     1.44196  -1.30522   1.01086
C     1.84609   0.63495  -0.54636
N     2.55241   1.14400  -1.32552
C    -0.72289  -0.64666  -1.18625
H    -2.29536  -1.83475   0.68247
H    -3.40609  -0.46200   0.92192
H    -3.59915  -1.52109  -0.48926
H    -2.36418   0.73673  -1.08335
H    -1.65235   1.69104   1.67441
H     1.89722  -1.95644   0.25542
H     0.58247  -1.82586   1.46084
H     2.19976  -1.14681   1.81505
H    -0.29320  -0.14109  -2.06926
H    -0.47755  -1.71138  -1.08671
19

C    -2.84594  -1.02973   0.16813
C    -1.87441  -0.10898  -0.56318
C    -1.10688   0.96192   0.92992
N     0.12115   0.77255   1.06809
C     0.95233  -0.04271   0.34011
C     1.44329  -1.30599   1.01316
C     1.84824   0.63679  -0.54393
N     2.55187   1.14363  -1.32692
C    -0.73433  -0.65183  -1.19864
H    -2.29506  -1.83514   0.68168
H    -3.40313  -0.46034   0.92222
H    -3.60243  -1.52182  -0.48586
H    -2.36465   0.73635  -1.08359
H    -1.64486   1.69684   1.68345
H     1.89642  -1.95599   0.25484
H     0.58185  -1.82530   1.46039
H     2.20036  -1.15024   1.81605
H    -0.29321  -0.14034  -2.06923
H    -0.47620  -1.71064  -1.08624
19

C    -2.84710  -1.03152   0.16710
C    -1.88473  -0.12252  -0.58338
C    -1.09903   0.97820   0.95153
N     0.11913   0.76798   1.06097
C     0.96451  -0.03568   0.35307
C     1.44462  -1.30676   1.01545
C     1.85039   0.63863  -0.54149
N     2.55133   1.14326  -1.32831
C    -0.74578  -0.65701  -1.21103
H    -2.29476  -1.83553   0.68089
H    -3.40017  -0.45868   0.92251
H    -3.60572  -1.52256  -0.48246
H    -2.36513   0.73598  -1.08384
H    -1.63736   1.70263   1.69250
H     1.89561  -1.95554   0.25426
H     0.58123  -1.82474   1.45994
H     2.20097  -1.15368   1.81705
H    -0.29322  -0.13960  -2.06919
H    -0.47484  -1.70991  -1.08577
19

C    -2.84826  -1.03330   0.16606
C    -1.89505  -0.13606  -0.60359
C    -1.09117   0.99449   0.97315
N     0.11711   0.76341   1.05385
C     0.97668  -0.02865   0.36602
C     1.44595  -1.30753   1.01775
C     1.85253   0.64048  -0.53905
N     2.55079   1.14288  -1.32971
C    -0.75722  -0.66219  -1.22342
H    -2.29447  -1.83592   0.68010
H    -3.39721  -0.45702   0.92281
H    -3.60900  -1.52329  -0.47906
H    -2.36561   0.73560  -1.08408
H    -1.62986   1.70843   1.70154
H     1.89481  -1.95509   0.25368
H     0.58061  -1.82418   1.45949
H     2.20157  -1.15711   1.81805
H    -0.29323  -0.13885  -2.06916
H    -0.47349  -1.70917  -1.08531
19

C    -2.84942  -1.03508   0.16503
C    -1.90537  -0.14961  -0.62379
C    -1.08332   1.01078   0.99476
N     0.11508   0.75884   1.04673
C     0.98886  -0.02162   0.37897
C     1.44728  -1.30830   1.02004
C     1.85468   0.64232  -0.53661
N     2.55025   1.14251  -1.33110
C    -0.76866  -0.66737  -1.23581
H    -2.29417  -1.83631   0.67931
H    -3.39425  -0.45536   0.92311
H    -3.61229  -1.52403  -0.47566
H    -2.36608   0.73522  -1.08433
H    -1.62237   1.71422   1.71059
H     1.89400  -1.95465   0.25310
H     0.58000  -1.82361   1.45903
H     2.20217  -1.16054   1.81906
H    -0.29324  -0.13810  -2.06912
H    -0.47214  -1.70844  -1.08484
19

C    -2.85058  -1.03687   0.16399
C    -1.91569  -0.16315  -0.64400
C    -1.07547   1.02707   1.01638
N     0.11306   0.75428   1.03960
C     1.00104  -0.01459   0.39192
C     1.44861  -1.30907   1.02234
C     1.85683   0.64416  -0.53418
N     2.54972   1.14214  -1.33250
C    -0.78010  -0.67255  -1.24820
H    -2.29387  -1.83670   0.67852
H    -3.39129  -0.45370   0.92340
H    -3.61557  -1.52476  -0.47226
H    -2.36656   0.73485  -1.08457
H    -1.61487   1.72002   1.71963
H     1.89319  -1.95420   0.25252
H     0.57938  -1.82305   1.45858
H     2.20277  -1.16398   1.82006
H    -0.29325  -0.13735  -2.06909
H    -0.47079  -1.70770  -1.08437
19

C    -2.85173  -1.03865   0.16295
C    -1.92601  -0.17669  -0.66420
C    -1.06761   1.04335   1.03800
N     0.11104   0.74971   1.03248
C     1.01321  -0.00756   0.40487
C     1.44994  -1.30984   1.02464
C     1.85897   0.64600  -0.53174
N     2.54918   1.14177  -1.33389
C    -0.79154  -0.67772  -1.26059
H    -2.29358  -1.83710   0.67773
H    -3.38833  -0.45204   0.92370
H    -3.61885  -1.52550  -0.46886
H    -2.36704   0.73447  -1.08482
H    -1.60737   1.72581   1.72867
H     1.89239  -1.95375   0.25194
H     0.57876  -1.82249   1.45813
H     2.20337  -1.16741   1.82106
H    -0.29326  -0.13661  -2.06905
H    -0.46943  -1.70697  -1.08390
19

C    -2.85289  -1.04044   0.16192
C    -1.93632  -0.19023  -0.68441
C    -1.05976   1.05964   1.05961
N     0.10902   0.74514   1.02536
C     1.02539  -0.00053   0.41783
C     1.45128  -1.31062   1.02693
C     1.86112   0.64785  -0.52930
N     2.54864   1.14140  -1.33529
C    -0.80299  -0.68290  -1.27298
H    -2.29328  -1.83749   0.67694
H    -3.38537  -0.45038   0.92400
H    -3.62214  -1.52624  -0.46547
H    -2.36751   0.73409  -1.08506
H    -1.59988   1.73161   1.73772
H     1.89158  -1.95330   0.25136
H     0.57815  -1.82193   1.45768
H     2.20398  -1.17084   1.82206
H    -0.29327  -0.13586  -2.06902
H    -0.46808  -1.70624  -1.08343
19

C    -2.85405  -1.04222   0.16088
C    -1.94664  -0.20378  -0.70461
C    -1.05190   1.07593   1.08123
N     0.10699   0.74057   1.01824
C     1.03756   0.00649   0.43078
C     1.45261  -1.31139   1.02923
C     1.86327   0.64969  -0.52686
N     2.54810   1.14103  -1.33668
C    -0.81443  -0.68808  -1.28537
H    -2.29298  -1.83788   0.67615
H    -3.38241  -0.44872   0.92430
H    -3.62542  -1.52697  -0.46207
H    -2.36799   0.73371  -1.08531
H    -1.59238   1.73740   1.74676
H     1.89078  -1.95285   0.25078
H     0.57753  -1.82137   1.45723
H     2.20458  -1.17428   1.82306
H    -0.29328  -0.13511  -2.06898
H    -0.46673  -1.70550  -1.08297
19

C    -2.85521  -1.04400   0.15984
C    -1.95696  -0.21732  -0.72482
C    -1.04405   1.09222   1.10285
N     0.10497   0.73600   1.01111
C     1.04974   0.01352   0.44373
C     1.45394  -1.31216   1.03152
C     1.86542   0.65153  -0.52443
N     2.54756   1.14066  -1.33808
C    -0.82587  -0.69326  -1.29776
H    -2.29269  -1.83827   0.67536
H    -3.37945  -0.44706   0.92459
H    -3.62871  -1.52771  -0.45867
H    -2.36847   0.73334  -1.08555
H    -1.58488   1.74320   1.75581
H     1.88997  -1.95241   0.25020
H     0.57691  -1.82080   1.45678
H     2.20518  -1.17771   1.82406
H    -0.29329  -0.13436  -2.06895
H    -0.46538  -1.70477  -1.08250
19

C    -2.85637  -1.04579   0.15881
C    -1.96728  -0.23086  -0.74502
C    -1.03619   1.10851   1.12446
N     0.10295   0.73143   1.00399
C     1.06192   0.02055   0.45668
C     1.45527  -1.31293   1.03382
C     1.86756   0.65338  -0.52199
N     2.54702   1.14029  -1.33947
C    -0.83731  -0.69844  -1.31015
H    -2.29239  -1.83866   0.67457
H    -3.37649  -0.44540   0.92489
H    -3.63199  -1.52844  -0.45527
H    -2.36894   0.73296  -1.08580
H    -1.57739   1.74899   1.76485
H     1.88917  -1.95196   0.24962
H     0.57629  -1.82024   1.45633
H     2.20578  -1.18114   1.82506
H    -0.29330  -0.13362  -2.06891
H    -0.46403  -1.70403  -1.08203
19

C    -2.85753  -1.04757   0.15777
C    -1.97760  -0.24440  -0.76523
C    -1.02834   1.12479   1.14608
N     0.10092   0.72687   0.99687
C     1.07409   0.02758   0.46964
C     1.45660  -1.31370   1.03612
C     1.86971   0.65522  -0.51955
N     2.54649   1.13991  -1.34087
C    -0.84875  -0.70361  -1.32254
H    -2.29209  -1.83905   0.67378
H    -3.37353  -0.44374   0.92519
H    -3.63527  -1.52918  -0.45187
H    -2.36942   0.73258  -1.08604
H    -1.56989   1.75479   1.77389
H     1.88836  -1.95151   0.24904
H     0.57568  -1.81968   1.45588
H     2.20638  -1.18458   1.82606
H    -0.29331  -0.13287  -2.06888
H    -0.46267  -1.70330  -1.08156
19

C    -2.85869  -1.04936   0.15674
C    -1.98792  -0.25795  -0.78543
C    -1.02049   1.14108   1.16769
N     0.09890   0.72230   0.98974
C     1.08627   0.03461   0.48259
C     1.45793  -1.31447   1.03841
C     1.87186   0.65706  -0.51711
N     2.54595   1.13954  -1.34226
C    -0.86019  -0.70879  -1.33493
H    -2.29179  -1.83945   0.67299
H    -3.37057  -0.44208   0.92549
H    -3.63856  -1.52992  -0.44847
H    -2.36990   0.73221  -1.08629
H    -1.56240   1.76059   1.78294
H     1.88756  -1.95106   0.24846
H     0.57506  -1.81912   1.45543
H     2.20698  -1.18801   1.82706
H    -0.29332  -0.13212  -2.06884
H    -0.46132  -1.70256  -1.08109
19

C    -2.85985  -1.05114   0.15570
C    -1.99824  -0.27149  -0.80564
C    -1.01263   1.15737   1.18931
N     0.09688   0.71773   0.98262
C     1.09844   0.04164   0.49554
C     1.45927  -1.31524   1.04071
C     1.87400   0.65890  -0.51468
N     2.54541   1.13917  -1.34366
C    -0.87164  -0.71397  -1.34732
H    -2.29150  -1.83984   0.67220
H    -3.36761  -0.44042   0.92578
H    -3.64184  -1.53065  -0.44507
H    -2.37037   0.73183  -1.08653
H    -1.55490   1.76638   1.79198
H     1.88675  -1.95062   0.24788
H     0.57444  -1.81856   1.45497
H     2.20759  -1.19144   1.82807
H    -0.29333  -0.13137  -2.06881
H    -0.45997  -1.70183  -1.08062
19

C    -2.86101  -1.05292   0.15466
C    -2.00855  -0.28503  -0.82584
C    -1.00478   1.17366   1.21093
N     0.09486   0.71316   0.97550
C     1.11062   0.04866   0.50849
C     1.46060  -1.31601   1.04300
C     1.87615   0.66075  -0.51224
N     2.54487   1.13880  -1.34505
C    -0.88308  -0.71915  -1.35971
H    -2.29120  -1.84023   0.67141
H    -3.36465  -0.43876   0.92608
H    -3.64513  -1.53139  -0.44167
H    -2.37085   0.73145  -1.08678
H    -1.54740   1.77218   1.80103
H     1.88594  -1.95017   0.24730
H     0.57382  -1.81799   1.45452
H     2.20819  -1.19488   1.82907
H    -0.29334  -0.13062  -2.06877
H    -0.45862  -1.70109  -1.08016
19

C    -2.86216  -1.05471   0.15363
C    -2.01887  -0.29858  -0.84605
C    -0.99692   1.18994   1.23254
N     0.09283   0.70859   0.96838
C     1.12280   0.05569   0.52144
C     1.46193  -1.31678   1.04530
C     1.87830   0.66259  -0.50980
N     2.54433   1.13843  -1.34645
C    -0.89452  -0.72433  -1.37210
H    -2.29090  -1.84062   0.67062
H    -3.36169  -0.43710   0.92638
H    -3.64841  -1.53212  -0.43828
H    -2.37133   0.73108  -1.08702
H    -1.53991   1.77797   1.81007
H     1.88514  -1.94972   0.24672
H     0.57321  -1.81743   1.45407
H     2.20879  -1.19831   1.83007
H    -0.29335  -0.12988  -2.06873
H    -0.45726  -1.70036  -1.07969
19

C    -2.86332  -1.05649   0.15259
C    -2.02919  -0.31212  -0.86625
C    -0.98907   1.20623   1.25416
N     0.09081   0.70402   0.96125
C     1.13497   0.06272   0.53440
C     1.46326  -1.31755   1.04759
C     1.88044   0.66443  -0.50737
N     2.54379   1.13806  -1.34784
C    -0.90596  -0.72950  -1.38449
H    -2.29061  -1.84101   0.66983
H    -3.35873  -0.43544   0.92667
H    -3.65169  -1.53286  -0.43488
H    -2.37181   0.73070  -1.08727
H    -1.53241   1.78377   1.81912
H     1.88433  -1.94927   0.24614
H     0.57259  -1.81687   1.45362
H     2.20939  -1.20174   1.83107
H    -0.29336  -0.12913  -2.06870
H    -0.45591  -1.69962  -1.07922
