10

C -2.536120929 1.578581887 -1.459524398
H -3.850527305 1.746141710 -3.021424765
H -1.683279611 3.345144639 -0.870499561
C -3.124225715 -0.373469938 0.589945832
H -2.656031195 0.109038520 2.524907049
H -4.826364887 -1.493283920 0.380762712
C -1.065602842 -0.745694810 -1.212368006
C 0.793720726 -2.170103353 -2.031697469
H 1.230340549 -3.961060240 -1.138856772
H 1.947117995 -1.597580475 -3.624613174

