12

N -3.765513799 1.124508081 -0.127955775
C -1.191299109 0.728049776 0.187130035
C 0.471632442 2.395104029 1.249949330
N 2.797004348 1.078719885 0.846730416
C 2.739130692 -1.087599783 -0.299085612
C 0.061786693 -1.569881493 -0.923093531
H -4.353426664 2.663981538 0.830644311
H -4.879277521 -0.383455213 0.207536772
H -0.204811314 -1.646858429 -2.973706289
H 4.429792179 1.836900720 1.480648229
H 4.383976052 -2.249251244 -0.632446888
H -0.579910612 -3.384218732 -0.162405803

