14

C 2.289372813 -0.973565564 -1.448636193
C 0.231479980 -2.372521103 -1.124265856
C -1.930441483 -0.853329567 -0.094387058
C -2.003783852 -0.636932512 2.750789603
N -1.025962719 1.551790219 3.019002514
C 1.908076253 1.765705704 -0.767808990
C -0.805978529 1.849030211 0.223424380
H 2.183419781 2.995456148 -2.404810645
H 4.085516298 -1.698873745 -2.113613487
H 0.112084985 -4.382202544 -1.493120308
H -3.728412069 -1.098664130 -1.074055946
H -2.602058576 -1.901246934 4.260812642
H 3.232820546 2.393271051 0.690926484
H -1.923645669 3.433501165 -0.467427933

