14

C 2.219679922 -0.715858303 -1.054125610
C -0.046966762 -2.115691222 -0.989856610
C -2.224204285 -0.451612570 -0.369184133
C -1.608910498 -0.939625573 2.323135869
N -0.591691429 1.290389317 2.923103618
C 1.745409233 1.844004428 -0.183824772
C -0.982686346 2.149717139 0.310792711
H 2.152721350 0.668002179 -2.825115706
H 4.079865261 -1.559890511 -0.923529850
H -0.237563821 -4.087026568 -1.470133717
H -4.047052416 -0.652342245 -1.291232286
H -1.709796948 -2.613820402 3.498483007
H 3.174043828 3.277800110 0.054308159
H -1.918884334 3.950379791 -0.015357124

