12

C -1.715098007 0.205147175 2.282293427
C -0.951376892 0.384874926 -0.112716645
N -2.025369513 1.942674210 -1.937750717
N 1.005618797 -1.091608989 -1.121014318
C 3.154330715 -1.781006609 0.130618701
O 4.735952585 -3.167141527 -0.742027967
H -3.466265180 3.009580831 -1.302653527
H -3.064120878 1.536237319 3.044745856
H -1.055412022 -1.298153994 3.493053389
H -0.770094482 2.948288282 -2.960477412
H 0.812455811 -1.740989504 -2.903191291
H 3.304451257 -0.901804179 2.012102974

