9

C 4.341697965 1.396259636 -0.420010793
C 3.880552068 -0.747944586 1.361673396
H 5.537869733 -1.975431592 1.478787226
H 3.513604954 -0.053223097 3.272158597
H 2.269849051 -1.889415302 0.767872258
C 2.990560076 1.884023460 -2.468380635
H 3.424278130 3.470774633 -3.686524306
H 1.397889903 0.708018453 -3.004734326
H 5.920468655 2.630299910 0.038315501

