20

C -2.531096658 3.182943304 0.523652766
C -1.274171593 0.612334381 0.781720965
N -2.118537320 -1.201382083 -0.858122706
C -2.423654465 -3.705221105 0.113738930
C 1.620507369 0.682794804 -0.147113195
C 3.128150298 -1.696636158 0.287930502
C 2.444789464 2.352364056 -2.052247333
H -4.420580841 3.073810392 1.339483457
H -1.490989774 4.672145831 1.514268100
H -2.745156934 3.678891569 -1.464381712
H -1.216316683 0.054132792 2.793875907
H -0.940025590 -5.017018978 -0.542238335
H -2.456699539 -3.809319200 2.196760529
H -4.204381206 -4.500002609 -0.585583815
H 5.138111835 -1.260799135 0.437922675
H 2.534194902 -2.641386763 2.018117311
H 2.879477307 -3.016892181 -1.276374806
H 1.517214108 4.156873982 -2.305856837
H 3.972932444 1.872915763 -3.333414202
H 2.604332673 2.472371132 0.780407322

