9

O 2.250742710 0.591704808 -3.226772081
C 3.544634049 -0.068526534 -1.445787619
N 2.183747894 -2.165398975 0.209333580
C 0.021318057 -2.982922672 -0.343312328
H -0.836749790 -2.159047057 -2.021112943
H -0.909887199 -4.414923719 0.787525712
H 3.190777863 -2.773576620 1.722284881
N 5.672785823 0.295509154 -0.349979149
H 6.660453091 1.628528709 -1.311994216

