15

O 2.845346075 -0.454931477 -3.602466642
C 2.781140362 -0.299257464 -1.308051737
N 1.620595090 -2.364527467 0.132137569
C -0.774838375 -2.783877101 -0.377210840
C -2.716892773 0.582860285 0.673141743
C -1.036290469 2.553939346 0.874292317
N 3.233060825 1.483521765 0.367969398
H 2.151036111 -2.374236445 1.965803305
H -1.291569073 -2.700213124 -2.352401000
H -1.842440812 -4.025190553 0.846452967
H -3.501419225 -0.197807195 2.396253209
H -3.912488760 0.497621448 -0.986512815
H -0.360207783 3.193921271 2.688353052
H -0.735894785 3.813727554 -0.705913165
H 3.768951646 3.088340553 -0.535526973

