10

O 2.036968576 -3.331527121 -0.536652948
C 1.143893761 -1.121842169 0.313287263
C -0.411145672 0.500978792 -1.014328979
C -2.496050629 1.423845820 0.813145750
N -0.560551785 3.042615889 0.140973985
H 1.675362642 -0.730723833 2.248449150
H -0.788061752 0.302538444 -3.015553934
H 1.505100321 -3.610145733 -2.251788882
H -2.507545096 0.715082003 2.768992371
H 0.851960195 3.383766143 1.426621299

