12

C -3.395663840 -0.507650017 1.130942769
C -0.632825437 -0.843279833 1.067270677
C 1.428106246 -1.656835786 1.710612667
N 4.269621298 0.089356985 -1.245673579
N 2.573232259 1.425300607 -2.196663341
C 0.330366834 1.761211142 -2.171286700
H -4.252763316 -1.060766561 -0.661506567
H -4.231987156 -1.655617971 2.624770250
H -3.881477901 1.465766352 1.475225716
H 2.977142434 -2.619365255 2.554145251
H 5.746032534 1.188608045 -0.678295555
H -0.980027974 2.369893609 -3.607801131

