14

O -1.102654324 -2.998486041 1.022660951
C -1.281566186 -0.802450089 -0.471246030
C -2.680497819 1.536608197 0.593075200
N -0.458061903 3.081353366 -0.111782232
C 1.028354602 0.851318747 -0.380990991
C 3.473638022 0.337583869 -0.327766874
O 4.431737122 -2.056767199 -0.509626406
H -2.470431196 -4.114408775 0.614673541
H -1.863226287 -1.268041908 -2.401711041
H -2.951421864 1.331059115 2.631872313
H -4.441790503 2.111217522 -0.312269286
H 0.128140363 4.394547237 1.141324508
H 3.088335110 -3.233931006 -0.158297539
H 4.920589807 1.769324436 -0.121120673

