15

C 4.512676681 -1.149990887 0.203183051
N 2.013682615 -0.086228940 0.007771801
C 1.355053629 2.315521804 -0.513116635
C -1.237790170 2.403437362 -0.507226491
C -1.994578939 -0.090139124 0.046628463
C -4.604568205 -1.132280090 0.290474943
N -0.000200084 -1.570308987 0.353436365
H 5.898781666 0.339804920 -0.095168592
H 4.772844839 -2.616627854 -1.219936246
H 4.782103798 -1.973557890 2.071510975
H 2.756053927 3.757573472 -0.845382739
H -2.420836827 4.024629190 -0.851233369
H -5.638433550 -0.981047236 -1.488812091
H -5.683010810 -0.121220621 1.729125709
H -4.511778570 -3.119565121 0.818744876

