15

C -1.535472887 -0.796728376 1.526830452
H -0.641417588 -0.011083452 3.225016355
H -3.374366551 -1.545015437 2.069650672
C -0.047783180 -2.908250012 0.333627821
O 2.346998915 -2.458581706 0.117184430
C 3.604857769 -0.166083796 1.021450147
H 3.353960967 -0.053735024 3.067362268
H 5.593502345 -0.536035782 0.653358238
C 2.788029661 2.195155491 -0.306842465
H 4.308171049 3.479366424 -0.800025136
C 0.444562493 2.810730544 -0.952499200
H 0.169680209 4.569586747 -1.973967488
C -1.894449608 1.300235244 -0.445112668
H -2.577799312 0.470378778 -2.217870339
H -3.391697796 2.577591366 0.181029640

