12

C -3.356726033 -0.524525989 -0.885287141
C -0.939726371 -0.190829042 -0.284888969
C 0.174795056 2.062431181 1.081837612
O 2.838709659 1.567091445 1.295682403
C 3.263183229 -0.695156107 0.196528474
C 1.224164338 -1.832338600 -0.752538983
H -3.981104357 -2.208640954 -1.863904926
H -0.589937479 2.292420318 2.983932542
H -4.780493146 0.869725057 -0.418054416
H -0.066171897 3.825951398 0.039593882
H 5.211347037 -1.308827111 0.221368471
H 1.183250841 -3.636511664 -1.696970904

