8

C -3.618127218 -0.589675091 1.966056339
C -1.488005480 0.787674906 0.673053852
C -1.468739042 1.289837839 -1.746418801
O -1.455950453 1.733294709 -3.891881259
H 0.148764721 1.426058973 1.720913961
H -4.466440696 0.576134863 3.441512488
H -5.102518749 -1.087181266 0.628169700
H -2.946352787 -2.334401169 2.838151132

