12

C -3.158844949 -0.505150533 1.433367187
C -0.292961520 -0.549451609 1.505810178
C 0.914111171 0.676500939 -0.746770424
O -0.206026011 1.604468508 -2.495855269
C 3.813364462 0.753879479 -0.829578336
O 5.128268270 -0.066140131 0.817710705
H -3.867718994 1.428168096 1.360488236
H -3.874350705 -1.483475410 -0.232643711
H -3.937475324 -1.417285428 3.108268848
H 0.452774241 -2.477078818 1.619549751
H 0.459924247 0.388048249 3.189779445
H 4.568935113 1.647516639 -2.564279738

