12

O -5.528634661 -0.631728395 -0.182066400
C -3.310554279 -0.260276628 -0.552417005
C 2.434893573 -2.315122977 -0.328783225
C 2.473109467 0.189687307 -0.479631973
C 0.671124385 1.887969303 0.761151239
C -1.842558107 1.652450941 0.837770506
H 3.851583568 -3.452662156 -1.270164391
H 1.028129705 -3.305536111 0.783458587
H 4.004468137 1.104041591 -1.498379056
H 1.507987974 3.506990781 1.710327753
H -2.966361660 2.982594313 1.919219609
H -2.283783532 -1.316947358 -2.033479953

