12

O -3.818773992 -2.437281393 0.144739680
C -2.028104041 -0.949315200 -0.270476897
C 0.940056752 -1.979349674 -0.401150325
C 2.397226021 0.325036541 -0.098115639
C 0.957433558 2.289858416 0.760847920
C -1.593018071 1.565877409 0.813722268
H 1.474803873 -3.184741208 -1.980603035
H 0.883645347 -3.114698774 1.315656694
H 4.305757812 0.559458899 -0.806777940
H 1.643464764 4.183794416 1.106663737
H -3.147240803 2.719845735 1.485366289
H -1.986476379 0.041285130 -2.251624740

