14

C -3.249096039 0.460943829 0.170438292
C -0.444051851 0.761008584 0.066169818
C 1.275218029 -0.819945325 1.775817194
C 2.712265325 -1.530968631 -0.621628772
C 0.967919951 2.781957102 -1.209562027
O 0.884627003 -0.236997696 -2.258046559
H -3.956255479 1.529066829 1.790547307
H -3.806834513 -1.510660254 0.414199356
H -4.125462085 1.218187871 -1.532237336
H 2.315042928 0.278480001 3.165364561
H 0.332725572 -2.419057631 2.667361672
H 4.563947691 -0.675023305 -0.862129454
H 2.724267864 -3.529781596 -1.111731605
H -0.349453352 3.568066408 -2.616426920

