14

C 4.728167197 0.237332820 0.753515612
C 2.265154348 0.492969793 0.397663723
C 0.365004834 -1.434762938 -0.520359653
C -2.058526761 0.034656916 -0.361284662
N -4.342438474 -0.985973525 -1.189116419
C -1.513645662 2.349726792 0.430780399
O 1.043790546 2.732112533 0.864329889
H 0.750689357 -2.037918258 -2.458960199
H 5.639909407 -1.546480485 0.360903958
H 5.858439396 1.798218537 1.430453456
H 0.355092861 -3.126182413 0.667904008
H -4.648397624 -2.761367402 -0.565126717
H -5.854555404 0.113468926 -0.824524925
H -2.698856925 3.976208171 0.751314006

