14

C 3.500633175 2.958988894 0.934389652
C 1.090091387 2.370538572 1.244336219
O 0.337242678 0.151703547 2.273015117
C -2.297521066 -0.344718208 2.161647113
C -3.155741074 -1.003982634 -0.453061139
C -5.056350509 0.121662514 -1.624204071
H -6.106480898 1.643855389 -0.736591697
H -5.642544593 -0.436306487 -3.504031583
H -2.111384820 -2.511166208 -1.377037437
H -3.366654881 1.272802166 2.892746019
H -2.594288003 -1.934345658 3.441895441
H -0.424553147 3.657210156 0.716694412
H 4.989362043 1.656069785 1.451223076
H 4.004968272 4.778695960 0.160222168

