19

C 2.406511153 -2.197053267 -2.555340162
C 2.434805096 1.965699540 -0.319066877
C -0.091711980 2.371883245 0.523288710
C -2.369814713 1.123867577 -1.246251154
C -2.204498429 -1.403258067 -0.277259521
C -1.852868226 -1.174854694 2.517335767
O -0.682565316 1.235002730 2.891238433
H 1.515313932 -3.759684542 -3.574601572
H 3.241787183 -0.928547545 -3.927379708
H 3.859250640 -2.949854203 -1.314857170
H 3.686397921 0.773615986 0.756164536
H 3.287726293 3.318844092 -1.597231688
H -0.549761770 4.381263180 0.573224005
H -3.958405836 2.256409735 -0.584062567
H -2.121688532 1.343853902 -3.279989830
H 0.483650722 -1.670713519 -1.319654032
H -2.886452512 -3.090805152 -1.199253666
H -3.628881271 -1.180848678 3.588471784
H -0.643559441 -2.668330081 3.289680893

