11

C -2.418200753 -0.185734283 -1.429167951
C -1.558630385 -1.542015818 0.960499299
C -2.126337183 -0.044512310 3.352631412
H -1.186429115 1.794477616 3.315635545
H -1.488109926 -1.040392497 5.042769293
H -4.153455430 0.298506638 3.552015509
H -2.476494042 -3.391556085 1.070202209
H 0.471953449 -1.915421203 0.846693434
H -1.988194329 -1.283562077 -3.122001148
H -1.487533219 1.648881097 -1.614574518
H -4.455811780 0.151654452 -1.398517670

