16

C -2.474662595 0.664964161 -1.595785632
C -0.746637028 -0.675434453 0.281915938
C -1.446160935 -0.176795312 3.010067057
C 2.218563736 1.017697718 -0.390291297
O 2.361023631 2.993863657 0.726874556
C 3.754197458 -0.548140328 -1.802252535
H -1.979711235 0.224838669 -3.545988700
H -2.364484041 2.705613319 -1.328638319
H -4.428112004 0.074202364 -1.273544507
H -0.807674993 -2.712952996 -0.134993663
H -1.140562778 1.813403771 3.450000231
H -0.318939396 -1.308069822 4.315605742
H -3.435835090 -0.622048367 3.329094023
H 2.907507406 -2.084968603 -2.849687494
H 5.685521765 -0.011830574 -2.222469611
H 1.892186094 -1.318831434 0.360083855

