14

C -3.752222089 -0.657613296 -0.554754918
C -3.278538482 2.067217498 -0.221537318
C -1.488576688 0.182221604 1.002093909
C 0.950662632 -0.082364941 -0.259468940
C 5.192071925 -0.915610933 0.560026668
O 2.660852397 -0.585374963 1.441713748
H -3.338875699 -1.492645722 -2.373131824
H -5.276438011 -1.531468539 0.488965180
H -4.465692326 3.130103046 1.057869837
H -2.534357985 3.115834065 -1.809176889
H -1.610236330 -0.047393538 3.039804695
H 5.250722995 -0.587356189 -1.470957619
H 5.778248320 -2.837622519 1.011642110
H 6.390294877 0.425602700 1.562629801

