15

C -1.316998759 -0.030042412 -2.225601303
C -2.996971331 -1.322833987 3.055625312
O -1.318146673 0.580701216 3.308403261
C 0.404937506 1.239770811 1.766187150
N 0.806154859 0.001720709 -0.469131389
C 3.235856864 0.445451647 -1.643049988
H -3.077531489 -0.352012721 -1.189274494
H -1.469814315 1.768464213 -3.241993012
H -1.055370485 -1.553777171 -3.588575473
H -3.901038419 -1.694715705 4.846225531
H -2.384328905 -2.866775380 1.857078989
H 1.582687090 2.793036887 2.387644486
H 3.360295518 2.318997294 -2.530606501
H 3.548318940 -0.977237756 -3.101517575
H 4.735777086 0.264889204 -0.243331227

