15

C -1.847764907 -0.377618019 -1.850750429
C -2.620720737 -1.397614438 2.355698251
O -1.282491963 0.599820785 3.299693929
C 0.704911818 1.209962309 1.987329893
N 1.192502468 -0.141593021 -0.006713592
C 3.299656663 0.672236810 -1.558232295
H -3.329407907 1.013685206 -1.566612059
H -0.680310929 0.226735010 -3.440496515
H -2.597391368 -2.242880958 -2.227319291
H -4.368466975 -1.608499766 3.405924580
H -1.494821364 -3.075280032 2.019550782
H 1.636701321 2.943642806 2.560688068
H 3.394243408 2.723355863 -1.839943935
H 3.158455817 -0.225707509 -3.407529374
H 5.058043496 0.036340624 -0.691287743

