13

O 2.648495440 3.940692639 0.042883612
C 1.605575717 1.927902655 -0.055112502
N 2.401864335 -0.394927041 0.571269952
C 0.813750349 -2.449592524 -0.390994370
C -1.661757275 -1.248578976 -1.265164233
C -2.723185467 0.347844155 0.761920849
N -0.949418927 1.600816896 -1.002240911
H 4.158937091 -0.611007132 1.256511706
H 0.434163387 -3.849488183 1.081153550
H 1.782689599 -3.396901573 -1.948209917
H -1.562182484 2.943825146 -2.209890120
H -4.657399505 1.002716669 0.574934056
H -2.020027768 0.382750723 2.700107016

