9

O -1.911902420 0.050475416 2.124704762
C -2.672636067 -0.943862150 -0.211877737
H -4.270345176 -2.212462472 -0.307202949
C -1.626092342 1.101459810 -1.697520191
H -2.144334954 1.997752772 -3.455373384
C -0.831787539 2.220991788 0.831726728
H -1.858497626 3.931487065 1.349550595
H 1.191239469 2.418314534 1.167284696
O -0.561840805 -1.388003668 -1.751750946

