15

C 3.048662238 -1.706901623 -1.061379267
O 0.423441099 -2.282434287 -1.239607917
C -1.192131080 -1.016084421 0.198512895
N -0.841862425 1.236840583 1.216412606
C 0.493389236 3.325493792 0.033704305
C -3.586071132 -1.930807712 1.037963727
H 3.559031986 -0.151276526 -2.312640614
H 4.046771754 -3.405938753 -1.646503330
H 3.545506989 -1.233464341 0.883207346
H 0.534258135 3.183657375 -2.029032199
H -0.489090204 5.065685908 0.528511025
H 2.430114343 3.485138706 0.734033178
H -5.156939554 -1.031207597 0.062498874
H -3.852579246 -3.945466050 1.329587566
H -2.894379422 0.499108285 2.310861909

