11

C -2.669749473 0.651038429 -0.565282468
C -0.427917426 0.793176919 1.170446511
O -0.335136106 1.362712594 3.321875175
N 1.489628472 -2.045967358 0.195480999
C 3.048254926 -0.442261260 -0.723039054
O 5.017936648 0.057767964 -1.630381888
H -2.125707602 0.160917833 -2.480960655
H -3.607717303 2.485221440 -0.530941156
H -3.954680638 -0.774000187 0.183559870
H 2.006478091 -3.873571741 0.433752919
H 1.498356512 1.659556802 -0.322145543

