16

C 3.876343893 -1.159289038 0.710761163
O 2.310322657 -0.222566727 2.372701704
C 0.203457420 0.997902402 1.819180041
C -1.697475858 0.094079807 0.046895311
N -3.730978242 1.335442788 -0.381246217
O -3.767854584 3.637042772 0.880454355
C -1.528022869 -2.413366588 -1.272296985
H 5.623968282 -1.822229095 1.535619530
H 3.176662194 -1.989179368 -1.018049037
H 3.577607805 1.914336992 -0.863518592
H 2.250717407 2.649840339 -0.511926391
H -0.447344907 2.124446947 3.393929128
H -5.394418091 4.305588625 0.445147155
H -0.788741827 -3.877712168 -0.021663801
H -0.327748033 -2.319982389 -2.947872750
H -3.417980239 -2.949338346 -1.879861433

