14

N -4.763843128 -1.202707839 -0.155645251
C -2.380230883 -0.184596215 -0.111582866
C -0.108875191 -1.750719817 0.008876365
C 1.831813786 -0.112449325 0.138551790
N 4.376954113 -0.543219387 0.197168600
C 0.733546782 2.513847219 0.090609514
N -1.978634488 2.214098067 -0.076655512
H -6.138871597 0.029240280 -0.609981918
H -4.948027175 -2.929050568 -0.921161853
H -0.041199374 -3.791914218 0.017803318
H 4.968951697 -2.289373758 0.647333715
H 5.483779139 0.854587897 0.845549942
H 1.456373506 3.583841123 -1.526991230
H 1.254500943 3.565213583 1.798536181

