16

C 4.287091797 0.498005762 -1.023166378
C 2.069007900 0.325540606 0.776346830
C -0.497978965 -0.364293371 -0.517767081
C -0.018661726 -2.735317641 0.724343230
C -4.812201560 0.560246953 -0.536873819
O -2.401823631 1.312056105 0.294865060
H 4.537599089 -1.295200485 -2.006786362
H 3.973985400 1.976381840 -2.425780539
H 6.029337912 0.927714837 -0.008492467
H 2.522790707 -1.104896295 2.258149001
H 1.646007617 2.049542890 1.821737634
H -0.316574328 -0.316767023 -2.576005187
H -0.978840244 -2.631868212 2.576909024
H -4.893394248 0.427024587 -2.605157444
H -5.359530383 -1.273381480 0.261558089
H -6.153724523 1.988938900 0.090266302

