16

C 4.256919163 -0.029744308 -0.815231913
C 2.055435169 0.986523946 0.743650750
C -0.459801206 0.602807629 -0.562876450
C -1.081297736 -2.183908389 -1.013328029
C -4.536891405 0.025815511 0.064534053
O -2.504386267 1.477578406 0.949683584
H 4.087902172 -2.062810411 -1.130516711
H 4.338726125 0.877434705 -2.666888088
H 6.051274099 0.312598477 0.138309244
H 1.978158844 0.060483519 2.590017052
H 2.292855276 3.008842269 1.094507961
H -0.475152907 1.644826557 -2.361783547
H -1.127335716 -2.994871977 0.917033425
H -3.856537560 -1.761408354 -1.043687669
H -5.749037141 -0.618432527 1.599196266
H -5.637740153 0.997989103 -1.398472146

