11

O 1.401792905 3.068937771 1.270563785
C 0.505766205 1.175667106 -0.353700927
C 1.102302552 -1.491827886 0.623639025
O 0.368594860 -3.375620932 -1.085808909
C -2.243336949 1.395960814 -0.798207446
N -4.396407521 1.460274751 -1.045454356
H 0.479958575 3.012494089 2.833944563
H 1.458088829 1.443124731 -2.163478559
H 3.145464649 -1.625565391 0.849862826
H 0.228757206 -1.742279790 2.489529089
H -1.440637568 -3.521000020 -1.089882119

