11

O 0.677952513 3.154356850 1.838681579
C 0.764493674 1.357055265 -0.051669855
C 1.352790058 -1.456869370 0.471590112
O -0.102113071 -2.525913744 -1.472880868
C -1.750410639 0.591616426 -1.165437640
N -3.940958618 0.095585163 -1.295074270
H -0.305377946 2.524947395 3.230632130
H 1.987255495 2.062520811 -1.550226395
H 3.358857493 -1.888531232 0.261228672
H 0.735728017 -1.997680509 2.383404395
H -2.751564315 -1.933924494 -1.380896125

