12

C 2.187057183 -1.215999398 -0.068724426
C -0.329631693 -0.880048650 1.259960003
C -0.879108114 1.961380268 0.933842180
O -3.056010305 1.659088037 -0.531517825
C -1.643265095 -0.561054149 -1.309301356
C 1.017330809 0.511302498 -2.139894948
H 2.451943514 -3.117160936 -0.829336904
H 3.931054753 -0.587892456 0.827996030
H -1.064616462 -1.890195722 2.908829232
H -0.815506641 3.497750209 2.307706955
H -2.639691905 -1.966240020 -2.428817745
H 0.717708118 2.594854751 -0.782683006

