14

O 3.052184536 -0.646933566 -0.091295050
C 2.904500039 1.548173000 -1.682220004
C 0.882717340 0.882986437 0.072566296
O 0.584713766 2.168022954 2.325607027
C -2.543164940 -2.261896573 1.055971135
C -1.574575875 -0.265153085 -0.777948732
H -1.160206425 -3.775569675 1.279705732
H 2.723548502 1.160666403 -3.690471887
H 4.204121954 3.061520558 -1.192436913
H 2.226849448 2.462409214 3.040981219
H -2.903252631 -1.444729278 2.912191300
H -4.297436252 -3.093423009 0.363369219
H -1.279197622 -1.086368041 -2.647223144
H -2.952245520 1.258974321 -0.988740330

