12

C -2.143472086 -0.073038274 -0.594260568
C -0.579231633 -1.765325076 1.117901712
C 0.524184761 0.588700465 0.039633812
O 0.943799581 2.483820529 1.818922206
N 2.376305582 0.613481861 -1.926247746
H -3.604012022 1.049488883 0.291296369
H 1.243710418 4.009905427 0.879173726
H -2.587903923 -0.744664645 -2.476877411
H 0.064254203 -3.553586835 0.361632901
H -1.034714192 -1.766394056 3.110895058
H 3.991565919 -0.259311639 -1.398537266
H 1.735224649 -0.153214950 -3.547718271

