11

C -3.747065613 -0.824939039 -0.342440616
H -3.564812318 -2.253782146 1.116129394
H -5.321769441 -1.082693261 -1.624344553
N -3.157649773 1.788482422 0.294110927
H -2.534675554 1.943327034 2.101004025
C -1.392389383 0.364632539 -1.265043215
C 1.125126891 -0.437340470 -0.291353363
H 2.508693992 -1.063865504 -1.663995882
C 2.013064694 0.294584492 2.287646359
O 1.152713680 -1.956090793 2.011338637
H -1.310686809 0.996839790 -3.213855538

