14

C 2.596933450 2.714332874 -0.864892045
C 3.144634530 0.416793383 0.754793709
O 1.280898300 -1.494369606 0.477928763
C -5.318278172 -2.669153964 0.131946744
C -3.126588647 -1.809752858 0.832665884
C -0.953817265 -0.976653868 1.644138602
H 4.097018872 4.114075181 -0.647935329
H 2.474864588 2.181795958 -2.852458777
H 0.812017886 3.594272582 -0.321441847
H 3.301444325 0.943958828 2.755568928
H 4.917304404 -0.472600359 0.196546767
H -5.987797140 -4.510296099 0.739489989
H -6.549253461 -1.578443823 -1.093184056
H -0.842392777 0.128927793 3.377189688

