14

O -1.857662782 3.567810463 -0.208992125
C -1.475435703 1.240173474 0.968528103
C -2.067846966 -1.189861916 -0.556739980
C 0.703827172 -1.972876720 -0.294704698
C 2.469578268 -0.477996756 -1.823370565
C 1.300047046 0.388702472 1.308084505
H -1.092063789 3.483987144 -1.857986455
H -2.455191329 1.316815796 2.777043511
H -2.679816781 -0.868419256 -2.497468339
H -3.409448031 -2.425344239 0.399512726
H 1.244994260 -3.807289899 0.442436872
H 2.450286640 1.676407641 -0.099050789
H 4.388692506 -1.114153591 -1.333061469
H 2.311570405 0.228574261 3.080299938

