12

C -1.968021957 0.920581329 -0.017806625
C 0.444475395 2.399267077 0.186459825
C 2.472443943 0.953134564 -0.225059276
C 1.767446445 -1.660930539 -0.841704236
O -0.061494428 -2.883735049 1.809242462
C -1.024042776 -1.755933798 -0.448606677
H -3.126744682 1.075433065 1.683519210
H -3.122765486 1.571330119 -1.603271990
H 0.487606108 4.386641322 0.683719428
H 4.416551699 1.577547734 -0.136352433
H 1.778618524 -3.575567789 0.845176645
H -2.218869683 -3.009996041 -1.554767067

