14

O 3.298401148 3.254418113 -1.018857991
C 1.854571323 1.633456850 -0.211588798
C 2.703214633 -1.314242461 0.573845857
N 0.097140408 -1.848254989 -0.056716539
C -1.759772380 -1.032072373 1.420799279
C -3.029371063 0.526765390 -0.595708741
C -0.418839371 0.251051079 -1.816196730
H 4.006313322 -2.082968346 -0.820237987
H 3.240989190 -1.755810928 2.508416675
H 0.593109971 1.896895783 1.649240561
H -2.077484475 -1.505915209 3.385089802
H -3.590169344 2.431245948 -0.061461944
H -4.582040874 -0.422769888 -1.568613109
H -0.088028394 -0.029812848 -3.824886708

