10

C -3.426573674 2.449442915 -1.020535690
C -1.917048635 0.306968434 0.017160017
O -1.207855888 0.776899593 2.443944341
H -0.240114554 -0.625707293 3.068232563
C -1.328265476 -1.793089404 -1.229998376
H -1.945312343 -2.059880561 -3.156542016
H -0.227356578 -3.289671313 -0.366736239
H -5.112349576 2.746819591 0.131248925
H -3.992573199 2.077521211 -2.961621944
H -2.319763653 4.189580020 -0.961272461

