13

C -1.633997425 -1.654639376 -1.270516958
C 0.396790065 0.177398834 -0.720401299
O -1.087684916 0.325059595 3.703973564
C -0.055095135 2.607973495 0.245884493
O -2.137721290 3.063852744 1.252272653
C 3.040410673 -0.513767457 -1.421973253
O 4.797169394 0.918615088 -1.288566695
H -3.404840350 -1.058730343 -0.425633598
H -1.134255402 -3.540095910 -0.600951729
H -1.859837819 -1.787291252 -3.328896962
H -1.627898750 -0.111241090 5.404538633
H 1.531811449 3.916534777 0.436259584
H 3.291513191 -2.471735844 -2.115457349

