13

C 1.360197993 1.306765722 2.466573433
O 1.809684242 -1.168217673 1.853830115
C 0.483202705 -2.046518931 -0.200372348
C -2.113410587 -1.280878307 -1.027061028
O -2.809826707 1.121081743 -0.060897728
C -0.640786438 2.214491981 -1.121406266
C 0.165783745 -0.180788284 -2.362171904
H 3.044117843 2.124022401 3.326204745
H -0.382681332 1.634855209 3.508131041
H 1.034101864 -3.957344093 -0.684211210
H -3.588181994 -2.559109372 -1.639946717
H 0.739306478 3.156797223 0.380067709
H 1.001304608 -0.422858516 -4.206273275

