9

C -3.136719185 -2.710529007 -0.793355102
C -5.428788316 -2.160614528 0.794298925
H -6.957938785 -3.474414283 0.352134382
H -5.004768904 -2.351562925 2.805349284
H -6.119887484 -0.248641131 0.466628012
C -2.116607796 -1.079813998 -2.337170487
N -1.296341955 0.377596967 -3.929689255
H 0.079753378 1.566567348 -3.309508448
H -2.243374857 -4.549983900 -0.675298374

