11

O 5.426043792 -2.461741158 -1.684509918
C 3.197349064 -2.204194126 -1.480436712
N 2.084397509 -0.613922299 0.369421086
C -0.277686712 -0.403785132 0.176932733
C -2.541518705 0.745246473 1.200875863
H -3.274086363 0.023545005 2.971725402
H -2.826783295 2.750896392 0.902456304
C -2.648246752 -1.010657638 -1.126643339
H -3.005762091 -0.156491471 -2.953031079
H -3.460219076 -2.874065320 -0.878284628
H 1.839386296 -3.204543497 -2.727200794

