12

O 4.827222729 3.720947859 1.978238062
C 3.729601539 2.199856260 0.713068935
O 0.276390360 -0.285565472 -0.661725832
C -2.015747651 -1.387020708 -0.327223048
C -3.109729361 -2.753301011 -2.109478785
C 1.014592482 1.462392095 1.199401575
H 4.633766117 1.223392347 -0.903504970
H -2.871018817 -1.099329125 1.520085622
H -2.232949125 -3.015798426 -3.938048365
H -4.909558814 -3.641188869 -1.739687445
H -0.153192028 3.173465061 1.153022423
H 0.892126438 0.649260027 3.102852383

