14

C -1.238180077 -0.616321590 -1.908744952
C -0.371254895 1.660932032 -0.323517900
C -1.193379263 0.131953660 2.008723123
C -0.215620264 -2.171365539 0.406367500
C 2.527621017 -1.666273947 0.286086658
C 2.469093213 1.133294495 -0.254334157
H -0.359364398 -0.923779029 -3.748868506
H -3.285378252 -0.803778642 -2.049366106
H -1.039954232 3.572234482 -0.680762215
H -3.235976332 0.015528087 2.253397341
H -0.272806551 0.516749483 3.813493228
H -0.848051202 -4.089006698 0.780187074
H 3.483633010 1.500948271 -2.021304996
H 3.521673575 2.132342959 1.221924445

