14

C -1.200588266 -0.461309888 -1.897913269
C -0.461887672 1.751219347 -0.133070394
C -1.318230482 -0.011654149 2.062952991
C -0.132253125 -2.069224293 0.314028319
C 2.670475468 -1.333192087 0.495907637
C 2.365306790 1.268775972 0.055092754
H -0.263789855 -0.583191063 -3.733328135
H -3.239229420 -0.673373858 -2.112539707
H -1.156281501 3.669365989 -0.386937184
H -3.365978812 -0.175162494 2.214239287
H -0.468674623 0.282359514 3.917738646
H -0.588298917 -4.061079967 0.513860299
H 3.320426605 -0.088203968 -1.656466363
H 3.829092161 2.690979904 0.258668679

