15

C 4.308778388 0.277333919 0.817490230
N 1.417493563 -0.799460561 -2.654535912
C 1.931500240 1.022325714 -0.627659285
C -0.466671835 1.063557214 0.828959810
C -2.033393952 -0.532387212 -0.323415269
C -4.678199002 -1.308513322 0.204330039
N -0.770455155 -1.628289167 -2.465604098
H 5.911826729 0.156890014 -0.468894758
H 4.053149145 -1.557974650 1.720435029
H 4.730212183 1.672839007 2.273252297
H 2.250010253 2.834451123 -1.586661430
H -0.832365134 2.188971513 2.490630970
H -5.902438627 -0.820166045 -1.382967662
H -5.399535262 -0.394665030 1.901380292
H -4.789979855 -3.353704777 0.451700499

