15

C 3.951554880 -0.181846342 0.772897305
N 1.948897437 -0.494263877 -2.125000466
C 1.602151382 1.897170455 -1.043520939
C -0.790177754 1.995027636 0.050110718
C -1.757618829 -0.405535207 -0.371212962
C -4.267237900 -1.449043788 0.372871254
N -0.085180350 -1.868602142 -1.613011090
H 5.440192322 -1.282168820 -0.099036219
H 2.793659930 -1.267088503 2.065867402
H 4.735575717 1.495376112 1.666155915
H 2.824867831 3.432779535 -1.601202078
H -1.678670758 3.572419751 0.982149834
H -5.758693774 -0.047472169 0.135769169
H -4.256174762 -2.031588602 2.353100916
H -4.702962105 -3.100417188 -0.775497398

