15

C -2.508725060 -2.003372515 -0.837201226
C -1.256955697 1.981096424 -0.984970534
C -0.377966182 2.584341732 1.568436835
N 1.190184908 1.769274452 -0.554941660
C 2.503052650 -0.518242083 -0.714578240
C 4.371586800 -0.940932319 1.194252335
N 5.791700184 -1.392631513 2.778662043
H -4.096045097 -1.096857476 0.115820218
H -2.380653841 -3.881746507 0.030025121
H -2.972151592 -2.262536982 -2.825785425
H -2.439172480 2.581925396 -2.527976210
H -0.015236200 4.490368616 2.224525860
H -0.799767339 1.192119194 3.026410146
H -0.052599147 -1.752147335 -0.561103358
H 3.121339933 -0.981978568 -2.617143976

