8

C 4.012302148 -1.098890935 0.043185250
N 1.410710164 -0.600678210 0.808419998
C -0.389546084 -2.215142916 0.095501637
N -1.921721002 -3.662443885 -0.457940431
H 0.869475897 1.223447962 0.810597284
H 4.474024752 -3.052251754 0.493967001
H 5.258980002 0.127606497 1.126791721
H 4.324423695 -0.785648969 -1.975030119

