12

C 3.496687124 -1.199240305 0.063154005
N 1.238325435 0.130162805 0.888088376
C -0.984792408 -0.288715267 -0.185118913
N -2.135531778 -1.697547233 -1.640567644
C -3.451454905 1.479314914 -0.143001831
O -3.207569553 3.644435683 -1.000891930
H 3.088329819 -3.213203035 -0.057884144
H 4.983285931 -0.916928394 1.456252639
H 4.151942969 -0.536966472 -1.779561139
H 1.442294971 1.872579902 1.627455269
H -4.675120374 -0.094088292 -1.302242417
H -4.214602318 0.915980205 1.711161500

