14

C 2.824612283 0.546041315 1.313497588
C 0.295789098 0.198663223 0.093960018
C -0.408472050 -2.119657776 -1.319724046
C -1.679927464 -1.491213385 1.149230159
C -2.634592328 2.764662650 -2.085763894
O -0.504195031 2.612476750 -0.930909797
H 3.480327501 -1.241238448 2.099896305
H 4.215774969 1.198393273 -0.062173955
H 2.712510838 1.926555961 2.841650791
H -1.549833597 -1.831119916 -2.994564254
H 0.952536012 -3.643934773 -1.399753929
H -1.221117381 -2.568721540 2.825877814
H -3.607069845 -0.816424274 1.000955406
H -2.713550641 4.790232379 -2.636600653

