14

C 2.580129741 0.554939166 1.265522090
C 0.062985006 0.316248577 -0.036731495
C -0.586942037 -2.065393270 -1.478579734
C -1.893073737 -1.523830833 0.945787422
C -0.987567717 2.667804208 -1.127669347
O 0.021153462 4.699866961 -1.041405107
H 3.198568164 -1.269083959 2.002028958
H 4.014333774 1.249986746 -0.041788874
H 2.465928073 1.887919357 2.833751547
H -1.653087854 -1.884052845 -3.216071790
H 0.855732618 -3.513534751 -1.515496479
H -1.365989455 -2.593556850 2.606403416
H -3.861426868 -0.966158518 0.881395477
H -2.850743189 2.438845973 -2.077146081

