14

C 2.532546758 0.733026124 1.029815549
C -0.167353050 0.381479731 0.191621687
C -0.717800091 -2.027540771 -1.348556146
C -1.780035573 -1.627750860 1.255378229
C -1.881334607 2.546453631 -1.709064263
O -1.096871668 3.445852509 0.435297921
H 3.431097433 -1.115183076 1.223192414
H 3.587666968 1.816009401 -0.370214450
H 2.635015589 1.712917528 2.837212353
H -1.983898037 -1.940752868 -2.937670232
H 0.905105549 -3.265329467 -1.557344748
H -0.993247308 -2.694333506 2.815228735
H -3.779267793 -1.238625561 1.378387570
H -0.684923221 3.322962958 -3.293626944

