11

N 4.386449723 2.088696050 0.444990988
C 2.526541492 0.445178543 -0.129302885
O 0.636345941 2.009176960 0.338918166
C -2.519223282 0.280074627 0.729522251
C -1.887090713 -2.106241401 -0.048748188
O 2.415329503 -1.620906366 -1.103535201
H 4.053401820 2.960403694 2.120092432
H -3.505850388 1.528828856 -0.552799316
H -2.711828005 0.674955804 2.725415079
H -1.332314743 -3.556017268 1.280482504
H -2.073950101 -2.674531841 -2.000484258

