14

C 4.636080011 -0.491342757 -0.464160956
N 2.363139746 0.618510365 0.542583664
C 0.089898032 -0.311740579 0.168354907
N -1.032497581 -1.668911759 -1.647903598
N -3.488611285 -0.870722870 -1.412535186
C -3.986548866 0.732910757 0.414481228
C -1.688497769 1.090313562 1.793073512
H 4.366888676 -1.011584001 -2.450384660
H 6.172631082 0.875324845 -0.350121219
H 5.215562600 -2.192755973 0.564457886
H 0.633052545 2.295638200 1.789742322
H -4.738530738 -1.509159755 -2.698519419
H -5.898596643 1.358624512 0.757858448
H -1.768862171 0.667982186 3.805589183

