9

C 1.524334199 -2.373166841 -1.317715589
C -0.724611968 -1.370337261 -0.990247330
C -2.730427804 0.369110075 -1.642693982
H -4.089588980 -0.077065526 -3.107905511
H -2.399308953 2.369334987 -1.329045857
N -2.827192194 -1.344463849 0.585263336
H -2.547818372 -0.468057987 2.263384619
H 2.284056371 -3.714788712 0.026630625
H 2.646970733 -1.883869599 -2.953223604

