11

C 4.016206171 0.021321137 0.244079275
N 1.663228691 -1.298020598 0.768406484
C -0.201384919 -0.015188504 1.383257432
O -0.921539174 2.407590092 1.723616458
C -2.811652088 0.318810819 1.993256566
O -4.712571174 0.213913086 0.291253075
H -4.049523271 -0.102735698 -1.370251543
H -3.513274592 0.151883808 3.908850849
H 4.628323612 -0.446563240 -1.668183686
H 3.877256536 2.076177086 0.421755010
H 5.464809652 -0.665689362 1.540104776

