10

O 1.966608007 -1.189142667 0.732517694
C 0.166669630 -0.408923864 -1.026818916
H 1.102303157 0.122988006 -2.765562480
C -2.123375718 1.052832583 -0.272084147
H -2.421005163 1.366849791 1.729588125
H -2.763429225 2.583636109 -1.467323826
C -2.363181415 -1.638224289 -1.219427645
H -2.814152498 -3.076080539 0.167408286
H -3.172329506 -1.970092454 -3.067911612
H 1.130673861 -1.683200413 2.262698989

