14

C -4.374084829 -0.828905234 0.636273318
C -2.046541608 0.467088746 -0.380371444
O -0.178008554 0.456119377 1.614897264
C 2.031047309 1.587257657 1.258215143
O 2.378217115 2.582334446 -0.922974195
C 4.848725091 0.348615466 -0.421350325
H -3.950340069 -2.768804098 1.189563906
H -5.107440502 0.167618008 2.284107998
H -5.846092984 -0.871945259 -0.807885187
H -1.280372673 -0.513624065 -2.026842592
H -2.436520004 2.413231416 -0.938808663
H 6.348283941 1.352219229 0.528977655
H 5.063266831 0.256833868 -2.466981350
H 4.541806904 -1.538540593 0.337797483

