14

O 3.562989734 0.988586960 0.862358924
C 2.670217313 -0.323186007 -1.240266052
C 0.613460223 -2.109499383 -0.699612932
C -2.052955130 0.708733147 2.088240304
C -2.880417974 1.529927127 -0.271701440
O -2.506246155 0.322220225 -2.257756675
H 2.055830349 1.536329595 1.757742644
H 4.231151500 -1.517741568 -1.936526779
H 2.133419688 0.918364056 -2.810256317
H 0.690682691 -3.110857641 1.078817659
H -0.195281463 -3.136105478 -2.265135620
H -2.457606116 -1.254811784 2.506008994
H -2.149424950 1.966177905 3.707663160
H -3.902245009 3.335792705 -0.432287512

