10

O 4.433891505 0.207775803 -0.759824293
C 1.906319470 0.147952233 -0.501034936
N 0.666327920 -1.999917132 -0.715847985
N -1.744127508 -1.495231529 -0.277707877
C -2.061620734 1.134290702 -0.004370729
C 0.409584758 2.324034623 0.123755027
H 5.020040631 -1.487768849 -1.054517482
H -3.044192072 -2.806412407 -0.718892485
H -3.749416678 1.820481249 0.930352082
H -1.915739263 2.091119094 -1.947894408

