14

C 1.875257040 0.158744157 1.067848725
C 2.987075591 -1.756221660 -0.953092971
C 0.257674947 -1.883097570 -0.879108624
O -3.979442513 -0.565409949 1.815379537
C -3.105456445 1.318982499 0.179931104
C -0.498979689 0.715992057 -0.833507398
H 1.518458511 -0.436319148 2.988104774
H 2.977751871 1.879628543 0.953119635
H 4.034806783 -3.402889567 -0.324098443
H 3.994323898 -0.631681284 -2.363566258
H -3.077422244 -2.088953128 1.322106745
H -3.083352564 3.119621983 1.197164876
H -4.375301907 1.553396713 -1.448996903
H 0.226300505 2.106611541 -2.183510337

