10

O -3.936492515 0.526550680 1.049905738
C -1.503898663 -0.060864526 0.639213713
C 0.646532339 1.445763317 0.777289425
C 2.586255269 -0.127073556 0.012415179
N 1.770391450 -2.484551192 -0.383113399
N -0.937948328 -2.439425288 0.034341861
H -4.073954652 2.280916402 1.482140489
H 0.768208044 3.401176625 1.341723520
H 4.564228712 0.310854033 -0.242149468
H 0.136475095 -2.882624022 -1.985772872

