18

C 3.684029546 -1.122507371 -0.157573112
C 1.395219342 -0.015233517 1.209982737
C 1.146457439 2.802708052 0.654860854
C -0.941149391 -1.532281423 0.502014343
C -3.676602884 -0.530954289 0.803201935
C -2.499005669 -0.919755613 -1.678349089
N -2.562495365 -0.760767946 -4.041967806
H 3.929575985 -3.124509022 0.279428738
H 5.414891441 -0.138024443 0.384073645
H 3.452409349 -0.945453148 -2.202018182
H 1.675574008 -0.245137163 3.249801701
H 2.875466835 3.786445407 1.198558681
H -0.406526539 3.670446459 1.698696507
H 0.837837705 3.137369610 -1.359578975
H -0.764008694 -3.540948328 0.898072952
H -5.094057405 -1.857641693 1.454933327
H -3.947942498 1.395706570 1.445019672
H -4.277325276 -0.100949170 -4.625579937

