10

O -0.265399940 3.453698387 1.419211910
C -0.162656929 1.354619332 0.540414844
C -2.360156795 -0.447014979 0.509907351
C 3.111413239 -2.270694590 -0.223563709
O 2.189374894 -1.622949255 -2.340717125
C 2.285958758 0.455356495 -0.508772646
H -2.831391487 -0.981441622 -1.426878094
H -3.978828106 0.443037011 1.407082797
H -1.866444377 -2.186271359 1.511574201
H 3.706239346 1.868745856 -0.918453592

