10

O -0.402302207 3.952611633 1.064662401
C -0.223292817 1.852179591 0.202629493
C -2.112012322 -0.212017671 0.319012547
C 1.460188145 -2.071977718 0.159845092
O 1.640903656 -1.493640682 -2.282775817
C 2.155978955 0.524669457 -0.480945295
H -2.741227022 -1.070849024 -1.429700683
H -3.556284891 0.009358207 1.764298369
H -0.329020575 -2.779911435 1.126335805
H 4.048701108 1.288925668 -0.437819326

