17

C -3.895638299 -1.025695247 0.471537747
C -1.580292448 -0.023205988 -0.858168796
O -0.957483371 2.449311106 0.191607571
C 1.511616512 2.897563592 0.234009113
C 2.840478121 0.424906242 -0.050943369
C 2.065503044 -1.447315916 1.941429183
C 0.831794966 -1.514752173 -0.598846178
H -5.457487323 0.307728501 0.305394312
H -3.509838296 -1.343382529 2.470982089
H -4.476133063 -2.814466174 -0.373742398
H -1.976218530 0.294873828 -2.870114110
H 2.176869178 3.864487109 -2.885698776
H 2.231470395 4.599965814 -1.310316139
H 4.722341039 0.362580467 -0.838260097
H 1.004722443 -0.766693315 3.556097015
H 3.409061979 -2.927816369 2.365183693
H 1.158421560 -3.077992734 -1.872935832

