10

C -2.319376883 0.439534461 0.135613984
C 0.197412942 -0.738298763 -0.420267852
C 2.500710202 0.809609373 -0.693521834
O 1.754021018 -1.258149815 1.761539369
H -3.550874114 -0.884794243 1.127792822
H -3.236470099 0.982553990 -1.631593637
H -2.074108762 2.133311728 1.283153613
H 0.100926814 -2.468696295 -1.529019832
H 3.951690108 -0.216085061 -1.753727524
H 2.513098774 0.656820745 1.967955363

