9

O 4.027126520 -0.725053445 -0.607828783
C 1.586254156 -0.360671635 -0.241583457
N 0.677814450 2.211973940 -0.089575343
N -1.632404424 2.098401211 0.252019507
C -2.352809653 -0.576835800 0.342264512
N -0.103851090 -2.032124585 -0.000878855
H 4.837800017 0.901266098 -0.718961611
H -3.262331549 -0.937828973 2.164226230
H -3.754955729 -0.920713704 -1.138389442

