9

O 4.011598584 -0.783939598 -0.221878432
C 1.559314787 -0.300247321 -0.184679722
N 0.666556935 2.083379721 -0.056191724
N -1.812349890 1.887798472 -0.163710791
C -2.306849227 -0.741175871 -0.164353846
N -0.167253026 -2.100918439 -0.211456366
H 4.897376600 0.805617138 -0.176094526
H -2.680350213 0.603693231 1.801254968
H -4.168046440 -1.454205442 -0.622891468

