13

C -2.777414880 -1.147202898 -2.011485109
C -1.678657134 1.139143726 -0.786019582
C 0.760941007 1.624139121 -0.366670363
C 2.985045439 -0.010942535 -1.036372351
H 4.054929550 -0.501124320 0.657815251
H 4.263222723 1.002525013 -2.298711197
H 2.400224110 -1.750365380 -1.960570955
C 1.388790853 3.970727644 0.858922287
N 1.950508957 5.830282212 1.830496590
H -3.030411679 2.556184227 -0.173826325
H -3.868262385 -0.602887489 -3.678181297
H -4.090975283 -2.079565384 -0.719246411
H -1.361004395 -2.521593150 -2.587202456

