16

C -2.500556851 -1.494736685 -1.690003295
C -1.530646508 0.143637932 0.397689159
O -1.320807918 -1.896639933 2.954435939
C 1.102661260 0.934528623 0.487715768
C 2.961155824 0.108082753 -1.532538218
C 1.500826573 3.375041183 1.566827733
N 1.815360999 5.321830971 2.496393104
H -2.565620367 -0.366247291 -3.419075657
H -4.393321353 -2.190034673 -1.284143905
H -1.257436009 -3.099133856 -2.025375655
H -2.897345706 1.499004461 1.116134497
H -2.133784764 -1.192756920 4.430635280
H 0.616358515 -0.929344008 2.624035411
H 4.877149482 0.594675382 -0.956936107
H 2.616539755 1.013156442 -3.361373266
H 2.918274026 -1.933676959 -1.816632198

