14

O 3.048107660 -2.844040652 -0.229941818
C 2.827306485 -0.553921983 -1.720991345
C 1.993530387 0.413549460 0.753191694
C -1.983196004 2.618546833 0.856535090
C -0.760994657 0.023413820 1.199859304
O -1.887031885 -1.815715171 -0.473826697
H 1.405015663 -3.649188193 -0.362897449
H 1.521057830 -0.786207572 -3.300225206
H 4.698819164 0.020386517 -2.338844142
H -1.214661170 3.972426886 2.202467521
H -1.663827735 3.320733856 -1.056940640
H -4.019283288 2.474202447 1.155708404
H -1.044946870 -0.614955771 3.148139235
H -3.562198392 -2.199839630 0.097606168

