15

O 4.375650429 1.935985732 0.549581792
C 3.858473868 -0.285276816 -0.854893617
C 1.246546386 -0.798037994 -1.525314854
C -0.582998386 1.012527408 -0.521383280
C -3.354692215 0.233479253 -0.689309030
C -3.899459099 -2.010261625 0.970435044
O -5.694886359 -2.202769499 2.341903533
H 6.152351940 2.030416764 0.888168803
H 4.343684313 -2.021786441 0.209694593
H 5.004332755 -0.391387470 -2.583807186
H -2.480703464 -3.553705453 0.833468904
H -0.076073835 1.804767402 1.326533788
H -0.212233384 2.602491494 -1.835421726
H -3.759631894 -0.355254093 -2.631365639
H -4.637992528 1.765360244 -0.185812839

