19

C -4.414736787 0.146703993 1.547944097
C -2.053853449 1.561648467 0.717645606
C -0.509338393 0.093520354 -1.220485532
C 1.808674845 1.337328489 -2.098915575
C 0.735311049 -2.340488053 -0.332469759
C 2.778713444 -1.948884965 1.393419151
O 4.508133024 0.045510690 0.075137363
H -5.709698562 -0.131076034 -0.037189753
H -5.431727653 1.178143649 3.016173405
H -3.910993968 -1.712859003 2.280616635
H -0.866629705 1.962177166 2.366322385
H -2.571151161 3.401307450 -0.079160287
H -1.677286704 -0.376383272 -2.860373196
H 2.582879047 0.732038440 -3.888305614
H 2.353685069 3.225514071 -1.499561553
H 0.940764719 -3.838703535 -1.714644851
H 2.308574509 -0.996877094 3.175040979
H 3.910340595 -3.627258620 1.757368762
H 5.225345277 1.228472743 1.286939566

