12

N -2.082001581 -0.595746705 -1.560422450
C -1.265803924 1.346347717 0.251131412
C 1.609817680 1.059940089 0.361602628
O 2.576123578 1.744740686 2.734871023
C 2.075587133 -1.688864792 -0.325529608
N 0.009534065 -2.347542835 -1.433969858
H -2.065117086 0.142258110 -3.333749949
H -0.368137962 -4.094077098 -2.094487531
H -1.914809688 3.201417153 -0.356033208
H -2.057428717 0.926819730 2.110599714
H 2.518699998 2.180838415 -1.145547101
H 3.972203482 0.635215431 3.076323123

