16

C -2.798274887 2.675929293 -0.364289535
C -0.233755040 1.505301085 -0.298575726
C 0.225085316 -1.198867273 0.256960385
C -1.789065705 -3.092283013 0.816250041
C 2.727813387 -1.506846541 0.128559958
C 3.875918308 0.987678568 -0.507564053
N 1.793684234 2.753793209 -0.729083986
H -3.991942069 1.738285098 -1.764809256
H -2.648882815 4.672012511 -0.832997531
H -3.739268546 2.480574641 1.463838057
H -0.983498626 -4.952830802 1.177969926
H -3.110246201 -3.265024578 -0.762056626
H -2.895571140 -2.541002942 2.470854343
H 3.769531735 -3.241602897 0.420847337
H 4.932557612 0.944210937 -2.286843150
H 5.197124863 1.650132455 0.940953011

