14

C -0.562902453 -3.040898222 0.704650205
C -0.292759924 -0.587207600 -0.777206901
C -1.312713880 1.679799416 0.668551012
O -0.092303654 3.825947165 -0.431300716
C 3.232818014 2.485370634 -1.323899018
C 2.403321012 0.138137411 -1.349328893
H 0.514397378 -2.959876895 2.463701560
H 0.133916746 -4.639550493 -0.393976698
H -2.538392702 -3.418409755 1.171135089
H -1.330560000 -0.769189568 -2.560801546
H -3.357895207 1.889133185 0.483681789
H -0.808998708 1.525920870 2.667851092
H 0.332573449 5.067419580 0.820719300
H 3.802354823 -1.283164063 -1.841399289

