14

C -0.467420960 -2.726494906 0.352070566
C -0.148739871 -0.066062671 -0.767211912
C -1.415398575 1.861821843 0.961604940
O -1.631769154 4.264436985 -0.098057359
C 2.611476007 1.675389589 -1.636037384
C 3.415001596 -0.389695580 -0.857792438
H 0.373881426 -2.884802460 2.228726154
H 0.321222072 -4.193344090 -0.858886401
H -2.491360839 -3.083901246 0.533335382
H -1.010429869 -0.043499643 -2.633941204
H -3.337163683 1.193262894 1.338414515
H -0.391633456 1.892053228 2.770733886
H -0.028160604 4.587416427 -0.921829493
H 4.328694911 -2.088358620 -0.258773861

