15

C -2.464695764 -3.824376841 1.848328669
N -1.131789215 -1.603363850 1.002857000
C 1.251261102 -1.702145806 0.887851216
C 2.894902102 0.383988153 0.068686877
C 2.262784423 2.550089936 -1.065600461
C -0.275119085 3.375761282 -1.807376093
N -0.528702019 5.533617132 -2.828413089
H -3.592075983 -3.344016170 3.508860929
H -3.784656158 -4.420030553 0.377825378
H -1.211807079 -5.411397942 2.315591818
H 2.260839593 -3.432154149 1.443731749
H 4.887934224 0.061004422 0.432531306
H 3.744437570 3.886863129 -1.541142633
H -1.829311826 2.077382335 -1.433193729
H -2.374976008 5.864387215 -3.256260860

