15

C -2.611809015 -2.417813151 0.853662196
N -0.359886095 -0.916104001 0.533594766
C 1.978855341 -1.590557289 0.895176985
C 3.668015440 0.315443535 0.069158401
C 2.241812696 2.185028637 -0.959281937
C -0.522782452 1.580406077 -0.689256345
N -2.519514413 1.790612522 -2.269201706
H -3.935195388 -1.421087047 2.073716455
H -3.499051682 -2.618981603 -0.995034176
H -2.110821587 -4.241802035 1.664513800
H 2.439093093 -3.346766080 1.837930035
H 5.685698341 0.277803686 0.362892914
H 2.879474056 3.985026238 -1.681542689
H -0.539923251 2.820824138 1.144416157
H -2.684935426 3.593570851 -2.886462963

