11

N 2.643387813 1.077853086 1.503029672
C 1.703896675 0.144144321 -0.619582577
C 0.822239660 -2.568829443 -0.492435643
N -1.501324270 -2.897130334 0.057619961
C -2.653084583 -0.543641211 0.473875981
C -1.275165363 1.521367783 0.233124892
O 1.201436092 1.408165950 -2.646974173
H 3.080608700 2.936350145 1.214074901
H 2.070737453 -4.154290273 -0.849487281
H -4.626292893 -0.425431038 0.995813291
H -1.434194887 3.540306992 0.296915602

