16

C 3.257361437 0.694871458 -2.213760525
C 1.813587169 1.728881632 0.101307651
C 1.150987320 -0.572913145 1.547970440
O -2.197759760 0.007676086 3.332203945
C -1.487595882 -1.513906917 1.174277836
C -3.165234510 -0.831896028 -1.032479874
H 4.869560190 -0.449515238 -1.633831394
H 3.947378679 2.271177925 -3.345587931
H 2.045158725 -0.463862851 -3.414960362
H 3.100764859 2.919528918 1.186645092
H 0.228556536 2.892922481 -0.542800208
H -1.401242749 -0.717690373 4.800467627
H -1.691165250 -3.523901959 1.606915817
H -3.125557594 1.181928770 -1.455513492
H -5.114284448 -1.358102003 -0.610989028
H -2.571695326 -1.874592366 -2.710508390

