16

C 0.656031199 2.854222062 -0.723934444
C -0.178473407 0.245924819 0.074700193
C 1.437933275 -0.974880379 2.082261060
O 3.962933752 -1.363068203 1.293658827
C -1.301494728 -1.480058710 -1.885952908
C -2.947811013 -0.332855623 0.124277914
H -0.528164997 3.579807049 -2.248977876
H 0.535159591 4.175713531 0.858996515
H 2.610801451 2.828963982 -1.380882878
H 0.572712607 -2.763716955 2.683318463
H 1.554384700 0.244922301 3.744653415
H 3.924435628 -2.338175822 -0.235327462
H -0.917418003 -3.488313918 -1.759423952
H -1.480584148 -0.775073400 -3.798040332
H -4.241110641 1.155031542 -0.422116742
H -3.659335266 -1.568442259 1.592790208

