11

C -3.468127750 0.161951154 0.661537048
N -0.747880732 -0.045921441 0.645071883
C 0.473080463 1.179922693 -0.979089498
N 3.155191372 1.175187815 -1.047243813
C 4.176093385 -0.806432932 0.392899856
N 4.256978992 -1.575128563 -1.801680534
H -4.286528583 -1.714909280 0.412940496
H -4.082274341 0.853504820 2.505273739
H -4.210268855 1.419971693 -0.809168538
H -0.374741893 2.416591973 -2.401536449
H 4.613396155 -1.292959080 2.325568419

