17

C 3.264933796 -0.662326821 -2.012574612
C 1.285004826 0.921841776 1.722890992
O 0.120496289 3.149301133 0.911809220
C -2.142363308 2.399792156 -0.314310512
C -2.951447224 -0.038547937 1.008053463
C -0.404371590 -1.129079140 1.737410476
O 0.727313671 -2.748525919 -0.746990766
H 2.751031564 1.256462214 -2.504275510
H 3.294710229 -1.904185647 -3.650211782
H 4.973257645 -0.810303734 -0.904816988
H 2.817936523 1.227297617 3.034182325
H -1.766534198 2.025071465 -2.320473038
H -3.503363092 3.937244985 -0.162630832
H -4.018546672 0.369099625 2.730998142
H -4.097863731 -1.254610452 -0.193077400
H -0.307642311 -2.570611719 3.188305723
H -0.087148065 -4.216755794 -1.555854869

