16

C 6.274662932 -0.193049564 -0.087111782
C 1.776475518 -0.499256193 0.712423971
N 3.660454967 0.176575385 -0.778018519
O -0.382838047 0.074500601 -0.464772490
C -2.602466398 -0.489541282 0.885559299
C -4.925538092 -0.888024711 -0.641206959
C -4.612328837 1.477141842 0.925392931
H 6.313525339 -1.061106088 1.775639466
H 7.229606606 -1.437020065 -1.428984307
H 7.283347753 1.606035601 -0.015658951
H 3.287521031 0.980816784 -2.478695819
H -2.239965054 -1.624635382 2.546280702
H -4.734185521 -0.686497552 -2.666991474
H -6.257023718 -2.315974185 -0.035364921
H -4.220181735 3.210862231 -0.084779993
H -5.721261456 1.694899292 2.628872070

