15

C -3.236500504 -1.453361868 -0.346998390
C -1.044693212 0.254602423 -1.035768734
N -0.948281445 2.684764254 0.381376873
C 1.741732091 2.304867074 1.107145750
C 1.528349017 -0.288717497 0.049447292
N 2.930111365 -2.257986654 0.203219277
O 5.057927732 -2.443735640 1.277686767
H -5.015450128 -0.604226587 -0.953603216
H -3.312294320 -1.733305594 1.693038497
H -3.068720225 -3.292614901 -1.272427508
H -0.969137634 0.523693640 -3.092660674
H -1.250858836 4.224384712 -0.704727343
H 2.103916452 2.429559746 3.135261866
H 3.109830915 3.496675673 0.110792564
H 2.241835127 -3.861218941 -0.643432829

