12

C -2.618588011 0.108788717 0.406841991
N -1.504068285 0.007810767 -3.794286467
C 0.613743928 -0.587634754 -3.072334894
N 0.972083717 -0.826170819 -0.304692411
C 2.488965441 0.915199483 1.004996321
O 3.018977154 0.675922342 3.191694777
H -2.125223681 -0.168771875 2.382440918
H -2.993607278 2.051703716 -0.088749891
H -3.990746798 -1.214784871 -0.313539220
H 2.349367819 -0.986891176 -4.137570524
H 1.128991494 -2.612492264 0.387535774
H 2.962468239 2.584111715 -0.144492674

