20

C 4.021913692 -0.095720033 -0.474836189
C 1.552635682 -1.015251090 0.639852063
C -2.168951698 0.412308987 -0.260750288
C -0.251190447 -2.033592052 -2.127002877
C -3.247005095 -0.425240534 2.199491127
C -1.306324282 3.084453726 -0.367458171
H 3.800558562 1.762207632 -1.345943977
H 4.771600416 -1.386524561 -1.899172960
H 5.429805726 0.095217819 1.022028876
H 1.692831799 -2.892219900 1.473441928
H 1.040022205 0.254405117 2.165444687
H 1.434518521 -3.243090319 -2.422321320
H -1.815747901 -3.357118699 -2.036074641
H -0.360243215 -0.886708574 -3.825948771
H -3.493136537 -2.471820428 2.307045815
H -5.141373256 0.406201506 2.271471381
H -2.237495957 0.201757857 3.921783492
H -0.319939477 3.548861990 -2.119228770
H -0.152666060 3.762024590 1.243077473
H -3.051928119 4.197420947 -0.366439004

