13

O 3.680460061 -1.461641628 1.549625103
C 1.118841548 -1.088606554 1.260201831
C 0.285862688 1.660898754 0.513941010
O 1.080666000 1.087235482 -2.031159766
C 0.053592009 -1.423731227 -1.484521638
C -2.771877019 -1.088414652 -0.979102726
C -2.537808852 1.202807447 0.330059414
H 4.515876555 -0.675319369 0.135716918
H 0.142243503 -2.016078372 2.816094966
H 1.082705279 3.377569712 1.313964879
H 0.708350950 -2.879991520 -2.773624543
H -3.335869806 1.183962947 -1.943715524
H -4.034020317 2.182466150 1.330773823

