16

C 4.425572647 -0.588551384 1.802950298
C 3.258917267 -1.066357485 -0.789119810
C 0.784078739 0.329976587 -1.155419541
H 0.987109968 2.382354935 -0.985201553
C -1.292936196 -0.668428482 -2.804921450
H -1.909464182 -0.997139369 -4.715155242
C -1.700827816 -0.813626307 -0.408563097
C -3.294636870 -1.523242372 1.762738872
H -5.080570695 -2.346658802 1.149058250
H -3.688798742 0.133291435 2.929931218
H -2.310336868 -2.888163622 2.957905174
H 2.928424936 -3.091485510 -1.053644769
H 4.597454425 -0.495708025 -2.261949448
H 6.227687024 -1.569290481 2.019791627
H 3.167012383 -1.229000733 3.309901965
H 4.769332159 1.426450732 2.099527790

