14

O 2.901174518 0.292399950 -1.614587594
C 3.686720554 2.610063758 -1.596483111
C 0.596249864 -0.184771940 -0.307146088
C -1.813272190 -1.310561482 -1.396705801
N -2.415609976 -0.899275479 1.390968781
C -1.093147245 1.657308368 1.093864320
C 0.206677022 -1.971742922 1.910472993
H 5.471832687 2.501031739 -2.704010945
H -2.938448931 -0.141573349 -2.663321778
H -1.800766984 -3.291866513 -1.955296957
H -2.163895093 3.021803334 -0.009861781
H -0.405577783 2.447598032 2.862848132
H 0.975270494 -1.420665241 3.738752972
H 0.354037506 -3.996743088 1.570694491

