13

N 3.942967208 -0.088960728 -0.914697893
C 2.355915512 1.418832056 0.400604345
O 2.545964664 3.726559722 0.605883442
C 0.279954119 0.618521798 1.929175140
C -2.608854220 -1.809481890 -0.514939257
C -2.228660939 0.806299707 0.743396979
H 3.934100500 -1.956511654 -0.575212601
H 5.567992875 0.690135105 -1.523400939
H -2.422555249 -3.339285203 0.853234003
H -1.261332945 -2.117745316 -2.044388151
H -4.505551904 -1.886010866 -1.311605008
H -3.715693835 1.088768711 2.141827533
H -2.348974794 2.282230952 -0.702775937

