13

N 3.767953814 -0.528362190 -0.698305789
C 2.080066766 1.176911679 0.281639490
O 2.429015353 3.448899881 0.198842180
C -0.139276652 0.185910595 1.681010220
C -2.302610382 -1.400268766 -0.682636747
C -2.555820927 1.113057890 0.762526790
H 3.839953154 -2.259222233 0.079974702
H 5.434176927 0.212410886 -1.240561246
H -0.581720931 -2.389611408 0.205221838
H -1.938515641 -1.157602987 -2.683713963
H -3.778251026 -2.749587926 -0.223801720
H -4.110017788 1.144801189 2.101248385
H -2.535011074 2.755306597 -0.474663732

