23

C     2.83982  -0.31817   0.11988
C     1.69179   0.66659   0.12842
O     1.71615   1.65497   0.85951
N     0.74594   0.52435  -0.86723
N     0.30798  -0.65388  -1.16854
N     0.29038  -1.67546  -0.46946
C    -1.60371  -0.62357   0.98439
C    -2.62263  -1.47159   0.23268
C    -1.38235   0.62550   0.74309
C    -2.08550   1.42909  -0.33435
H     2.76385  -0.96703   0.97465
H     3.75910   0.27140   0.18055
H     2.84448  -0.92156  -0.80790
H    -0.14655  -0.67468  -2.10532
H    -0.28807  -2.40236  -0.88512
H    -1.01275  -1.16134   1.74823
H    -3.57934  -1.15167   0.67262
H    -2.69015  -1.26813  -0.85354
H    -2.52311  -2.54994   0.37386
H    -0.60952   1.17771   1.32447
H    -3.11119   1.53699   0.01828
H    -2.13175   0.92894  -1.32330
H    -1.65187   2.42871  -0.49114
23

C     2.83783  -0.31614   0.11687
C     1.68947   0.66858   0.12937
O     1.71696   1.65623   0.86183
N     0.73169   0.52471  -0.85244
N     0.31118  -0.65579  -1.17139
N     0.27259  -1.67007  -0.45508
C    -1.58562  -0.63534   0.96772
C    -2.62148  -1.47037   0.23215
C    -1.36435   0.62525   0.72818
C    -2.08325   1.42827  -0.33492
H     2.76265  -0.96704   0.97331
H     3.75872   0.27153   0.18035
H     2.84354  -0.92041  -0.80911
H    -0.15210  -0.67246  -2.10184
H    -0.29320  -2.40151  -0.88003
H    -1.01344  -1.16075   1.74787
H    -3.57656  -1.14833   0.67507
H    -2.69199  -1.26840  -0.85356
H    -2.52508  -2.54963   0.37447
H    -0.61096   1.17757   1.32548
H    -3.10947   1.53432   0.02146
H    -2.13293   0.92973  -1.32377
H    -1.65318   2.42931  -0.49076
23

C     2.83585  -0.31411   0.11387
C     1.68715   0.67058   0.13032
O     1.71776   1.65749   0.86414
N     0.71744   0.52507  -0.83765
N     0.31439  -0.65770  -1.17423
N     0.25480  -1.66468  -0.44069
C    -1.56752  -0.64711   0.95106
C    -2.62034  -1.46914   0.23161
C    -1.34635   0.62499   0.71327
C    -2.08101   1.42745  -0.33549
H     2.76145  -0.96704   0.97196
H     3.75835   0.27166   0.18014
H     2.84260  -0.91925  -0.81033
H    -0.15766  -0.67024  -2.09835
H    -0.29833  -2.40067  -0.87495
H    -1.01413  -1.16016   1.74750
H    -3.57378  -1.14499   0.67751
H    -2.69384  -1.26867  -0.85358
H    -2.52704  -2.54933   0.37508
H    -0.61240   1.17742   1.32649
H    -3.10775   1.53164   0.02463
H    -2.13411   0.93053  -1.32423
H    -1.65448   2.42990  -0.49038
23

C     2.83387  -0.31208   0.11086
C     1.68483   0.67258   0.13126
O     1.71857   1.65875   0.86646
N     0.70319   0.52543  -0.82286
N     0.31760  -0.65962  -1.17707
N     0.23700  -1.65929  -0.42631
C    -1.54943  -0.65888   0.93439
C    -2.61919  -1.46792   0.23108
C    -1.32835   0.62474   0.69836
C    -2.07877   1.42662  -0.33606
H     2.76025  -0.96705   0.97062
H     3.75797   0.27179   0.17994
H     2.84166  -0.91810  -0.81155
H    -0.16322  -0.66801  -2.09486
H    -0.30346  -2.39982  -0.86986
H    -1.01482  -1.15957   1.74713
H    -3.57100  -1.14166   0.67996
H    -2.69568  -1.26894  -0.85360
H    -2.52901  -2.54903   0.37569
H    -0.61384   1.17728   1.32750
H    -3.10602   1.52896   0.02780
H    -2.13529   0.93132  -1.32470
H    -1.65579   2.43050  -0.49001
23

C     2.83188  -0.31004   0.10785
C     1.68250   0.67458   0.13221
O     1.71937   1.66001   0.86878
N     0.68893   0.52580  -0.80808
N     0.32081  -0.66153  -1.17992
N     0.21921  -1.65391  -0.41193
C    -1.53134  -0.67065   0.91772
C    -2.61805  -1.46670   0.23055
C    -1.31036   0.62449   0.68345
C    -2.07653   1.42580  -0.33663
H     2.75905  -0.96706   0.96927
H     3.75759   0.27193   0.17973
H     2.84072  -0.91695  -0.81277
H    -0.16878  -0.66579  -2.09138
H    -0.30859  -2.39898  -0.86477
H    -1.01551  -1.15898   1.74677
H    -3.56822  -1.13832   0.68240
H    -2.69753  -1.26922  -0.85362
H    -2.53097  -2.54872   0.37630
H    -0.61528   1.17713   1.32851
H    -3.10430   1.52628   0.03097
H    -2.13647   0.93212  -1.32517
H    -1.65709   2.43110  -0.48963
23

C     2.82990  -0.30801   0.10484
C     1.68018   0.67658   0.13316
O     1.72017   1.66126   0.87109
N     0.67468   0.52616  -0.79329
N     0.32401  -0.66344  -1.18276
N     0.20141  -1.64852  -0.39755
C    -1.51324  -0.68242   0.90105
C    -2.61690  -1.46548   0.23002
C    -1.29236   0.62424   0.66854
C    -2.07429   1.42498  -0.33721
H     2.75785  -0.96706   0.96792
H     3.75722   0.27206   0.17953
H     2.83978  -0.91580  -0.81399
H    -0.17434  -0.66357  -2.08789
H    -0.31372  -2.39813  -0.85969
H    -1.01619  -1.15838   1.74640
H    -3.56543  -1.13498   0.68485
H    -2.69938  -1.26949  -0.85364
H    -2.53293  -2.54842   0.37691
H    -0.61672   1.17698   1.32952
H    -3.10257   1.52361   0.03415
H    -2.13765   0.93291  -1.32564
H    -1.65840   2.43169  -0.48925
23

C     2.82792  -0.30598   0.10183
C     1.67786   0.67858   0.13410
O     1.72098   1.66252   0.87341
N     0.66043   0.52652  -0.77850
N     0.32722  -0.66535  -1.18561
N     0.18362  -1.64313  -0.38317
C    -1.49515  -0.69419   0.88439
C    -2.61576  -1.46425   0.22949
C    -1.27436   0.62398   0.65363
C    -2.07205   1.42416  -0.33778
H     2.75665  -0.96707   0.96658
H     3.75684   0.27219   0.17932
H     2.83884  -0.91464  -0.81520
H    -0.17989  -0.66134  -2.08440
H    -0.31885  -2.39729  -0.85460
H    -1.01688  -1.15779   1.74604
H    -3.56265  -1.13164   0.68729
H    -2.70122  -1.26976  -0.85366
H    -2.53490  -2.54811   0.37751
H    -0.61816   1.17684   1.33053
H    -3.10085   1.52093   0.03732
H    -2.13883   0.93371  -1.32610
H    -1.65970   2.43229  -0.48887
23

C     2.82594  -0.30395   0.09882
C     1.67554   0.68058   0.13505
O     1.72178   1.66378   0.87573
N     0.64618   0.52688  -0.76372
N     0.33043  -0.66727  -1.18845
N     0.16583  -1.63774  -0.36878
C    -1.47705  -0.70596   0.86772
C    -2.61462  -1.46303   0.22896
C    -1.25636   0.62373   0.63872
C    -2.06980   1.42334  -0.33835
H     2.75545  -0.96707   0.96523
H     3.75647   0.27232   0.17912
H     2.83790  -0.91349  -0.81642
H    -0.18545  -0.65912  -2.08092
H    -0.32398  -2.39644  -0.84951
H    -1.01757  -1.15720   1.74567
H    -3.55987  -1.12830   0.68974
H    -2.70307  -1.27003  -0.85368
H    -2.53686  -2.54781   0.37812
H    -0.61960   1.17669   1.33154
H    -3.09912   1.51825   0.04049
H    -2.14001   0.93450  -1.32657
H    -1.66101   2.43289  -0.48850
23

C     2.82395  -0.30192   0.09581
C     1.67322   0.68258   0.13599
O     1.72259   1.66504   0.87804
N     0.63193   0.52725  -0.74893
N     0.33364  -0.66918  -1.19129
N     0.14803  -1.63235  -0.35440
C    -1.45896  -0.71773   0.85105
C    -2.61347  -1.46181   0.22843
C    -1.23836   0.62348   0.62381
C    -2.06756   1.42252  -0.33892
H     2.75425  -0.96708   0.96389
H     3.75609   0.27245   0.17891
H     2.83697  -0.91234  -0.81764
H    -0.19101  -0.65690  -2.07743
H    -0.32911  -2.39560  -0.84443
H    -1.01826  -1.15661   1.74530
H    -3.55709  -1.12496   0.69218
H    -2.70491  -1.27030  -0.85370
H    -2.53883  -2.54750   0.37873
H    -0.62105   1.17655   1.33255
H    -3.09740   1.51558   0.04366
H    -2.14119   0.93530  -1.32704
H    -1.66231   2.43348  -0.48812
23

C     2.82197  -0.29989   0.09281
C     1.67090   0.68458   0.13694
O     1.72339   1.66630   0.88036
N     0.61767   0.52761  -0.73414
N     0.33684  -0.67109  -1.19414
N     0.13024  -1.62697  -0.34002
C    -1.44087  -0.72950   0.83438
C    -2.61233  -1.46058   0.22789
C    -1.22036   0.62322   0.60891
C    -2.06532   1.42169  -0.33949
H     2.75305  -0.96708   0.96254
H     3.75572   0.27259   0.17871
H     2.83603  -0.91119  -0.81886
H    -0.19657  -0.65467  -2.07395
H    -0.33423  -2.39475  -0.83934
H    -1.01895  -1.15601   1.74494
H    -3.55431  -1.12162   0.69463
H    -2.70676  -1.27058  -0.85372
H    -2.54079  -2.54720   0.37934
H    -0.62249   1.17640   1.33356
H    -3.09567   1.51290   0.04684
H    -2.14237   0.93609  -1.32751
H    -1.66362   2.43408  -0.48774
23

C     2.81999  -0.29786   0.08980
C     1.66857   0.68658   0.13789
O     1.72419   1.66756   0.88268
N     0.60342   0.52797  -0.71936
N     0.34005  -0.67300  -1.19698
N     0.11245  -1.62158  -0.32564
C    -1.42277  -0.74127   0.81772
C    -2.61118  -1.45936   0.22736
C    -1.20236   0.62297   0.59400
C    -2.06308   1.42087  -0.34006
H     2.75185  -0.96709   0.96120
H     3.75534   0.27272   0.17850
H     2.83509  -0.91003  -0.82008
H    -0.20213  -0.65245  -2.07046
H    -0.33936  -2.39391  -0.83425
H    -1.01964  -1.15542   1.74457
H    -3.55153  -1.11828   0.69707
H    -2.70860  -1.27085  -0.85374
H    -2.54276  -2.54690   0.37995
H    -0.62393   1.17625   1.33457
H    -3.09395   1.51022   0.05001
H    -2.14355   0.93689  -1.32797
H    -1.66492   2.43467  -0.48737
23

C     2.81800  -0.29583   0.08679
C     1.66625   0.68858   0.13883
O     1.72500   1.66882   0.88499
N     0.58917   0.52833  -0.70457
N     0.34326  -0.67492  -1.19983
N     0.09465  -1.61619  -0.31126
C    -1.40468  -0.75304   0.80105
C    -2.61004  -1.45814   0.22683
C    -1.18436   0.62272   0.57909
C    -2.06084   1.42005  -0.34063
H     2.75065  -0.96709   0.95985
H     3.75496   0.27285   0.17830
H     2.83415  -0.90888  -0.82129
H    -0.20769  -0.65023  -2.06697
H    -0.34449  -2.39307  -0.82917
H    -1.02033  -1.15483   1.74420
H    -3.54875  -1.11494   0.69952
H    -2.71045  -1.27112  -0.85376
H    -2.54472  -2.54659   0.38055
H    -0.62537   1.17611   1.33558
H    -3.09222   1.50755   0.05318
H    -2.14473   0.93768  -1.32844
H    -1.66623   2.43527  -0.48699
23

C     2.81602  -0.29379   0.08378
C     1.66393   0.69058   0.13978
O     1.72580   1.67008   0.88731
N     0.57492   0.52870  -0.68978
N     0.34647  -0.67683  -1.20267
N     0.07686  -1.61080  -0.29687
C    -1.38659  -0.76481   0.78438
C    -2.60889  -1.45691   0.22630
C    -1.16636   0.62247   0.56418
C    -2.05859   1.41923  -0.34120
H     2.74945  -0.96710   0.95851
H     3.75459   0.27298   0.17809
H     2.83321  -0.90773  -0.82251
H    -0.21324  -0.64800  -2.06349
H    -0.34962  -2.39222  -0.82408
H    -1.02102  -1.15424   1.74384
H    -3.54597  -1.11160   0.70196
H    -2.71230  -1.27139  -0.85378
H    -2.54668  -2.54629   0.38116
H    -0.62681   1.17596   1.33659
H    -3.09050   1.50487   0.05636
H    -2.14591   0.93848  -1.32891
H    -1.66753   2.43587  -0.48661
23

C     2.81404  -0.29176   0.08077
C     1.66161   0.69258   0.14073
O     1.72661   1.67134   0.88963
N     0.56066   0.52906  -0.67499
N     0.34967  -0.67874  -1.20551
N     0.05906  -1.60541  -0.28249
C    -1.36849  -0.77658   0.76771
C    -2.60775  -1.45569   0.22577
C    -1.14836   0.62221   0.54927
C    -2.05635   1.41841  -0.34178
H     2.74825  -0.96710   0.95716
H     3.75421   0.27311   0.17789
H     2.83227  -0.90658  -0.82373
H    -0.21880  -0.64578  -2.06000
H    -0.35475  -2.39138  -0.81899
H    -1.02171  -1.15364   1.74347
H    -3.54319  -1.10826   0.70440
H    -2.71414  -1.27167  -0.85380
H    -2.54865  -2.54598   0.38177
H    -0.62825   1.17582   1.33760
H    -3.08877   1.50219   0.05953
H    -2.14709   0.93927  -1.32938
H    -1.66884   2.43646  -0.48623
23

C     2.81205  -0.28973   0.07776
C     1.65929   0.69457   0.14167
O     1.72741   1.67260   0.89194
N     0.54641   0.52942  -0.66021
N     0.35288  -0.68066  -1.20836
N     0.04127  -1.60003  -0.26811
C    -1.35040  -0.78835   0.75105
C    -2.60660  -1.45447   0.22524
C    -1.13036   0.62196   0.53436
C    -2.05411   1.41759  -0.34235
H     2.74705  -0.96711   0.95582
H     3.75384   0.27324   0.17768
H     2.83133  -0.90542  -0.82495
H    -0.22436  -0.64356  -2.05651
H    -0.35988  -2.39053  -0.81391
H    -1.02239  -1.15305   1.74311
H    -3.54041  -1.10492   0.70685
H    -2.71599  -1.27194  -0.85382
H    -2.55061  -2.54568   0.38238
H    -0.62969   1.17567   1.33861
H    -3.08705   1.49952   0.06270
H    -2.14827   0.94007  -1.32984
H    -1.67014   2.43706  -0.48586
23

C     2.81007  -0.28770   0.07476
C     1.65697   0.69657   0.14262
O     1.72822   1.67386   0.89426
N     0.53216   0.52978  -0.64542
N     0.35609  -0.68257  -1.21120
N     0.02348  -1.59464  -0.25373
C    -1.33230  -0.80012   0.73438
C    -2.60546  -1.45325   0.22471
C    -1.11236   0.62171   0.51945
C    -2.05187   1.41676  -0.34292
H     2.74585  -0.96712   0.95447
H     3.75346   0.27338   0.17748
H     2.83039  -0.90427  -0.82617
H    -0.22992  -0.64133  -2.05303
H    -0.36501  -2.38969  -0.80882
H    -1.02308  -1.15246   1.74274
H    -3.53763  -1.10158   0.70929
H    -2.71783  -1.27221  -0.85384
H    -2.55258  -2.54537   0.38299
H    -0.63113   1.17552   1.33962
H    -3.08532   1.49684   0.06587
H    -2.14945   0.94086  -1.33031
H    -1.67145   2.43765  -0.48548
23

C     2.80809  -0.28567   0.07175
C     1.65465   0.69857   0.14356
O     1.72902   1.67512   0.89658
N     0.51791   0.53014  -0.63063
N     0.35930  -0.68448  -1.21405
N     0.00568  -1.58925  -0.23935
C    -1.31421  -0.81189   0.71771
C    -2.60432  -1.45202   0.22417
C    -1.09436   0.62145   0.50454
C    -2.04963   1.41594  -0.34349
H     2.74465  -0.96712   0.95313
H     3.75309   0.27351   0.17727
H     2.82945  -0.90312  -0.82738
H    -0.23548  -0.63911  -2.04954
H    -0.37014  -2.38884  -0.80373
H    -1.02377  -1.15187   1.74237
H    -3.53485  -1.09824   0.71174
H    -2.71968  -1.27248  -0.85386
H    -2.55454  -2.54507   0.38359
H    -0.63257   1.17538   1.34063
H    -3.08360   1.49416   0.06905
H    -2.15063   0.94166  -1.33078
H    -1.67275   2.43825  -0.48510
23

C     2.80610  -0.28364   0.06874
C     1.65232   0.70057   0.14451
O     1.72982   1.67638   0.89889
N     0.50365   0.53051  -0.61585
N     0.36250  -0.68639  -1.21689
N    -0.01211  -1.58386  -0.22496
C    -1.29612  -0.82366   0.70105
C    -2.60317  -1.45080   0.22364
C    -1.07636   0.62120   0.48963
C    -2.04739   1.41512  -0.34406
H     2.74345  -0.96713   0.95178
H     3.75271   0.27364   0.17707
H     2.82851  -0.90197  -0.82860
H    -0.24103  -0.63689  -2.04605
H    -0.37527  -2.38800  -0.79865
H    -1.02446  -1.15127   1.74201
H    -3.53207  -1.09491   0.71418
H    -2.72152  -1.27275  -0.85388
H    -2.55650  -2.54476   0.38420
H    -0.63401   1.17523   1.34164
H    -3.08188   1.49149   0.07222
H    -2.15181   0.94245  -1.33124
H    -1.67406   2.43885  -0.48473
23

C     2.80412  -0.28161   0.06573
C     1.65000   0.70257   0.14546
O     1.73063   1.67764   0.90121
N     0.48940   0.53087  -0.60106
N     0.36571  -0.68831  -1.21973
N    -0.02990  -1.57848  -0.21058
C    -1.27802  -0.83543   0.68438
C    -2.60203  -1.44958   0.22311
C    -1.05836   0.62095   0.47473
C    -2.04514   1.41430  -0.34463
H     2.74225  -0.96713   0.95043
H     3.75233   0.27377   0.17686
H     2.82757  -0.90081  -0.82982
H    -0.24659  -0.63466  -2.04257
H    -0.38040  -2.38715  -0.79356
H    -1.02515  -1.15068   1.74164
H    -3.52929  -1.09157   0.71663
H    -2.72337  -1.27303  -0.85390
H    -2.55847  -2.54446   0.38481
H    -0.63545   1.17509   1.34265
H    -3.08015   1.48881   0.07539
H    -2.15299   0.94325  -1.33171
H    -1.67536   2.43944  -0.48435
23

C     2.80214  -0.27958   0.06272
C     1.64768   0.70457   0.14640
O     1.73143   1.67890   0.90352
N     0.47515   0.53123  -0.58627
N     0.36892  -0.69022  -1.22258
N    -0.04770  -1.57309  -0.19620
C    -1.25993  -0.84720   0.66771
C    -2.60088  -1.44835   0.22258
C    -1.04036   0.62070   0.45982
C    -2.04290   1.41348  -0.34520
H     2.74105  -0.96714   0.94909
H     3.75196   0.27390   0.17666
H     2.82663  -0.89966  -0.83104
H    -0.25215  -0.63244  -2.03908
H    -0.38553  -2.38631  -0.78847
H    -1.02584  -1.15009   1.74128
H    -3.52651  -1.08823   0.71907
H    -2.72522  -1.27330  -0.85392
H    -2.56043  -2.54416   0.38542
H    -0.63689   1.17494   1.34366
H    -3.07843   1.48613   0.07856
H    -2.15417   0.94404  -1.33218
H    -1.67666   2.44004  -0.48397
23

C     2.80015  -0.27755   0.05971
C     1.64536   0.70657   0.14735
O     1.73224   1.68016   0.90584
N     0.46090   0.53159  -0.57148
N     0.37213  -0.69213  -1.22542
N    -0.06549  -1.56770  -0.18182
C    -1.24183  -0.85897   0.65104
C    -2.59974  -1.44713   0.22205
C    -1.02237   0.62044   0.44491
C    -2.04066   1.41266  -0.34578
H     2.73985  -0.96714   0.94774
H     3.75158   0.27403   0.17645
H     2.82569  -0.89851  -0.83226
H    -0.25771  -0.63022  -2.03560
H    -0.39066  -2.38546  -0.78339
H    -1.02653  -1.14950   1.74091
H    -3.52373  -1.08489   0.72152
H    -2.72706  -1.27357  -0.85394
H    -2.56240  -2.54385   0.38603
H    -0.63834   1.17479   1.34467
H    -3.07670   1.48346   0.08174
H    -2.15535   0.94484  -1.33265
H    -1.67797   2.44064  -0.48360
23

C     2.80214  -0.27958   0.06272
C     1.64768   0.70457   0.14640
O     1.73143   1.67890   0.90352
N     0.47515   0.53123  -0.58627
N     0.36892  -0.69022  -1.22258
N    -0.04770  -1.57309  -0.19620
C    -1.25993  -0.84720   0.66771
C    -2.60088  -1.44835   0.22258
C    -1.04036   0.62070   0.45982
C    -2.04290   1.41348  -0.34520
H     2.74105  -0.96714   0.94909
H     3.75196   0.27390   0.17666
H     2.82663  -0.89966  -0.83104
H    -0.25215  -0.63244  -2.03908
H    -0.38553  -2.38631  -0.78847
H    -1.02584  -1.15009   1.74128
H    -3.52651  -1.08823   0.71907
H    -2.72522  -1.27330  -0.85392
H    -2.56043  -2.54416   0.38542
H    -0.63689   1.17494   1.34366
H    -3.07843   1.48613   0.07856
H    -2.15417   0.94404  -1.33218
H    -1.67666   2.44004  -0.48397
23

C     2.80412  -0.28161   0.06573
C     1.65000   0.70257   0.14546
O     1.73063   1.67764   0.90121
N     0.48940   0.53087  -0.60106
N     0.36571  -0.68831  -1.21973
N    -0.02990  -1.57848  -0.21058
C    -1.27802  -0.83543   0.68438
C    -2.60203  -1.44958   0.22311
C    -1.05836   0.62095   0.47473
C    -2.04514   1.41430  -0.34463
H     2.74225  -0.96713   0.95043
H     3.75233   0.27377   0.17686
H     2.82757  -0.90081  -0.82982
H    -0.24659  -0.63466  -2.04257
H    -0.38040  -2.38715  -0.79356
H    -1.02515  -1.15068   1.74164
H    -3.52929  -1.09157   0.71663
H    -2.72337  -1.27303  -0.85390
H    -2.55847  -2.54446   0.38481
H    -0.63545   1.17509   1.34265
H    -3.08015   1.48881   0.07539
H    -2.15299   0.94325  -1.33171
H    -1.67536   2.43944  -0.48435
23

C     2.80610  -0.28364   0.06874
C     1.65232   0.70057   0.14451
O     1.72982   1.67638   0.89889
N     0.50365   0.53051  -0.61585
N     0.36250  -0.68639  -1.21689
N    -0.01211  -1.58386  -0.22496
C    -1.29612  -0.82366   0.70105
C    -2.60317  -1.45080   0.22364
C    -1.07636   0.62120   0.48963
C    -2.04739   1.41512  -0.34406
H     2.74345  -0.96713   0.95178
H     3.75271   0.27364   0.17707
H     2.82851  -0.90197  -0.82860
H    -0.24103  -0.63689  -2.04605
H    -0.37527  -2.38800  -0.79865
H    -1.02446  -1.15127   1.74201
H    -3.53207  -1.09491   0.71418
H    -2.72152  -1.27275  -0.85388
H    -2.55650  -2.54476   0.38420
H    -0.63401   1.17523   1.34164
H    -3.08188   1.49149   0.07222
H    -2.15181   0.94245  -1.33124
H    -1.67406   2.43885  -0.48473
23

C     2.80809  -0.28567   0.07175
C     1.65465   0.69857   0.14356
O     1.72902   1.67512   0.89658
N     0.51791   0.53014  -0.63063
N     0.35930  -0.68448  -1.21405
N     0.00568  -1.58925  -0.23935
C    -1.31421  -0.81189   0.71771
C    -2.60432  -1.45202   0.22417
C    -1.09436   0.62145   0.50454
C    -2.04963   1.41594  -0.34349
H     2.74465  -0.96712   0.95313
H     3.75309   0.27351   0.17727
H     2.82945  -0.90312  -0.82738
H    -0.23548  -0.63911  -2.04954
H    -0.37014  -2.38884  -0.80373
H    -1.02377  -1.15187   1.74237
H    -3.53485  -1.09824   0.71174
H    -2.71968  -1.27248  -0.85386
H    -2.55454  -2.54507   0.38359
H    -0.63257   1.17538   1.34063
H    -3.08360   1.49416   0.06905
H    -2.15063   0.94166  -1.33078
H    -1.67275   2.43825  -0.48510
23

C     2.81007  -0.28770   0.07476
C     1.65697   0.69657   0.14262
O     1.72822   1.67386   0.89426
N     0.53216   0.52978  -0.64542
N     0.35609  -0.68257  -1.21120
N     0.02348  -1.59464  -0.25373
C    -1.33230  -0.80012   0.73438
C    -2.60546  -1.45325   0.22471
C    -1.11236   0.62171   0.51945
C    -2.05187   1.41676  -0.34292
H     2.74585  -0.96712   0.95447
H     3.75346   0.27338   0.17748
H     2.83039  -0.90427  -0.82617
H    -0.22992  -0.64133  -2.05303
H    -0.36501  -2.38969  -0.80882
H    -1.02308  -1.15246   1.74274
H    -3.53763  -1.10158   0.70929
H    -2.71783  -1.27221  -0.85384
H    -2.55258  -2.54537   0.38299
H    -0.63113   1.17552   1.33962
H    -3.08532   1.49684   0.06587
H    -2.14945   0.94086  -1.33031
H    -1.67145   2.43765  -0.48548
23

C     2.81205  -0.28973   0.07776
C     1.65929   0.69457   0.14167
O     1.72741   1.67260   0.89194
N     0.54641   0.52942  -0.66021
N     0.35288  -0.68066  -1.20836
N     0.04127  -1.60003  -0.26811
C    -1.35040  -0.78835   0.75105
C    -2.60660  -1.45447   0.22524
C    -1.13036   0.62196   0.53436
C    -2.05411   1.41759  -0.34235
H     2.74705  -0.96711   0.95582
H     3.75384   0.27324   0.17768
H     2.83133  -0.90542  -0.82495
H    -0.22436  -0.64356  -2.05651
H    -0.35988  -2.39053  -0.81391
H    -1.02239  -1.15305   1.74311
H    -3.54041  -1.10492   0.70685
H    -2.71599  -1.27194  -0.85382
H    -2.55061  -2.54568   0.38238
H    -0.62969   1.17567   1.33861
H    -3.08705   1.49952   0.06270
H    -2.14827   0.94007  -1.32984
H    -1.67014   2.43706  -0.48586
23

C     2.81404  -0.29176   0.08077
C     1.66161   0.69258   0.14073
O     1.72661   1.67134   0.88963
N     0.56066   0.52906  -0.67499
N     0.34967  -0.67874  -1.20551
N     0.05906  -1.60541  -0.28249
C    -1.36849  -0.77658   0.76771
C    -2.60775  -1.45569   0.22577
C    -1.14836   0.62221   0.54927
C    -2.05635   1.41841  -0.34178
H     2.74825  -0.96710   0.95716
H     3.75421   0.27311   0.17789
H     2.83227  -0.90658  -0.82373
H    -0.21880  -0.64578  -2.06000
H    -0.35475  -2.39138  -0.81899
H    -1.02171  -1.15364   1.74347
H    -3.54319  -1.10826   0.70440
H    -2.71414  -1.27167  -0.85380
H    -2.54865  -2.54598   0.38177
H    -0.62825   1.17582   1.33760
H    -3.08877   1.50219   0.05953
H    -2.14709   0.93927  -1.32938
H    -1.66884   2.43646  -0.48623
23

C     2.81602  -0.29379   0.08378
C     1.66393   0.69058   0.13978
O     1.72580   1.67008   0.88731
N     0.57492   0.52870  -0.68978
N     0.34647  -0.67683  -1.20267
N     0.07686  -1.61080  -0.29687
C    -1.38659  -0.76481   0.78438
C    -2.60889  -1.45691   0.22630
C    -1.16636   0.62247   0.56418
C    -2.05859   1.41923  -0.34120
H     2.74945  -0.96710   0.95851
H     3.75459   0.27298   0.17809
H     2.83321  -0.90773  -0.82251
H    -0.21324  -0.64800  -2.06349
H    -0.34962  -2.39222  -0.82408
H    -1.02102  -1.15424   1.74384
H    -3.54597  -1.11160   0.70196
H    -2.71230  -1.27139  -0.85378
H    -2.54668  -2.54629   0.38116
H    -0.62681   1.17596   1.33659
H    -3.09050   1.50487   0.05636
H    -2.14591   0.93848  -1.32891
H    -1.66753   2.43587  -0.48661
23

C     2.81800  -0.29583   0.08679
C     1.66625   0.68858   0.13883
O     1.72500   1.66882   0.88499
N     0.58917   0.52833  -0.70457
N     0.34326  -0.67492  -1.19983
N     0.09465  -1.61619  -0.31126
C    -1.40468  -0.75304   0.80105
C    -2.61004  -1.45814   0.22683
C    -1.18436   0.62272   0.57909
C    -2.06084   1.42005  -0.34063
H     2.75065  -0.96709   0.95985
H     3.75496   0.27285   0.17830
H     2.83415  -0.90888  -0.82129
H    -0.20769  -0.65023  -2.06697
H    -0.34449  -2.39307  -0.82917
H    -1.02033  -1.15483   1.74420
H    -3.54875  -1.11494   0.69952
H    -2.71045  -1.27112  -0.85376
H    -2.54472  -2.54659   0.38055
H    -0.62537   1.17611   1.33558
H    -3.09222   1.50755   0.05318
H    -2.14473   0.93768  -1.32844
H    -1.66623   2.43527  -0.48699
23

C     2.81999  -0.29786   0.08980
C     1.66857   0.68658   0.13789
O     1.72419   1.66756   0.88268
N     0.60342   0.52797  -0.71936
N     0.34005  -0.67300  -1.19698
N     0.11245  -1.62158  -0.32564
C    -1.42277  -0.74127   0.81772
C    -2.61118  -1.45936   0.22736
C    -1.20236   0.62297   0.59400
C    -2.06308   1.42087  -0.34006
H     2.75185  -0.96709   0.96120
H     3.75534   0.27272   0.17850
H     2.83509  -0.91003  -0.82008
H    -0.20213  -0.65245  -2.07046
H    -0.33936  -2.39391  -0.83425
H    -1.01964  -1.15542   1.74457
H    -3.55153  -1.11828   0.69707
H    -2.70860  -1.27085  -0.85374
H    -2.54276  -2.54690   0.37995
H    -0.62393   1.17625   1.33457
H    -3.09395   1.51022   0.05001
H    -2.14355   0.93689  -1.32797
H    -1.66492   2.43467  -0.48737
23

C     2.82197  -0.29989   0.09281
C     1.67090   0.68458   0.13694
O     1.72339   1.66630   0.88036
N     0.61767   0.52761  -0.73414
N     0.33684  -0.67109  -1.19414
N     0.13024  -1.62697  -0.34002
C    -1.44087  -0.72950   0.83438
C    -2.61233  -1.46058   0.22789
C    -1.22036   0.62322   0.60891
C    -2.06532   1.42169  -0.33949
H     2.75305  -0.96708   0.96254
H     3.75572   0.27259   0.17871
H     2.83603  -0.91119  -0.81886
H    -0.19657  -0.65467  -2.07395
H    -0.33423  -2.39475  -0.83934
H    -1.01895  -1.15601   1.74494
H    -3.55431  -1.12162   0.69463
H    -2.70676  -1.27058  -0.85372
H    -2.54079  -2.54720   0.37934
H    -0.62249   1.17640   1.33356
H    -3.09567   1.51290   0.04684
H    -2.14237   0.93609  -1.32751
H    -1.66362   2.43408  -0.48774
23

C     2.82395  -0.30192   0.09581
C     1.67322   0.68258   0.13599
O     1.72259   1.66504   0.87804
N     0.63193   0.52725  -0.74893
N     0.33364  -0.66918  -1.19129
N     0.14803  -1.63235  -0.35440
C    -1.45896  -0.71773   0.85105
C    -2.61347  -1.46181   0.22843
C    -1.23836   0.62348   0.62381
C    -2.06756   1.42252  -0.33892
H     2.75425  -0.96708   0.96389
H     3.75609   0.27245   0.17891
H     2.83697  -0.91234  -0.81764
H    -0.19101  -0.65690  -2.07743
H    -0.32911  -2.39560  -0.84443
H    -1.01826  -1.15661   1.74530
H    -3.55709  -1.12496   0.69218
H    -2.70491  -1.27030  -0.85370
H    -2.53883  -2.54750   0.37873
H    -0.62105   1.17655   1.33255
H    -3.09740   1.51558   0.04366
H    -2.14119   0.93530  -1.32704
H    -1.66231   2.43348  -0.48812
23

C     2.82594  -0.30395   0.09882
C     1.67554   0.68058   0.13505
O     1.72178   1.66378   0.87573
N     0.64618   0.52688  -0.76372
N     0.33043  -0.66727  -1.18845
N     0.16583  -1.63774  -0.36878
C    -1.47705  -0.70596   0.86772
C    -2.61462  -1.46303   0.22896
C    -1.25636   0.62373   0.63872
C    -2.06980   1.42334  -0.33835
H     2.75545  -0.96707   0.96523
H     3.75647   0.27232   0.17912
H     2.83790  -0.91349  -0.81642
H    -0.18545  -0.65912  -2.08092
H    -0.32398  -2.39644  -0.84951
H    -1.01757  -1.15720   1.74567
H    -3.55987  -1.12830   0.68974
H    -2.70307  -1.27003  -0.85368
H    -2.53686  -2.54781   0.37812
H    -0.61960   1.17669   1.33154
H    -3.09912   1.51825   0.04049
H    -2.14001   0.93450  -1.32657
H    -1.66101   2.43289  -0.48850
23

C     2.82792  -0.30598   0.10183
C     1.67786   0.67858   0.13410
O     1.72098   1.66252   0.87341
N     0.66043   0.52652  -0.77850
N     0.32722  -0.66535  -1.18561
N     0.18362  -1.64313  -0.38317
C    -1.49515  -0.69419   0.88439
C    -2.61576  -1.46425   0.22949
C    -1.27436   0.62398   0.65363
C    -2.07205   1.42416  -0.33778
H     2.75665  -0.96707   0.96658
H     3.75684   0.27219   0.17932
H     2.83884  -0.91464  -0.81520
H    -0.17989  -0.66134  -2.08440
H    -0.31885  -2.39729  -0.85460
H    -1.01688  -1.15779   1.74604
H    -3.56265  -1.13164   0.68729
H    -2.70122  -1.26976  -0.85366
H    -2.53490  -2.54811   0.37751
H    -0.61816   1.17684   1.33053
H    -3.10085   1.52093   0.03732
H    -2.13883   0.93371  -1.32610
H    -1.65970   2.43229  -0.48887
23

C     2.82990  -0.30801   0.10484
C     1.68018   0.67658   0.13316
O     1.72017   1.66126   0.87109
N     0.67468   0.52616  -0.79329
N     0.32401  -0.66344  -1.18276
N     0.20141  -1.64852  -0.39755
C    -1.51324  -0.68242   0.90105
C    -2.61690  -1.46548   0.23002
C    -1.29236   0.62424   0.66854
C    -2.07429   1.42498  -0.33721
H     2.75785  -0.96706   0.96792
H     3.75722   0.27206   0.17953
H     2.83978  -0.91580  -0.81399
H    -0.17434  -0.66357  -2.08789
H    -0.31372  -2.39813  -0.85969
H    -1.01619  -1.15838   1.74640
H    -3.56543  -1.13498   0.68485
H    -2.69938  -1.26949  -0.85364
H    -2.53293  -2.54842   0.37691
H    -0.61672   1.17698   1.32952
H    -3.10257   1.52361   0.03415
H    -2.13765   0.93291  -1.32564
H    -1.65840   2.43169  -0.48925
23

C     2.83188  -0.31004   0.10785
C     1.68250   0.67458   0.13221
O     1.71937   1.66001   0.86878
N     0.68893   0.52580  -0.80808
N     0.32081  -0.66153  -1.17992
N     0.21921  -1.65391  -0.41193
C    -1.53134  -0.67065   0.91772
C    -2.61805  -1.46670   0.23055
C    -1.31036   0.62449   0.68345
C    -2.07653   1.42580  -0.33663
H     2.75905  -0.96706   0.96927
H     3.75759   0.27193   0.17973
H     2.84072  -0.91695  -0.81277
H    -0.16878  -0.66579  -2.09138
H    -0.30859  -2.39898  -0.86477
H    -1.01551  -1.15898   1.74677
H    -3.56822  -1.13832   0.68240
H    -2.69753  -1.26922  -0.85362
H    -2.53097  -2.54872   0.37630
H    -0.61528   1.17713   1.32851
H    -3.10430   1.52628   0.03097
H    -2.13647   0.93212  -1.32517
H    -1.65709   2.43110  -0.48963
23

C     2.83387  -0.31208   0.11086
C     1.68483   0.67258   0.13126
O     1.71857   1.65875   0.86646
N     0.70319   0.52543  -0.82286
N     0.31760  -0.65962  -1.17707
N     0.23700  -1.65929  -0.42631
C    -1.54943  -0.65888   0.93439
C    -2.61919  -1.46792   0.23108
C    -1.32835   0.62474   0.69836
C    -2.07877   1.42662  -0.33606
H     2.76025  -0.96705   0.97062
H     3.75797   0.27179   0.17994
H     2.84166  -0.91810  -0.81155
H    -0.16322  -0.66801  -2.09486
H    -0.30346  -2.39982  -0.86986
H    -1.01482  -1.15957   1.74713
H    -3.57100  -1.14166   0.67996
H    -2.69568  -1.26894  -0.85360
H    -2.52901  -2.54903   0.37569
H    -0.61384   1.17728   1.32750
H    -3.10602   1.52896   0.02780
H    -2.13529   0.93132  -1.32470
H    -1.65579   2.43050  -0.49001
23

C     2.83585  -0.31411   0.11387
C     1.68715   0.67058   0.13032
O     1.71776   1.65749   0.86414
N     0.71744   0.52507  -0.83765
N     0.31439  -0.65770  -1.17423
N     0.25480  -1.66468  -0.44069
C    -1.56752  -0.64711   0.95106
C    -2.62034  -1.46914   0.23161
C    -1.34635   0.62499   0.71327
C    -2.08101   1.42745  -0.33549
H     2.76145  -0.96704   0.97196
H     3.75835   0.27166   0.18014
H     2.84260  -0.91925  -0.81033
H    -0.15766  -0.67024  -2.09835
H    -0.29833  -2.40067  -0.87495
H    -1.01413  -1.16016   1.74750
H    -3.57378  -1.14499   0.67751
H    -2.69384  -1.26867  -0.85358
H    -2.52704  -2.54933   0.37508
H    -0.61240   1.17742   1.32649
H    -3.10775   1.53164   0.02463
H    -2.13411   0.93053  -1.32423
H    -1.65448   2.42990  -0.49038
23

C     2.83783  -0.31614   0.11687
C     1.68947   0.66858   0.12937
O     1.71696   1.65623   0.86183
N     0.73169   0.52471  -0.85244
N     0.31118  -0.65579  -1.17139
N     0.27259  -1.67007  -0.45508
C    -1.58562  -0.63534   0.96772
C    -2.62148  -1.47037   0.23215
C    -1.36435   0.62525   0.72818
C    -2.08325   1.42827  -0.33492
H     2.76265  -0.96704   0.97331
H     3.75872   0.27153   0.18035
H     2.84354  -0.92041  -0.80911
H    -0.15210  -0.67246  -2.10184
H    -0.29320  -2.40151  -0.88003
H    -1.01344  -1.16075   1.74787
H    -3.57656  -1.14833   0.67507
H    -2.69199  -1.26840  -0.85356
H    -2.52508  -2.54963   0.37447
H    -0.61096   1.17757   1.32548
H    -3.10947   1.53432   0.02146
H    -2.13293   0.92973  -1.32377
H    -1.65318   2.42931  -0.49076
