11

N -3.387646752 -0.439458361 -0.566617995
C -0.870540096 -0.177098046 -0.136946033
C -0.085033707 2.497433020 0.561340103
O 1.916449951 2.963974294 1.486015202
C 3.241733553 -1.875390303 0.171229993
O 4.754977951 -1.547212773 -1.483901940
N 0.648482914 -2.015221230 -0.212497756
H -4.022932349 -2.105566655 -1.217077714
H -4.486078200 1.084517999 -0.810837185
H -1.503674466 3.994131619 0.188915788
H 3.803088112 -2.327690468 2.129133184

