10

O 3.761194074 0.144773128 0.740411533
C 1.628848602 0.386105138 -0.757916879
N 0.113464240 -1.924631124 -0.810074038
C -2.099561975 -1.225556934 -0.205127409
C -2.127501613 1.521474042 0.384812622
N 0.068028950 2.456599742 0.145152339
H 4.455343562 -1.502932049 0.427283687
H -3.696457065 -2.508915393 -0.122621513
H -3.752915638 2.626286075 0.967587019
H 2.094542012 0.820729901 -2.740561649

