10

O 4.147173186 0.026310865 0.316090105
C 1.656956086 0.061742776 -0.213059081
N 0.223310864 -2.035400690 -0.354404812
C -2.130785031 -1.172023808 -0.118516101
C -2.151529802 1.441207339 0.175086243
N 0.248457544 2.300391920 0.196512431
H 4.707284457 -1.687099447 0.079951156
H -3.737695292 -2.428282215 -0.239588946
H -3.730228833 2.729337224 0.220385190
H 1.212040063 1.557750434 -2.033510453

