13

C 3.264930943 -1.303013255 -2.946282224
O 1.764067142 -0.737201021 -0.819388687
C -0.413436757 0.517069602 -1.338246480
C -1.651001596 1.838056250 0.389289969
C -4.123798351 3.115809933 -0.101140826
H -5.612765230 2.370993807 1.122068256
H -4.003844055 5.145970865 0.261189536
H -4.727151053 2.855883811 -2.056786040
H -0.836415573 1.975459994 2.267409452
H -1.114932612 0.309904615 -3.264668611
H 4.037761275 0.416794517 -3.799230841
H 4.814532632 -2.487611471 -2.294051076
H 2.181715191 -2.339116792 -4.375234859

