10

O -2.829646022 -1.528542544 0.442612125
C -1.125459086 -0.290142880 -0.792796518
C -0.132183451 2.428494526 0.145018169
O 2.383835932 1.242018414 0.776583631
C 1.499525893 -0.931404376 0.173874192
O 2.533043964 -2.981216930 0.926550369
H 1.336379318 -4.331609492 0.567196270
H -1.181312568 -0.260516963 -2.902361040
H -1.000443630 3.005442217 1.911720156
H 0.165673083 3.958133867 -1.193956234

