10

O -2.453523495 -2.039712723 0.265156298
C -0.993208190 -0.393607275 -0.869196784
C -0.156011235 2.357659541 0.201227203
O 2.530887238 1.377475626 0.445015989
C 1.611585273 -0.844592078 0.027510538
O 2.248836657 -2.917268484 1.017003981
H 0.485186200 -3.747587782 0.905119023
H -1.144255077 -0.164759665 -2.946217936
H -0.837383528 2.722790797 2.101649650
H -0.179556504 3.987934848 -1.045857699

