13

C 1.273367572 2.076808992 2.173730418
O 1.106637054 -1.077867902 2.440201587
C 0.352858298 -2.129242864 0.018778190
C -2.059525557 -1.091200770 -1.087496434
O -2.740998649 1.130290416 0.187106338
C -0.151702810 2.146783774 -0.220789497
C 0.452488288 -0.155002952 -1.951366629
H 3.295003496 2.302645966 1.763297343
H -0.291086912 -1.157751406 3.610263727
H 0.983146381 -4.047721209 -0.276436413
H -3.514080220 -2.231458622 -1.960870288
H -0.194005274 3.997587682 -1.118088436
H 1.494990475 -0.226793553 -3.702101318

