13

C 1.178780789 1.178556459 2.261470289
O 1.091839478 -1.517262844 2.255075550
C 0.380950513 -2.270871034 -0.179855496
C -2.066392859 -1.243704125 -1.225618388
O -2.807412280 0.910759458 0.185904226
C -0.267080266 1.912463366 -0.091835474
C 0.423347161 -0.141656497 -2.027032774
H 3.142652226 1.842641879 2.196909213
H 0.264557821 1.868653335 3.975028056
H 0.993238010 -4.151583675 -0.691781642
H -3.498926280 -2.304402599 -2.227007524
H -0.247923961 3.897567086 -0.627822444
H 1.412369627 0.018839171 -3.803433611

