13

C 1.206617569 1.904842271 2.224076143
O 1.201937814 -1.363069318 2.384621945
C 0.333190236 -2.208698761 -0.018550931
C -2.072163459 -1.152753931 -1.100654673
O -2.755133649 1.074830583 0.178521898
C -0.180899211 2.059998045 -0.192365691
C 0.446519758 -0.193569881 -1.962719820
H 3.214398778 2.350079188 2.072695757
H -0.010670093 -0.202518906 3.503103179
H 0.892141763 -4.131118754 -0.423542880
H -3.526659863 -2.263450041 -2.011219886
H -0.189540135 3.946095045 -1.017562697
H 1.461816617 -0.202749245 -3.730743122

