12

C -1.762115622 1.061894727 -2.605152492
C -2.859568532 -1.165942443 -1.234023190
C -5.632147112 -1.007512661 -0.654874705
H -6.038549477 0.636036347 0.531086476
H -6.729104365 -0.777634829 -2.391654939
H -6.306781114 -2.692344645 0.318448294
C -1.470165030 -3.148553671 -0.579144441
H -2.286927451 -4.749433683 0.403903164
H 0.531354477 -3.241820726 -1.006221978
H -2.715110553 1.341774070 -4.418123649
H -2.028535900 2.797926497 -1.515354239
H 0.251928782 0.821319193 -2.961731586

