21

C -2.667008841 1.575687053 -3.076885052
C -1.789349580 -0.115126311 -0.962976257
C -3.810298986 -1.066808374 0.803996244
C 0.405804040 -1.699853058 -1.349592642
C 2.510151576 -0.800480352 0.909841581
C 5.138187745 -0.714625804 0.520636782
C 1.884854562 1.932582959 1.313661332
H -3.743077327 0.497452412 -4.483050160
H -3.896497747 3.087370386 -2.392730590
H -1.070360114 2.437714122 -4.059780194
H -0.430068199 1.718502236 0.671431994
H -5.048645945 0.455119013 1.444957387
H -5.001699384 -2.476946518 -0.138285679
H -2.992926561 -1.970505189 2.470351223
H 0.114288482 -3.705251038 -1.001574329
H 1.323561891 -1.426338898 -3.170928935
H 2.004781948 -1.929815833 2.559063546
H 6.458693514 -1.915222347 1.524264657
H 5.901476831 0.460762491 -0.972322918
H 2.593366554 3.199147592 -0.149226267
H 2.187380156 2.698575204 3.197830226

