14

C 3.608465955 -0.064110017 -0.237502442
N 2.107596486 -2.138442428 0.778200122
C 1.041425875 -0.574549288 -1.208420028
C -1.092094421 1.185108196 -0.544798669
C -3.491824916 -0.285452882 0.574576028
N -2.434762313 1.000026965 2.494738705
H 5.248345134 -0.622336550 -1.328974142
H 3.865429213 1.612526168 0.916557535
H 1.295790797 -1.617531315 2.443500766
H 0.829515635 -1.526094233 -3.013861023
H -1.899404281 2.287502835 -2.087499154
H -3.146407679 -2.322148053 0.347118406
H -5.288478268 0.337595131 -0.267517662
H -0.483180237 2.686811470 0.802079646

