16

C 3.118898671 -0.482031472 -0.687089207
C 0.897484472 0.157032896 -2.402310726
C -1.165915287 0.675115864 3.689124058
O -1.006181670 -1.800547284 3.754475928
C -2.095005581 1.475386872 1.143708530
C -1.697160066 -0.196083406 -1.183864492
H 4.911920631 -0.245276813 -1.678632076
H 3.010649263 -2.433540794 -0.023094645
H 3.171963390 0.736362228 0.981678631
H 0.989789959 -1.012818559 -4.104231333
H 1.073566734 2.116956942 -3.046045213
H -0.494004796 -2.282110539 5.431280903
H -4.126602214 1.707420636 1.547477316
H -1.430499641 3.404531966 0.813512300
H -1.974698491 -2.178829447 -0.677303203
H -3.147896197 0.256831676 -2.582694269

