9

C -2.180231322 -0.308893839 0.061454725
O -0.263411098 1.219739525 -0.940222537
C 2.149764987 0.448208474 -0.169124479
H -1.972222874 -2.284231303 -0.543174506
H -2.187060131 -0.258999740 2.137169509
H -3.978922725 0.415080460 -0.630121088
H 2.562146918 -1.491485033 -0.784046122
H 2.353168720 0.534720948 1.895433778
H 3.516767505 1.725860489 -1.027369280

