12

C -2.987494883 -0.793800132 -0.065436756
C -0.278986995 0.069584251 0.128917948
C 1.779261258 -1.731403528 -0.304027605
N 4.088477178 -1.099130231 -0.419494860
N 0.806108032 4.531712800 1.421976995
C 0.294838264 2.427440947 0.683614038
H -4.293674525 0.737579778 0.363593832
H -3.418994777 -1.482032566 -1.963873346
H -3.361420358 -2.327669190 1.265621414
H 1.139585015 -3.692576928 -0.523440625
H 5.205191197 -2.634039715 -0.700850136
H 1.098808713 5.885318086 0.093488947

