11

N -3.573423819 -0.915132001 0.045408116
C -1.226350845 0.094775415 -0.166678002
N 0.915757274 -1.411922574 -1.048373642
N 2.546644021 -1.497029376 1.268880001
C 2.429283543 0.755617158 -0.280678621
C 0.078966382 2.200753955 0.374793899
H -5.016636460 0.278392053 0.352020790
H -3.955636064 -2.368657236 -1.116099442
H 4.056394958 -2.555666480 0.692926949
H 4.035055395 1.364600790 -1.396272241
H -0.301906727 3.985495514 1.275487599

