11

N -3.638053114 -0.698475959 -0.130039803
C -1.175905325 -0.147817741 0.085230390
N 0.550123615 -2.043461392 -0.576480570
N 2.882707378 -1.436491206 1.102554074
C 2.496432996 0.831583260 -0.037556833
C 0.126778570 2.015429932 0.640944910
H -4.941207191 0.674977801 -0.120385589
H -4.108047144 -2.399588047 -0.826814668
H 4.299612801 -2.387938207 0.218099245
H 3.856445814 1.580137717 -1.399002328
H -0.360738872 3.942878618 1.044864666

