9

N 3.106840197 -0.457825025 0.390763067
C 0.737495875 0.492799396 0.490248512
C -0.875026948 2.162820991 0.729338116
O -4.261512823 0.221059274 -0.068590123
N -3.262455968 -1.795846874 -0.433454210
N -1.255025304 -2.633986879 -0.428172218
H 3.261330315 -2.348631639 0.485567471
H 4.434464848 0.501302351 1.352275259
H -1.868112439 3.885405187 1.024151322

