9

N 4.057540283 0.735044333 -0.111051324
C 1.941614432 1.082067402 1.150846649
N -0.257801748 1.120587788 0.408459313
C -2.525808165 0.307067362 0.189082198
N -2.978903716 -2.244546336 0.756506463
O -5.149111420 -2.888035423 0.435985272
H 4.084599762 0.231989166 -1.951564105
H 5.715891383 0.855049104 0.795328940
H -4.077498342 1.522481890 -0.379078078

