12

C 3.796837484 0.140379099 1.042214533
C 1.569537223 -0.987374795 -0.318539681
O 1.326117916 -3.233864053 -0.613399771
C -0.391113630 0.817063984 -1.411256597
N -0.534661384 3.220293457 -0.093668811
H -1.358105952 4.555554057 -1.177501633
H -1.560109530 3.074525483 1.510606624
H 0.231864444 1.174897042 -3.352469066
H -2.171118080 -0.232514378 -1.543539675
H 3.173859617 0.944599842 2.837514181
H 4.594646424 1.705440827 -0.036432427
H 5.202852208 -1.319464625 1.384052157

