15

C 3.372220276 0.217824516 0.829215603
C 1.478961837 -0.712385931 -1.074067417
O 0.158891177 -2.980553522 -0.200178499
C -2.092186071 -1.720557615 -0.032042687
N -4.166745080 -2.377246646 0.882777679
C -1.084978261 0.685521339 -1.222340752
N -1.358732793 3.090551759 0.002277630
H 2.500254627 0.480728941 2.679785260
H 4.149539331 2.024391088 0.212392442
H 4.909814248 -1.138976372 1.031721130
H 2.357344599 -1.095821018 -2.900018119
H -4.101938755 -4.163689072 1.591527909
H -1.724035543 0.844925085 -3.174815384
H -2.983480689 3.936820402 -0.529704273
H -1.414928883 2.908467028 1.903469479

