15

C 2.966389761 0.068628919 1.127760451
C 1.277220912 -0.537819230 -1.159788682
O 0.584542841 -2.888938239 -1.410278286
C -3.418857809 -2.088569362 0.942751048
N -4.153896738 -4.068860971 1.583129531
C -0.788444629 1.359800130 -1.517412416
N -0.900434543 3.607882181 -0.518373060
H 1.882680167 -0.213190776 2.865097549
H 3.792086882 1.970850725 1.115307156
H 4.513732622 -1.286305997 1.124809379
H 2.333088944 0.264057970 -2.900006705
H -3.999913954 -5.947221753 1.669358812
H -2.158463963 0.911072397 -2.974812327
H -2.204888279 4.884863854 -1.047763298
H 0.251730833 4.061927055 0.928117840

