10

N 2.396661069 1.424631757 3.412743733
C 0.857339660 1.015406557 1.390637266
O -0.148239547 2.724572563 0.241654227
C 0.502774807 -1.669705312 0.594171505
C 2.165294171 -3.508901728 0.935787955
H 1.818450115 -5.395406248 0.222047015
H 3.956856185 -3.202532035 1.883130187
H -1.229736857 -1.984558232 -0.451814128
H 2.542293965 3.212075152 4.036637493
H 2.830552600 0.019084873 4.606355867

