18

C -4.288074738 0.677197416 -0.104065611
C -2.325796604 -1.429105835 -0.119209404
C 0.151523173 -0.049493590 0.562707660
C 2.523578628 -1.220662524 -0.587770360
C 4.961791184 -0.082342907 0.425800498
C -0.238347074 2.703913888 -0.137215036
N -2.671062322 2.918096770 -0.463795577
H -5.687181606 0.534391588 -1.611544304
H -3.462354429 4.602027298 -0.874663252
H -5.291016189 0.818876552 1.698079115
H -2.790448303 -2.954736934 1.183177992
H -2.168139323 -2.242027010 -2.012027404
H 0.386368944 -0.015683858 2.629371241
H 2.497498688 -3.260075178 -0.235357849
H 2.440341389 -0.986637631 -2.642697722
H 5.142637294 -0.412415133 2.457263357
H 6.612146249 -0.911375452 -0.492950480
H 4.990848898 1.954549286 0.114808723

