18

C -4.833857349 0.324941639 0.351690542
C -2.452124984 -1.047240978 -0.491700426
C 0.005884078 0.248601068 0.341926988
C 2.365053755 -1.257859307 -0.418904528
C 4.828879395 -0.114879456 0.524607474
C 0.135617915 2.824886483 -0.678263675
N 0.236152290 4.824908797 -1.511376083
H -6.518442553 -0.692636517 -0.260414181
H -4.922315297 2.226931141 -0.441741434
H -4.911298061 0.492113520 2.408324062
H -2.426169785 -2.962391157 0.283077666
H -2.432690890 -1.239828372 -2.549453344
H -0.017277331 0.444142577 2.404427768
H 2.139485142 -3.169508598 0.332016093
H 2.403523893 -1.431147136 -2.478107301
H 4.843769171 0.030184255 2.584306583
H 6.435409613 -1.278298037 -0.035174455
H 5.120401038 1.777080079 -0.244501723

