18

C -4.610814543 0.395984683 0.053278012
C -2.378707688 -1.266548438 -0.099401616
C 0.185327312 0.099947841 0.533910067
C 2.493088842 -1.246090244 -0.547266311
C 4.994779528 -0.203277934 0.414040903
C -0.131817581 2.781117213 -0.301070051
N -2.201240484 3.662590546 -0.655238685
H -6.040037145 0.161628313 -1.403940012
H -4.062275747 3.869990332 -1.029596322
H -5.411391630 0.718043034 1.919376816
H -2.491734135 -2.827103056 1.253505133
H -2.206818616 -2.088759601 -1.986443895
H 0.393684338 0.237610327 2.594294107
H 2.343116322 -3.253771014 -0.077091226
H 2.419650532 -1.124628438 -2.610764696
H 5.148098225 -0.412492499 2.463082334
H 6.589599473 -1.193857213 -0.439636374
H 5.170167977 1.802861745 -0.027454980

