12

O 3.759841238 -3.394480153 -2.127415933
C 1.608895796 -2.651578679 -1.164771512
C -3.976095071 2.408945536 1.456098797
C -2.046505098 1.254752465 0.362454289
O 0.087878482 0.653899531 1.647371924
C 2.126983791 -0.223203565 0.186980841
H 3.483906926 -4.947395194 -3.034695933
H -5.652102468 2.821287972 0.367056642
H -3.925962791 2.930521077 3.432927066
H -2.079850771 0.692008598 -1.612612226
H 3.719130339 -0.456818123 1.485797902
H 2.696760406 1.185993382 -1.236607617

