23

C    -1.82600  -0.62193  -1.93336
C    -1.22071  -0.93377  -0.55356
C    -0.98642   0.68761   0.24488
C    -2.04983   1.57658   0.70743
N    -2.99841   2.16696   1.03136
N     0.22876   1.16129   0.31969
C     1.25078   0.30124  -0.20188
C     1.82949   0.76555  -1.53472
C     2.22549  -0.06209   0.79017
N     2.99161  -0.47867   1.56829
C     0.09022  -1.55892  -0.51932
C     0.42096  -2.57150   0.55117
H    -2.59532   0.14614  -1.80572
H    -2.30761  -1.47091  -2.47982
H    -1.04199  -0.22306  -2.60242
H    -1.97844  -1.42045   0.12357
H     2.39594   1.74256  -1.53100
H     1.00802   0.87087  -2.25293
H     2.53153  -0.00098  -1.88714
H     0.61872  -1.72513  -1.47722
H    -0.18643  -2.41178   1.46300
H     1.47934  -2.50984   0.83314
H     0.25654  -3.65592   0.26768
23

C    -1.82604  -0.62310  -1.93523
C    -1.22449  -0.95785  -0.56468
C    -0.98454   0.70677   0.25559
C    -2.04978   1.58579   0.71182
N    -3.00375   2.16950   1.03266
N     0.22992   1.15125   0.31565
C     1.26076   0.31969  -0.19813
C     1.83164   0.76846  -1.53623
C     2.22834  -0.05752   0.79214
N     2.99258  -0.47908   1.56898
C     0.08066  -1.57597  -0.52483
C     0.42019  -2.57558   0.55241
H    -2.59252   0.14783  -1.80330
H    -2.31114  -1.46749  -2.48262
H    -1.04129  -0.22420  -2.60264
H    -1.97892  -1.42101   0.12300
H     2.39748   1.74278  -1.53461
H     1.00763   0.87078  -2.25220
H     2.53091  -0.00160  -1.88657
H     0.61997  -1.72480  -1.47600
H    -0.18727  -2.41286   1.46294
H     1.47869  -2.50764   0.83333
H     0.25929  -3.65804   0.27035
23

C    -1.82609  -0.62427  -1.93710
C    -1.22828  -0.98193  -0.57579
C    -0.98266   0.72593   0.26630
C    -2.04973   1.59499   0.71622
N    -3.00909   2.17203   1.03395
N     0.23108   1.14120   0.31161
C     1.27073   0.33814  -0.19439
C     1.83379   0.77136  -1.53774
C     2.23118  -0.05295   0.79412
N     2.99355  -0.47950   1.56967
C     0.07109  -1.59301  -0.53033
C     0.41942  -2.57967   0.55364
H    -2.58972   0.14951  -1.80089
H    -2.31467  -1.46408  -2.48542
H    -1.04059  -0.22535  -2.60285
H    -1.97941  -1.42156   0.12243
H     2.39902   1.74300  -1.53822
H     1.00724   0.87069  -2.25147
H     2.53029  -0.00222  -1.88601
H     0.62122  -1.72446  -1.47478
H    -0.18811  -2.41394   1.46288
H     1.47804  -2.50543   0.83352
H     0.26204  -3.66016   0.27302
23

C    -1.82613  -0.62545  -1.93896
C    -1.23207  -1.00601  -0.58691
C    -0.98078   0.74509   0.27701
C    -2.04968   1.60420   0.72061
N    -3.01443   2.17456   1.03525
N     0.23224   1.13116   0.30756
C     1.28070   0.35659  -0.19064
C     1.83594   0.77427  -1.53925
C     2.23403  -0.04838   0.79609
N     2.99452  -0.47992   1.57036
C     0.06152  -1.61006  -0.53584
C     0.41865  -2.58375   0.55488
H    -2.58693   0.15120  -1.79848
H    -2.31821  -1.46066  -2.48821
H    -1.03989  -0.22650  -2.60307
H    -1.97989  -1.42212   0.12186
H     2.40055   1.74322  -1.54183
H     1.00685   0.87060  -2.25074
H     2.52967  -0.00284  -1.88544
H     0.62247  -1.72413  -1.47355
H    -0.18894  -2.41503   1.46283
H     1.47739  -2.50323   0.83371
H     0.26479  -3.66228   0.27570
23

C    -1.82617  -0.62662  -1.94083
C    -1.23585  -1.03009  -0.59802
C    -0.97890   0.76425   0.28771
C    -2.04963   1.61340   0.72501
N    -3.01977   2.17710   1.03654
N     0.23340   1.12112   0.30352
C     1.29067   0.37504  -0.18689
C     1.83809   0.77717  -1.54077
C     2.23687  -0.04380   0.79807
N     2.99549  -0.48034   1.57105
C     0.05195  -1.62710  -0.54135
C     0.41788  -2.58784   0.55612
H    -2.58413   0.15288  -1.79607
H    -2.32174  -1.45724  -2.49101
H    -1.03919  -0.22764  -2.60328
H    -1.98038  -1.42268   0.12129
H     2.40209   1.74344  -1.54544
H     1.00645   0.87051  -2.25001
H     2.52906  -0.00346  -1.88487
H     0.62372  -1.72380  -1.47233
H    -0.18978  -2.41611   1.46277
H     1.47674  -2.50102   0.83390
H     0.26754  -3.66440   0.27837
23

C    -1.82621  -0.62779  -1.94269
C    -1.23964  -1.05418  -0.60914
C    -0.97702   0.78341   0.29842
C    -2.04958   1.62261   0.72940
N    -3.02510   2.17963   1.03784
N     0.23455   1.11108   0.29947
C     1.30064   0.39350  -0.18314
C     1.84025   0.78008  -1.54228
C     2.23972  -0.03923   0.80005
N     2.99646  -0.48075   1.57174
C     0.04238  -1.64414  -0.54685
C     0.41712  -2.59192   0.55735
H    -2.58134   0.15456  -1.79365
H    -2.32527  -1.45383  -2.49381
H    -1.03849  -0.22879  -2.60350
H    -1.98086  -1.42324   0.12072
H     2.40363   1.74366  -1.54905
H     1.00606   0.87043  -2.24928
H     2.52844  -0.00408  -1.88431
H     0.62497  -1.72347  -1.47111
H    -0.19062  -2.41719   1.46271
H     1.47608  -2.49882   0.83409
H     0.27030  -3.66652   0.28104
23

C    -1.82626  -0.62896  -1.94456
C    -1.24342  -1.07826  -0.62025
C    -0.97513   0.80256   0.30913
C    -2.04953   1.63181   0.73380
N    -3.03044   2.18217   1.03914
N     0.23571   1.10103   0.29543
C     1.31062   0.41195  -0.17939
C     1.84240   0.78298  -1.54379
C     2.24256  -0.03466   0.80202
N     2.99743  -0.48117   1.57243
C     0.03282  -1.66119  -0.55236
C     0.41635  -2.59600   0.55859
H    -2.57854   0.15625  -1.79124
H    -2.32880  -1.45041  -2.49661
H    -1.03779  -0.22993  -2.60372
H    -1.98134  -1.42379   0.12015
H     2.40517   1.74388  -1.55266
H     1.00567   0.87034  -2.24855
H     2.52782  -0.00470  -1.88374
H     0.62622  -1.72314  -1.46989
H    -0.19145  -2.41828   1.46266
H     1.47543  -2.49661   0.83428
H     0.27305  -3.66864   0.28372
23

C    -1.82630  -0.63014  -1.94643
C    -1.24721  -1.10234  -0.63137
C    -0.97325   0.82172   0.31984
C    -2.04948   1.64102   0.73819
N    -3.03578   2.18470   1.04043
N     0.23687   1.09099   0.29139
C     1.32059   0.43040  -0.17565
C     1.84455   0.78589  -1.54530
C     2.24541  -0.03009   0.80400
N     2.99840  -0.48159   1.57312
C     0.02325  -1.67823  -0.55787
C     0.41558  -2.60009   0.55982
H    -2.57574   0.15793  -1.78883
H    -2.33233  -1.44700  -2.49940
H    -1.03709  -0.23108  -2.60393
H    -1.98183  -1.42435   0.11957
H     2.40671   1.74410  -1.55627
H     1.00528   0.87025  -2.24782
H     2.52720  -0.00532  -1.88317
H     0.62747  -1.72281  -1.46867
H    -0.19229  -2.41936   1.46260
H     1.47478  -2.49440   0.83447
H     0.27580  -3.67076   0.28639
23

C    -1.82634  -0.63131  -1.94829
C    -1.25099  -1.12642  -0.64248
C    -0.97137   0.84088   0.33055
C    -2.04943   1.65022   0.74259
N    -3.04112   2.18723   1.04173
N     0.23803   1.08095   0.28734
C     1.33056   0.44885  -0.17190
C     1.84670   0.78879  -1.54681
C     2.24826  -0.02552   0.80597
N     2.99937  -0.48201   1.57381
C     0.01368  -1.69528  -0.56337
C     0.41481  -2.60417   0.56106
H    -2.57295   0.15961  -1.78642
H    -2.33586  -1.44358  -2.50220
H    -1.03639  -0.23222  -2.60415
H    -1.98231  -1.42491   0.11900
H     2.40825   1.74432  -1.55987
H     1.00489   0.87016  -2.24709
H     2.52658  -0.00594  -1.88261
H     0.62872  -1.72248  -1.46745
H    -0.19313  -2.42044   1.46254
H     1.47413  -2.49220   0.83466
H     0.27855  -3.67288   0.28907
23

C    -1.82638  -0.63248  -1.95016
C    -1.25478  -1.15050  -0.65360
C    -0.96949   0.86004   0.34126
C    -2.04938   1.65943   0.74698
N    -3.04646   2.18977   1.04302
N     0.23919   1.07091   0.28330
C     1.34053   0.46730  -0.16815
C     1.84885   0.79170  -1.54833
C     2.25110  -0.02095   0.80795
N     3.00034  -0.48243   1.57450
C     0.00411  -1.71232  -0.56888
C     0.41404  -2.60826   0.56230
H    -2.57015   0.16130  -1.78400
H    -2.33939  -1.44017  -2.50500
H    -1.03569  -0.23337  -2.60436
H    -1.98280  -1.42546   0.11843
H     2.40978   1.74454  -1.56348
H     1.00450   0.87007  -2.24636
H     2.52596  -0.00656  -1.88204
H     0.62997  -1.72215  -1.46623
H    -0.19397  -2.42153   1.46249
H     1.47348  -2.48999   0.83485
H     0.28130  -3.67499   0.29174
23

C    -1.82642  -0.63365  -1.95202
C    -1.25856  -1.17458  -0.66471
C    -0.96761   0.87920   0.35197
C    -2.04933   1.66864   0.75137
N    -3.05179   2.19230   1.04432
N     0.24035   1.06086   0.27926
C     1.35050   0.48575  -0.16440
C     1.85100   0.79460  -1.54984
C     2.25395  -0.01638   0.80993
N     3.00131  -0.48284   1.57519
C    -0.00546  -1.72937  -0.57438
C     0.41327  -2.61234   0.56353
H    -2.56735   0.16298  -1.78159
H    -2.34292  -1.43675  -2.50780
H    -1.03499  -0.23452  -2.60458
H    -1.98328  -1.42602   0.11786
H     2.41132   1.74475  -1.56709
H     1.00411   0.86998  -2.24562
H     2.52535  -0.00718  -1.88148
H     0.63122  -1.72182  -1.46501
H    -0.19480  -2.42261   1.46243
H     1.47283  -2.48779   0.83504
H     0.28405  -3.67711   0.29441
23

C    -1.82647  -0.63482  -1.95389
C    -1.26235  -1.19866  -0.67582
C    -0.96573   0.89836   0.36268
C    -2.04928   1.67784   0.75577
N    -3.05713   2.19483   1.04561
N     0.24151   1.05082   0.27521
C     1.36047   0.50420  -0.16066
C     1.85316   0.79750  -1.55135
C     2.25679  -0.01180   0.81190
N     3.00228  -0.48326   1.57588
C    -0.01502  -1.74641  -0.57989
C     0.41250  -2.61642   0.56477
H    -2.56456   0.16466  -1.77918
H    -2.34645  -1.43333  -2.51060
H    -1.03429  -0.23566  -2.60480
H    -1.98377  -1.42658   0.11729
H     2.41286   1.74497  -1.57070
H     1.00371   0.86989  -2.24489
H     2.52473  -0.00780  -1.88091
H     0.63247  -1.72149  -1.46378
H    -0.19564  -2.42369   1.46237
H     1.47218  -2.48558   0.83523
H     0.28680  -3.67923   0.29709
23

C    -1.82651  -0.63600  -1.95576
C    -1.26613  -1.22274  -0.68694
C    -0.96385   0.91752   0.37339
C    -2.04923   1.68705   0.76016
N    -3.06247   2.19737   1.04691
N     0.24267   1.04078   0.27117
C     1.37045   0.52265  -0.15691
C     1.85531   0.80041  -1.55286
C     2.25964  -0.00723   0.81388
N     3.00325  -0.48368   1.57657
C    -0.02459  -1.76346  -0.58540
C     0.41173  -2.62051   0.56600
H    -2.56176   0.16635  -1.77676
H    -2.34998  -1.42992  -2.51339
H    -1.03359  -0.23681  -2.60501
H    -1.98425  -1.42714   0.11672
H     2.41440   1.74519  -1.57431
H     1.00332   0.86980  -2.24416
H     2.52411  -0.00843  -1.88034
H     0.63372  -1.72116  -1.46256
H    -0.19648  -2.42478   1.46232
H     1.47153  -2.48338   0.83542
H     0.28955  -3.68135   0.29976
23

C    -1.82655  -0.63717  -1.95762
C    -1.26992  -1.24682  -0.69805
C    -0.96197   0.93668   0.38409
C    -2.04918   1.69625   0.76456
N    -3.06781   2.19990   1.04821
N     0.24383   1.03074   0.26713
C     1.38042   0.54110  -0.15316
C     1.85746   0.80331  -1.55437
C     2.26248  -0.00266   0.81585
N     3.00422  -0.48410   1.57726
C    -0.03416  -1.78050  -0.59090
C     0.41096  -2.62459   0.56724
H    -2.55896   0.16803  -1.77435
H    -2.35351  -1.42650  -2.51619
H    -1.03289  -0.23795  -2.60523
H    -1.98474  -1.42769   0.11615
H     2.41594   1.74541  -1.57792
H     1.00293   0.86972  -2.24343
H     2.52349  -0.00905  -1.87978
H     0.63497  -1.72083  -1.46134
H    -0.19731  -2.42586   1.46226
H     1.47088  -2.48117   0.83561
H     0.29230  -3.68347   0.30244
23

C    -1.82659  -0.63834  -1.95949
C    -1.27370  -1.27090  -0.70917
C    -0.96009   0.95584   0.39480
C    -2.04913   1.70546   0.76895
N    -3.07315   2.20243   1.04950
N     0.24499   1.02070   0.26308
C     1.39039   0.55956  -0.14941
C     1.85961   0.80622  -1.55588
C     2.26533   0.00191   0.81783
N     3.00519  -0.48451   1.57795
C    -0.04373  -1.79755  -0.59641
C     0.41020  -2.62867   0.56848
H    -2.55617   0.16971  -1.77194
H    -2.35704  -1.42309  -2.51899
H    -1.03219  -0.23910  -2.60544
H    -1.98522  -1.42825   0.11558
H     2.41748   1.74563  -1.58153
H     1.00254   0.86963  -2.24270
H     2.52287  -0.00967  -1.87921
H     0.63622  -1.72050  -1.46012
H    -0.19815  -2.42694   1.46220
H     1.47023  -2.47897   0.83580
H     0.29505  -3.68559   0.30511
23

C    -1.82664  -0.63951  -1.96135
C    -1.27749  -1.29498  -0.72028
C    -0.95821   0.97500   0.40551
C    -2.04908   1.71466   0.77335
N    -3.07849   2.20497   1.05080
N     0.24614   1.01065   0.25904
C     1.40036   0.57801  -0.14567
C     1.86176   0.80912  -1.55740
C     2.26817   0.00648   0.81981
N     3.00616  -0.48493   1.57864
C    -0.05330  -1.81459  -0.60192
C     0.40943  -2.63276   0.56971
H    -2.55337   0.17140  -1.76953
H    -2.36057  -1.41967  -2.52179
H    -1.03149  -0.24024  -2.60566
H    -1.98571  -1.42881   0.11501
H     2.41902   1.74585  -1.58514
H     1.00215   0.86954  -2.24197
H     2.52225  -0.01029  -1.87864
H     0.63747  -1.72016  -1.45890
H    -0.19899  -2.42803   1.46215
H     1.46958  -2.47676   0.83599
H     0.29780  -3.68771   0.30778
23

C    -1.82668  -0.64069  -1.96322
C    -1.28128  -1.31906  -0.73140
C    -0.95633   0.99416   0.41622
C    -2.04903   1.72387   0.77774
N    -3.08382   2.20750   1.05209
N     0.24730   1.00061   0.25499
C     1.41033   0.59646  -0.14192
C     1.86391   0.81203  -1.55891
C     2.27102   0.01105   0.82178
N     3.00713  -0.48535   1.57933
C    -0.06287  -1.83164  -0.60742
C     0.40866  -2.63684   0.57095
H    -2.55058   0.17308  -1.76711
H    -2.36411  -1.41626  -2.52458
H    -1.03079  -0.24139  -2.60587
H    -1.98619  -1.42936   0.11444
H     2.42055   1.74607  -1.58875
H     1.00176   0.86945  -2.24124
H     2.52164  -0.01091  -1.87808
H     0.63872  -1.71983  -1.45768
H    -0.19983  -2.42911   1.46209
H     1.46893  -2.47455   0.83618
H     0.30055  -3.68983   0.31046
23

C    -1.82672  -0.64186  -1.96508
C    -1.28506  -1.34314  -0.74251
C    -0.95445   1.01332   0.42693
C    -2.04898   1.73308   0.78214
N    -3.08916   2.21003   1.05339
N     0.24846   0.99057   0.25095
C     1.42030   0.61491  -0.13817
C     1.86607   0.81493  -1.56042
C     2.27386   0.01562   0.82376
N     3.00810  -0.48577   1.58002
C    -0.07243  -1.84868  -0.61293
C     0.40789  -2.64093   0.57219
H    -2.54778   0.17476  -1.76470
H    -2.36764  -1.41284  -2.52738
H    -1.03009  -0.24254  -2.60609
H    -1.98668  -1.42992   0.11387
H     2.42209   1.74629  -1.59236
H     1.00136   0.86936  -2.24051
H     2.52102  -0.01153  -1.87751
H     0.63997  -1.71950  -1.45646
H    -0.20066  -2.43019   1.46203
H     1.46828  -2.47235   0.83636
H     0.30330  -3.69195   0.31313
23

C    -1.82676  -0.64303  -1.96695
C    -1.28885  -1.36722  -0.75363
C    -0.95257   1.03248   0.43764
C    -2.04893   1.74228   0.78653
N    -3.09450   2.21257   1.05468
N     0.24962   0.98053   0.24691
C     1.43028   0.63336  -0.13442
C     1.86822   0.81784  -1.56193
C     2.27671   0.02019   0.82574
N     3.00907  -0.48618   1.58071
C    -0.08200  -1.86573  -0.61843
C     0.40712  -2.64501   0.57342
H    -2.54498   0.17645  -1.76229
H    -2.37117  -1.40942  -2.53018
H    -1.02939  -0.24368  -2.60631
H    -1.98716  -1.43048   0.11330
H     2.42363   1.74651  -1.59597
H     1.00097   0.86927  -2.23978
H     2.52040  -0.01215  -1.87694
H     0.64122  -1.71917  -1.45523
H    -0.20150  -2.43128   1.46198
H     1.46763  -2.47014   0.83655
H     0.30605  -3.69407   0.31580
23

C    -1.82681  -0.64420  -1.96882
C    -1.29263  -1.39130  -0.76474
C    -0.95069   1.05164   0.44835
C    -2.04888   1.75149   0.79093
N    -3.09984   2.21510   1.05598
N     0.25078   0.97048   0.24286
C     1.44025   0.65181  -0.13068
C     1.87037   0.82074  -1.56344
C     2.27956   0.02477   0.82771
N     3.01003  -0.48660   1.58140
C    -0.09157  -1.88277  -0.62394
C     0.40635  -2.64909   0.57466
H    -2.54219   0.17813  -1.75988
H    -2.37470  -1.40601  -2.53298
H    -1.02869  -0.24483  -2.60652
H    -1.98765  -1.43103   0.11273
H     2.42517   1.74673  -1.59958
H     1.00058   0.86918  -2.23905
H     2.51978  -0.01277  -1.87638
H     0.64247  -1.71884  -1.45401
H    -0.20234  -2.43236   1.46192
H     1.46698  -2.46794   0.83674
H     0.30880  -3.69619   0.31848
23

C    -1.82685  -0.64537  -1.97068
C    -1.29642  -1.41538  -0.77586
C    -0.94881   1.07080   0.45906
C    -2.04883   1.76069   0.79532
N    -3.10518   2.21764   1.05728
N     0.25194   0.96044   0.23882
C     1.45022   0.67026  -0.12693
C     1.87252   0.82365  -1.56496
C     2.28240   0.02934   0.82969
N     3.01100  -0.48702   1.58209
C    -0.10114  -1.89982  -0.62945
C     0.40558  -2.65318   0.57589
H    -2.53939   0.17981  -1.75746
H    -2.37823  -1.40259  -2.53577
H    -1.02799  -0.24597  -2.60674
H    -1.98813  -1.43159   0.11216
H     2.42671   1.74695  -1.60319
H     1.00019   0.86909  -2.23831
H     2.51916  -0.01339  -1.87581
H     0.64372  -1.71851  -1.45279
H    -0.20317  -2.43344   1.46186
H     1.46633  -2.46573   0.83693
H     0.31155  -3.69831   0.32115
23

C    -1.82681  -0.64420  -1.96882
C    -1.29263  -1.39130  -0.76474
C    -0.95069   1.05164   0.44835
C    -2.04888   1.75149   0.79093
N    -3.09984   2.21510   1.05598
N     0.25078   0.97048   0.24286
C     1.44025   0.65181  -0.13068
C     1.87037   0.82074  -1.56344
C     2.27956   0.02477   0.82771
N     3.01003  -0.48660   1.58140
C    -0.09157  -1.88277  -0.62394
C     0.40635  -2.64909   0.57466
H    -2.54219   0.17813  -1.75988
H    -2.37470  -1.40601  -2.53298
H    -1.02869  -0.24483  -2.60652
H    -1.98765  -1.43103   0.11273
H     2.42517   1.74673  -1.59958
H     1.00058   0.86918  -2.23905
H     2.51978  -0.01277  -1.87638
H     0.64247  -1.71884  -1.45401
H    -0.20234  -2.43236   1.46192
H     1.46698  -2.46794   0.83674
H     0.30880  -3.69619   0.31848
23

C    -1.82676  -0.64303  -1.96695
C    -1.28885  -1.36722  -0.75363
C    -0.95257   1.03248   0.43764
C    -2.04893   1.74228   0.78653
N    -3.09450   2.21257   1.05468
N     0.24962   0.98053   0.24691
C     1.43028   0.63336  -0.13442
C     1.86822   0.81784  -1.56193
C     2.27671   0.02019   0.82574
N     3.00907  -0.48618   1.58071
C    -0.08200  -1.86573  -0.61843
C     0.40712  -2.64501   0.57342
H    -2.54498   0.17645  -1.76229
H    -2.37117  -1.40942  -2.53018
H    -1.02939  -0.24368  -2.60631
H    -1.98716  -1.43048   0.11330
H     2.42363   1.74651  -1.59597
H     1.00097   0.86927  -2.23978
H     2.52040  -0.01215  -1.87694
H     0.64122  -1.71917  -1.45523
H    -0.20150  -2.43128   1.46198
H     1.46763  -2.47014   0.83655
H     0.30605  -3.69407   0.31580
23

C    -1.82672  -0.64186  -1.96508
C    -1.28506  -1.34314  -0.74251
C    -0.95445   1.01332   0.42693
C    -2.04898   1.73308   0.78214
N    -3.08916   2.21003   1.05339
N     0.24846   0.99057   0.25095
C     1.42030   0.61491  -0.13817
C     1.86607   0.81493  -1.56042
C     2.27386   0.01562   0.82376
N     3.00810  -0.48577   1.58002
C    -0.07243  -1.84868  -0.61293
C     0.40789  -2.64093   0.57219
H    -2.54778   0.17476  -1.76470
H    -2.36764  -1.41284  -2.52738
H    -1.03009  -0.24254  -2.60609
H    -1.98668  -1.42992   0.11387
H     2.42209   1.74629  -1.59236
H     1.00136   0.86936  -2.24051
H     2.52102  -0.01153  -1.87751
H     0.63997  -1.71950  -1.45646
H    -0.20066  -2.43019   1.46203
H     1.46828  -2.47235   0.83636
H     0.30330  -3.69195   0.31313
23

C    -1.82668  -0.64069  -1.96322
C    -1.28128  -1.31906  -0.73140
C    -0.95633   0.99416   0.41622
C    -2.04903   1.72387   0.77774
N    -3.08382   2.20750   1.05209
N     0.24730   1.00061   0.25499
C     1.41033   0.59646  -0.14192
C     1.86391   0.81203  -1.55891
C     2.27102   0.01105   0.82178
N     3.00713  -0.48535   1.57933
C    -0.06287  -1.83164  -0.60742
C     0.40866  -2.63684   0.57095
H    -2.55058   0.17308  -1.76711
H    -2.36411  -1.41626  -2.52458
H    -1.03079  -0.24139  -2.60587
H    -1.98619  -1.42936   0.11444
H     2.42055   1.74607  -1.58875
H     1.00176   0.86945  -2.24124
H     2.52164  -0.01091  -1.87808
H     0.63872  -1.71983  -1.45768
H    -0.19983  -2.42911   1.46209
H     1.46893  -2.47455   0.83618
H     0.30055  -3.68983   0.31046
23

C    -1.82664  -0.63951  -1.96135
C    -1.27749  -1.29498  -0.72028
C    -0.95821   0.97500   0.40551
C    -2.04908   1.71466   0.77335
N    -3.07849   2.20497   1.05080
N     0.24614   1.01065   0.25904
C     1.40036   0.57801  -0.14567
C     1.86176   0.80912  -1.55740
C     2.26817   0.00648   0.81981
N     3.00616  -0.48493   1.57864
C    -0.05330  -1.81459  -0.60192
C     0.40943  -2.63276   0.56971
H    -2.55337   0.17140  -1.76953
H    -2.36057  -1.41967  -2.52179
H    -1.03149  -0.24024  -2.60566
H    -1.98571  -1.42881   0.11501
H     2.41902   1.74585  -1.58514
H     1.00215   0.86954  -2.24197
H     2.52225  -0.01029  -1.87864
H     0.63747  -1.72016  -1.45890
H    -0.19899  -2.42803   1.46215
H     1.46958  -2.47676   0.83599
H     0.29780  -3.68771   0.30778
23

C    -1.82659  -0.63834  -1.95949
C    -1.27370  -1.27090  -0.70917
C    -0.96009   0.95584   0.39480
C    -2.04913   1.70546   0.76895
N    -3.07315   2.20243   1.04950
N     0.24499   1.02070   0.26308
C     1.39039   0.55956  -0.14941
C     1.85961   0.80622  -1.55588
C     2.26533   0.00191   0.81783
N     3.00519  -0.48451   1.57795
C    -0.04373  -1.79755  -0.59641
C     0.41020  -2.62867   0.56848
H    -2.55617   0.16971  -1.77194
H    -2.35704  -1.42309  -2.51899
H    -1.03219  -0.23910  -2.60544
H    -1.98522  -1.42825   0.11558
H     2.41748   1.74563  -1.58153
H     1.00254   0.86963  -2.24270
H     2.52287  -0.00967  -1.87921
H     0.63622  -1.72050  -1.46012
H    -0.19815  -2.42694   1.46220
H     1.47023  -2.47897   0.83580
H     0.29505  -3.68559   0.30511
23

C    -1.82655  -0.63717  -1.95762
C    -1.26992  -1.24682  -0.69805
C    -0.96197   0.93668   0.38409
C    -2.04918   1.69625   0.76456
N    -3.06781   2.19990   1.04821
N     0.24383   1.03074   0.26713
C     1.38042   0.54110  -0.15316
C     1.85746   0.80331  -1.55437
C     2.26248  -0.00266   0.81585
N     3.00422  -0.48410   1.57726
C    -0.03416  -1.78050  -0.59090
C     0.41096  -2.62459   0.56724
H    -2.55896   0.16803  -1.77435
H    -2.35351  -1.42650  -2.51619
H    -1.03289  -0.23795  -2.60523
H    -1.98474  -1.42769   0.11615
H     2.41594   1.74541  -1.57792
H     1.00293   0.86972  -2.24343
H     2.52349  -0.00905  -1.87978
H     0.63497  -1.72083  -1.46134
H    -0.19731  -2.42586   1.46226
H     1.47088  -2.48117   0.83561
H     0.29230  -3.68347   0.30244
23

C    -1.82651  -0.63600  -1.95576
C    -1.26613  -1.22274  -0.68694
C    -0.96385   0.91752   0.37339
C    -2.04923   1.68705   0.76016
N    -3.06247   2.19737   1.04691
N     0.24267   1.04078   0.27117
C     1.37045   0.52265  -0.15691
C     1.85531   0.80041  -1.55286
C     2.25964  -0.00723   0.81388
N     3.00325  -0.48368   1.57657
C    -0.02459  -1.76346  -0.58540
C     0.41173  -2.62051   0.56600
H    -2.56176   0.16635  -1.77676
H    -2.34998  -1.42992  -2.51339
H    -1.03359  -0.23681  -2.60501
H    -1.98425  -1.42714   0.11672
H     2.41440   1.74519  -1.57431
H     1.00332   0.86980  -2.24416
H     2.52411  -0.00843  -1.88034
H     0.63372  -1.72116  -1.46256
H    -0.19648  -2.42478   1.46232
H     1.47153  -2.48338   0.83542
H     0.28955  -3.68135   0.29976
23

C    -1.82647  -0.63482  -1.95389
C    -1.26235  -1.19866  -0.67582
C    -0.96573   0.89836   0.36268
C    -2.04928   1.67784   0.75577
N    -3.05713   2.19483   1.04561
N     0.24151   1.05082   0.27521
C     1.36047   0.50420  -0.16066
C     1.85316   0.79750  -1.55135
C     2.25679  -0.01180   0.81190
N     3.00228  -0.48326   1.57588
C    -0.01502  -1.74641  -0.57989
C     0.41250  -2.61642   0.56477
H    -2.56456   0.16466  -1.77918
H    -2.34645  -1.43333  -2.51060
H    -1.03429  -0.23566  -2.60480
H    -1.98377  -1.42658   0.11729
H     2.41286   1.74497  -1.57070
H     1.00371   0.86989  -2.24489
H     2.52473  -0.00780  -1.88091
H     0.63247  -1.72149  -1.46378
H    -0.19564  -2.42369   1.46237
H     1.47218  -2.48558   0.83523
H     0.28680  -3.67923   0.29709
23

C    -1.82642  -0.63365  -1.95202
C    -1.25856  -1.17458  -0.66471
C    -0.96761   0.87920   0.35197
C    -2.04933   1.66864   0.75137
N    -3.05179   2.19230   1.04432
N     0.24035   1.06086   0.27926
C     1.35050   0.48575  -0.16440
C     1.85100   0.79460  -1.54984
C     2.25395  -0.01638   0.80993
N     3.00131  -0.48284   1.57519
C    -0.00546  -1.72937  -0.57438
C     0.41327  -2.61234   0.56353
H    -2.56735   0.16298  -1.78159
H    -2.34292  -1.43675  -2.50780
H    -1.03499  -0.23452  -2.60458
H    -1.98328  -1.42602   0.11786
H     2.41132   1.74475  -1.56709
H     1.00411   0.86998  -2.24562
H     2.52535  -0.00718  -1.88148
H     0.63122  -1.72182  -1.46501
H    -0.19480  -2.42261   1.46243
H     1.47283  -2.48779   0.83504
H     0.28405  -3.67711   0.29441
23

C    -1.82638  -0.63248  -1.95016
C    -1.25478  -1.15050  -0.65360
C    -0.96949   0.86004   0.34126
C    -2.04938   1.65943   0.74698
N    -3.04646   2.18977   1.04302
N     0.23919   1.07091   0.28330
C     1.34053   0.46730  -0.16815
C     1.84885   0.79170  -1.54833
C     2.25110  -0.02095   0.80795
N     3.00034  -0.48243   1.57450
C     0.00411  -1.71232  -0.56888
C     0.41404  -2.60826   0.56230
H    -2.57015   0.16130  -1.78400
H    -2.33939  -1.44017  -2.50500
H    -1.03569  -0.23337  -2.60436
H    -1.98280  -1.42546   0.11843
H     2.40978   1.74454  -1.56348
H     1.00450   0.87007  -2.24636
H     2.52596  -0.00656  -1.88204
H     0.62997  -1.72215  -1.46623
H    -0.19397  -2.42153   1.46249
H     1.47348  -2.48999   0.83485
H     0.28130  -3.67499   0.29174
23

C    -1.82634  -0.63131  -1.94829
C    -1.25099  -1.12642  -0.64248
C    -0.97137   0.84088   0.33055
C    -2.04943   1.65022   0.74259
N    -3.04112   2.18723   1.04173
N     0.23803   1.08095   0.28734
C     1.33056   0.44885  -0.17190
C     1.84670   0.78879  -1.54681
C     2.24826  -0.02552   0.80597
N     2.99937  -0.48201   1.57381
C     0.01368  -1.69528  -0.56337
C     0.41481  -2.60417   0.56106
H    -2.57295   0.15961  -1.78642
H    -2.33586  -1.44358  -2.50220
H    -1.03639  -0.23222  -2.60415
H    -1.98231  -1.42491   0.11900
H     2.40825   1.74432  -1.55987
H     1.00489   0.87016  -2.24709
H     2.52658  -0.00594  -1.88261
H     0.62872  -1.72248  -1.46745
H    -0.19313  -2.42044   1.46254
H     1.47413  -2.49220   0.83466
H     0.27855  -3.67288   0.28907
23

C    -1.82630  -0.63014  -1.94643
C    -1.24721  -1.10234  -0.63137
C    -0.97325   0.82172   0.31984
C    -2.04948   1.64102   0.73819
N    -3.03578   2.18470   1.04043
N     0.23687   1.09099   0.29139
C     1.32059   0.43040  -0.17565
C     1.84455   0.78589  -1.54530
C     2.24541  -0.03009   0.80400
N     2.99840  -0.48159   1.57312
C     0.02325  -1.67823  -0.55787
C     0.41558  -2.60009   0.55982
H    -2.57574   0.15793  -1.78883
H    -2.33233  -1.44700  -2.49940
H    -1.03709  -0.23108  -2.60393
H    -1.98183  -1.42435   0.11957
H     2.40671   1.74410  -1.55627
H     1.00528   0.87025  -2.24782
H     2.52720  -0.00532  -1.88317
H     0.62747  -1.72281  -1.46867
H    -0.19229  -2.41936   1.46260
H     1.47478  -2.49440   0.83447
H     0.27580  -3.67076   0.28639
23

C    -1.82626  -0.62896  -1.94456
C    -1.24342  -1.07826  -0.62025
C    -0.97513   0.80256   0.30913
C    -2.04953   1.63181   0.73380
N    -3.03044   2.18217   1.03914
N     0.23571   1.10103   0.29543
C     1.31062   0.41195  -0.17939
C     1.84240   0.78298  -1.54379
C     2.24256  -0.03466   0.80202
N     2.99743  -0.48117   1.57243
C     0.03282  -1.66119  -0.55236
C     0.41635  -2.59600   0.55859
H    -2.57854   0.15625  -1.79124
H    -2.32880  -1.45041  -2.49661
H    -1.03779  -0.22993  -2.60372
H    -1.98134  -1.42379   0.12015
H     2.40517   1.74388  -1.55266
H     1.00567   0.87034  -2.24855
H     2.52782  -0.00470  -1.88374
H     0.62622  -1.72314  -1.46989
H    -0.19145  -2.41828   1.46266
H     1.47543  -2.49661   0.83428
H     0.27305  -3.66864   0.28372
23

C    -1.82621  -0.62779  -1.94269
C    -1.23964  -1.05418  -0.60914
C    -0.97702   0.78341   0.29842
C    -2.04958   1.62261   0.72940
N    -3.02510   2.17963   1.03784
N     0.23455   1.11108   0.29947
C     1.30064   0.39350  -0.18314
C     1.84025   0.78008  -1.54228
C     2.23972  -0.03923   0.80005
N     2.99646  -0.48075   1.57174
C     0.04238  -1.64414  -0.54685
C     0.41712  -2.59192   0.55735
H    -2.58134   0.15456  -1.79365
H    -2.32527  -1.45383  -2.49381
H    -1.03849  -0.22879  -2.60350
H    -1.98086  -1.42324   0.12072
H     2.40363   1.74366  -1.54905
H     1.00606   0.87043  -2.24928
H     2.52844  -0.00408  -1.88431
H     0.62497  -1.72347  -1.47111
H    -0.19062  -2.41719   1.46271
H     1.47608  -2.49882   0.83409
H     0.27030  -3.66652   0.28104
23

C    -1.82617  -0.62662  -1.94083
C    -1.23585  -1.03009  -0.59802
C    -0.97890   0.76425   0.28771
C    -2.04963   1.61340   0.72501
N    -3.01977   2.17710   1.03654
N     0.23340   1.12112   0.30352
C     1.29067   0.37504  -0.18689
C     1.83809   0.77717  -1.54077
C     2.23687  -0.04380   0.79807
N     2.99549  -0.48034   1.57105
C     0.05195  -1.62710  -0.54135
C     0.41788  -2.58784   0.55612
H    -2.58413   0.15288  -1.79607
H    -2.32174  -1.45724  -2.49101
H    -1.03919  -0.22764  -2.60328
H    -1.98038  -1.42268   0.12129
H     2.40209   1.74344  -1.54544
H     1.00645   0.87051  -2.25001
H     2.52906  -0.00346  -1.88487
H     0.62372  -1.72380  -1.47233
H    -0.18978  -2.41611   1.46277
H     1.47674  -2.50102   0.83390
H     0.26754  -3.66440   0.27837
23

C    -1.82613  -0.62545  -1.93896
C    -1.23207  -1.00601  -0.58691
C    -0.98078   0.74509   0.27701
C    -2.04968   1.60420   0.72061
N    -3.01443   2.17456   1.03525
N     0.23224   1.13116   0.30756
C     1.28070   0.35659  -0.19064
C     1.83594   0.77427  -1.53925
C     2.23403  -0.04838   0.79609
N     2.99452  -0.47992   1.57036
C     0.06152  -1.61006  -0.53584
C     0.41865  -2.58375   0.55488
H    -2.58693   0.15120  -1.79848
H    -2.31821  -1.46066  -2.48821
H    -1.03989  -0.22650  -2.60307
H    -1.97989  -1.42212   0.12186
H     2.40055   1.74322  -1.54183
H     1.00685   0.87060  -2.25074
H     2.52967  -0.00284  -1.88544
H     0.62247  -1.72413  -1.47355
H    -0.18894  -2.41503   1.46283
H     1.47739  -2.50323   0.83371
H     0.26479  -3.66228   0.27570
23

C    -1.82609  -0.62427  -1.93710
C    -1.22828  -0.98193  -0.57579
C    -0.98266   0.72593   0.26630
C    -2.04973   1.59499   0.71622
N    -3.00909   2.17203   1.03395
N     0.23108   1.14120   0.31161
C     1.27073   0.33814  -0.19439
C     1.83379   0.77136  -1.53774
C     2.23118  -0.05295   0.79412
N     2.99355  -0.47950   1.56967
C     0.07109  -1.59301  -0.53033
C     0.41942  -2.57967   0.55364
H    -2.58972   0.14951  -1.80089
H    -2.31467  -1.46408  -2.48542
H    -1.04059  -0.22535  -2.60285
H    -1.97941  -1.42156   0.12243
H     2.39902   1.74300  -1.53822
H     1.00724   0.87069  -2.25147
H     2.53029  -0.00222  -1.88601
H     0.62122  -1.72446  -1.47478
H    -0.18811  -2.41394   1.46288
H     1.47804  -2.50543   0.83352
H     0.26204  -3.66016   0.27302
23

C    -1.82604  -0.62310  -1.93523
C    -1.22449  -0.95785  -0.56468
C    -0.98454   0.70677   0.25559
C    -2.04978   1.58579   0.71182
N    -3.00375   2.16950   1.03266
N     0.22992   1.15125   0.31565
C     1.26076   0.31969  -0.19813
C     1.83164   0.76846  -1.53623
C     2.22834  -0.05752   0.79214
N     2.99258  -0.47908   1.56898
C     0.08066  -1.57597  -0.52483
C     0.42019  -2.57558   0.55241
H    -2.59252   0.14783  -1.80330
H    -2.31114  -1.46749  -2.48262
H    -1.04129  -0.22420  -2.60264
H    -1.97892  -1.42101   0.12300
H     2.39748   1.74278  -1.53461
H     1.00763   0.87078  -2.25220
H     2.53091  -0.00160  -1.88657
H     0.61997  -1.72480  -1.47600
H    -0.18727  -2.41286   1.46294
H     1.47869  -2.50764   0.83333
H     0.25929  -3.65804   0.27035
