13

O 1.390583787 -5.119074261 1.069666793
C 0.882162479 -2.843425622 0.907639842
C 2.781318469 -0.906967345 0.522568800
H 4.710148243 -1.595549303 0.381623161
C 2.341877285 1.695843361 0.326936755
H 3.935414653 2.950358061 0.037905638
C -0.043432275 2.643194739 0.492843578
H -0.429338840 4.646677180 0.347169070
C -2.134777078 0.896533865 0.883366196
H -3.568611518 1.211173170 -0.598133996
H -3.175333074 1.487487866 2.594198223
C -1.590061727 -1.793182417 1.067058649
H -3.161292031 -3.078811779 1.353801591

