10

C 2.555741313 1.288135951 0.430881802
C 1.572304651 -0.425603022 -1.601029093
H 2.594595273 -0.364495099 -3.385760617
C 0.168973905 -2.730619838 -1.034649374
H 0.200106274 -4.306401510 -2.350249263
H -0.192158445 -3.225598977 0.926285599
O -1.089979534 -0.530855759 -1.905634255
H 2.447383170 3.258577324 -0.170066167
H 1.451308681 1.076954106 2.158294039
H 4.529141336 0.852973164 0.849533863

