11

O 4.806472081 1.960742996 -0.576485502
C 2.976227920 0.717318834 -1.059396868
C -0.912983761 -0.344623079 1.308215973
C 0.285569781 1.496149595 -0.488856577
C -2.703624156 -1.977982117 0.690091679
H 3.164013974 -1.166370031 -1.966068301
H -0.187128070 -0.320200070 3.229386271
H 0.314986883 3.406055274 0.288321486
H -0.758784263 1.507943584 -2.274264245
H -3.472304234 -3.286815747 2.062899909
H -3.480033573 -2.056388668 -1.206273601

