15

C -2.119227637 -1.243500261 1.515106818
N 0.036870446 -1.735558526 -1.329873520
C 2.364808601 -2.228197579 -0.407870701
C 3.494471307 -0.034980871 0.516504499
C 1.804925723 1.943896296 0.194040537
C -0.338509929 0.869382790 -0.955246351
N -2.123820314 2.127392349 -2.415403807
H -3.542048885 0.231935838 1.727276933
H -3.027424418 -3.038779991 1.129887905
H -0.812284073 -1.335011061 3.090580899
H 3.066221800 -4.143311644 -0.357117760
H 5.355983405 0.090331630 1.348569242
H 2.079829700 3.915280944 0.633480379
H -3.542839925 1.013113583 -3.025016095
H -2.747842348 3.765569792 -1.674560358

