13

C 2.760152761 -1.350654214 -0.145818751
C 0.117538055 -0.360042659 -0.274057078
C -0.739967164 2.938065393 -0.189130197
N -0.455408878 1.403797773 -2.336758867
C -1.803143711 -1.237923339 1.216993016
O -4.091976233 -0.277534797 1.336504776
H 3.163911494 -2.546979390 -1.777417528
H 4.104248435 0.211856156 -0.174308546
H 3.081193854 -2.435642453 1.576990567
H -3.777343542 1.541923675 0.837856924
H 1.152574105 3.632843593 0.323769782
H -2.177085249 0.945402995 -3.057099978
H -1.508036634 -2.870311625 2.432108816

