12

O -2.961200705 -2.362952002 -0.579759887
C -1.000962322 -1.365033065 0.736658953
C -0.773744790 1.102799720 1.764744684
C 1.959375363 1.620629937 1.203378333
C 0.492228189 0.666092214 -1.019590033
C 0.526259303 -1.963067813 -3.078724436
N -1.551796965 -3.163937591 -2.788277423
H 0.405242640 -2.753090061 1.327881862
H -2.256614732 2.498954098 1.846163629
H 3.350867542 0.342652738 2.005885397
H 2.526235489 3.585129633 1.200668806
H -0.458102040 2.008547284 -2.235904959

