17

C -3.898986006 -0.671855633 0.097085265
C -2.828168483 1.560786600 -1.294467063
C -1.114563813 -0.447119991 -0.329780660
C 2.247519386 -2.179570333 -1.918646758
C 3.154709303 -1.276806193 0.604132819
C 3.058060526 1.501077113 1.184663355
C 0.810701238 -0.128968970 1.726953053
H -4.955191675 -2.058935169 -0.971387409
H -4.546077420 -0.403693745 2.021271699
H -3.163047889 1.670102835 -3.309641409
H -2.760171772 3.368877766 -0.337662991
H -0.478802592 -2.066965428 -1.705986013
H 2.445040628 -0.668289965 -3.336113732
H 4.353002553 -2.523333436 1.698773665
H 2.971985636 2.813471970 -0.386482856
H 4.096004921 2.162209835 2.819587539
H 0.262324335 -0.454947067 3.672490519

