10

C -1.272741184 1.127577809 0.960984146
C -1.416784556 -1.606748538 0.827130196
H -0.511826897 -2.669936632 -0.699895673
H -1.535497662 -2.658225167 2.585197117
C -3.891725187 -0.386439525 -0.402421260
H -5.453035014 0.137147818 0.804640660
H -4.470905060 -1.601355675 -1.944824453
C -2.127723392 1.772698485 -1.562675533
H -2.865914043 3.660469366 -1.882717527
H -1.272111112 0.935637514 -3.250304802

