15

C 3.939452393 0.213149372 0.746745404
C -0.176425114 0.568933892 1.480386313
C -1.376049507 -1.916478089 0.773619860
C -3.335056185 -0.171418209 -0.547264157
C -1.171209658 1.786114236 -0.892251707
H 4.524608110 1.980516920 -0.121584204
H 5.305215894 -0.437814678 2.144343911
H 3.562915317 -1.236920121 -0.647505983
H 2.193261834 0.773984502 2.174586596
H -0.402343271 -3.012570736 -0.688084053
H -1.969978749 -3.166761541 2.298858823
H -4.794483998 0.488316059 0.740946307
H -4.200320638 -0.898967341 -2.265303863
H -1.586339704 3.803378223 -0.844033418
H -0.154281927 1.321356430 -2.635825412

