12

O 0.997033336 -2.173237200 -3.439842178
C 1.105664620 -0.694974146 -1.752615874
C -2.824381548 -0.524390685 1.175681449
C -0.791980288 0.876599862 -0.250963623
O 1.265726029 1.754487874 1.311489565
C 3.165468326 0.412667109 -0.078529572
H -2.022572492 -2.095694877 2.241857634
H -4.218404107 -1.265638611 -0.150920823
H -3.776399453 0.746125082 2.489330328
H -1.585735993 2.432331067 -1.366024944
H 4.209102875 -0.945817733 1.076708479
H 4.487826499 1.664156509 -1.059138165

