13

N 3.417505219 0.836425740 -0.196350595
C 2.758185916 -1.508235263 -0.410237224
C 0.157677293 -2.192414065 0.328578738
O 0.051708236 -4.637336377 1.036670001
C -2.078526470 -0.956804676 0.111559755
C -2.544041225 1.702542478 -0.268020366
N -0.967671735 3.495724120 0.120928450
H 5.161881452 1.330000660 -0.787128208
H 2.172385368 2.259157774 0.316324922
H 1.713539153 -5.315218573 0.686880335
H -3.757511792 -2.127155794 0.237560079
H -4.473804750 2.130743703 -0.877736173
H -1.733731784 5.202927438 -0.295788853

