13

N 3.792318827 0.426524433 0.280497907
C 1.990677864 -0.429963281 -1.156237112
C -0.051026687 -1.740415235 0.135386159
O 0.531748466 -4.144240520 0.821999117
C -2.414845110 -0.856252160 0.487664160
C -2.998731837 1.660896958 -0.353045381
N -1.248921602 3.209838528 -0.969887609
H 5.333621803 1.213318727 -0.513431653
H 3.649498391 0.619150567 2.184283443
H 2.128099712 -4.612042279 0.089209341
H -3.866100160 -2.096592289 1.216314359
H -5.005982694 2.140121620 -0.511617062
H -1.962764001 4.830013967 -1.707894787

