15

O -1.676046137 2.845736284 -0.180128052
C -3.045565865 0.926691135 -0.863237949
C -1.957960563 -1.823589357 0.491043482
C 0.630983918 -1.895423479 -0.080461458
O 2.362602422 -2.643552710 -1.159755517
C 2.396285165 1.102609538 2.216689959
O 4.789107557 1.367867824 1.167610032
H 0.632022115 1.661071304 0.813008046
H -3.041054011 0.426996279 -2.896643881
H -5.017269178 0.879006938 -0.173687865
H -2.916471511 -3.437387368 -0.347670149
H -2.277891177 -1.626549107 2.508288117
H 2.019782651 2.768088666 3.384539495
H 2.256198539 -0.524406955 3.515098084
H 5.063524344 0.058644041 -0.063424613

