11

C 2.213758389 2.216465006 0.194923398
C 1.009940657 0.272656413 -0.724792984
C -0.165753604 -1.717137230 -1.561353405
N -2.852927297 -2.662844452 2.131959477
C -1.999442962 -3.199858034 -0.028648626
C 0.611179664 6.747885427 -0.087680760
N 1.302271216 4.656787876 0.014561776
H 4.018089321 2.013955076 1.142851917
H 0.201708743 -2.352033996 -3.478374809
H -2.134641641 -0.992812293 2.782377793
H -2.661660595 -4.938657119 -0.915512138

