10

C 2.949683939 0.641822613 0.750064254
N 0.290617277 0.880146122 0.119243192
C -1.350247432 -0.969644383 -0.395594284
N -0.329862145 -3.282973159 -0.292896570
H -1.451050903 -4.762538858 -0.660180848
H 1.491244018 -3.691282164 0.124330921
H -0.418091984 2.635306966 0.061255869
H 4.009587084 -0.278449973 -0.769214833
H 3.752832055 2.514131679 1.031421665
H 3.224142773 -0.436106138 2.494119140

