12

C -4.370812447 0.775725166 0.150248515
C -1.687196522 0.195301438 -0.573094313
H -1.455190424 -1.011671608 -2.221992720
N 0.173052293 2.292149293 -0.296962146
H 1.468726627 2.405534637 -1.700495054
C 0.382520157 0.149020268 1.216135080
C 1.752577683 -0.926624276 2.988470076
H 1.191059662 -2.727995311 3.773136482
H 3.447353008 -0.033644514 3.706482251
H -5.390766309 -0.962654267 0.592015611
H -4.411248542 1.996001922 1.808925593
H -5.354867030 1.728487605 -1.392568510

