8

O -1.130374660 -3.437719014 4.071977507
C -1.274455695 -1.719207236 2.604770201
C 0.165244909 4.617340845 -3.681546446
C 0.432933647 2.780115923 -2.137454064
C 0.698465377 0.931300385 -0.590346208
C 0.892556615 -0.936382916 0.999640119
H -3.025977701 -0.612949884 2.356691358
H 2.654036835 -1.969070112 1.181871322

