17

C -3.789688121 -0.828238803 -0.356584838
C -2.801550028 1.730971896 -1.027803709
C -1.017960579 -0.282467172 -0.161952345
C 1.124802689 -1.607050951 -1.577127648
C 2.616655709 -1.325869133 0.885351165
C 3.219359630 1.419405418 1.409568032
C 0.321611185 -0.436964660 2.377312806
H -4.393338908 -2.062151747 -1.873371830
H -4.812780345 -1.036647722 1.401767130
H -2.739905914 2.252231720 -3.005964178
H -3.175748795 3.274258895 0.262666413
H 0.678146342 -3.568462456 -2.024248320
H 1.910278295 -0.695751465 -3.255331531
H 3.976994599 -2.700807689 1.564378006
H 3.220358520 2.661716039 -0.223638089
H 4.784526408 1.668297182 2.710663707
H 1.504046723 2.063373398 2.710722647

