9

C -2.107964207 0.404371627 -0.048353726
C 0.443081760 -0.495006521 -0.953844572
C 0.757448926 -1.486379012 -3.175220182
C 2.674459030 -0.237129202 0.758876160
O 2.475267194 0.672881074 2.826110364
H -1.994626749 2.413312825 0.389005754
H -2.603922489 -0.611250321 1.672853388
H -3.566185809 0.095307052 -1.465665630
H 4.497924421 -0.921830872 0.032502288

