9

C -2.298759555 0.287320045 0.049190686
C 0.091311812 -0.457806771 -1.172992973
C 1.679310771 -0.956649303 -2.882831816
C 2.747729513 -0.232060201 0.518604854
O 2.774101283 1.536769466 1.905055035
H -2.097177292 2.152436077 0.896677068
H -2.833151993 -1.057298290 1.515823572
H -3.782815244 0.355444615 -1.374393823
H 4.089840804 -1.801573916 0.614938443

