10

O 3.900171280 -1.711500082 -0.262637935
C 1.834771585 -0.808269123 -0.414810607
C 1.122477079 1.765913537 0.520987080
N -1.353969512 1.847559740 1.792111282
N -2.965881311 0.259578676 1.239628628
C -2.372367090 -1.559790242 -0.709413184
N -0.203302406 -2.141209120 -1.523783155
H 2.526837404 2.500931772 1.830450632
H 0.998011591 3.088412343 -1.070168610
H -4.049684805 -2.475026065 -1.462007668

