15

C 3.805527427 -0.064430382 -1.395686577
C 1.210945571 -0.197370347 -0.319036396
C 0.071118312 -2.102506282 0.834671129
C -2.592325164 -1.452907163 1.514270387
C -2.698674396 1.675012627 -2.373379530
O -2.855737811 1.177641548 0.801716195
C -0.580002282 1.967397610 -0.560248521
H 3.711685971 0.246325366 -3.435561646
H 4.852324017 -1.802783964 -1.050221303
H 4.864387821 1.511119892 -0.581591844
H 0.872573706 -3.949942622 1.187365947
H -3.993172639 -2.536210899 0.457510575
H -2.999674527 -1.564999518 3.536311072
H -3.697000210 3.501334755 -2.386795981
H 0.102171407 3.791696862 0.123013725

