10

C -2.236973259 -1.411960350 0.088286682
C 1.823581723 0.792088399 1.114373688
C 3.271307426 -0.543412895 -0.646700903
N 4.572054238 -1.746897147 -1.925203767
C 0.917960997 3.190143652 0.474910134
N 0.179311085 5.223761403 0.168959732
H -3.897431007 -0.517940804 0.906503379
H -2.277895883 -3.462732752 0.240126195
H -1.940741398 -0.814869501 -1.849854680
H -0.618900197 -0.840528845 1.411378428

