10

C 1.756082180 1.591728390 -0.271459366
C 1.355692980 -0.741239025 1.256833696
N -0.754898476 -2.201563646 0.156315858
C -2.535143960 -1.049383947 -0.958474627
C -2.521947039 1.725609836 -0.524261239
N -0.331769937 2.588974925 -1.002332336
H 3.545492873 2.204205011 -1.048845790
H 3.037756420 -1.929612234 1.254977456
H -4.090085297 -2.064118536 -1.822149178
H 0.856912166 -0.349251416 3.230629806

