16

C 3.312867738 -1.683760282 0.888928756
C 0.479825935 1.896391000 -0.846213368
C 2.065954273 0.853255225 1.298231114
O 2.323216542 1.993598946 3.255078345
C -1.637146502 0.122835864 -1.707842574
C -3.553865191 -0.422146505 0.370134533
H 1.894025951 -3.177478008 1.041764552
H 4.145615107 -1.819102033 -0.993623344
H 4.747713503 -1.989573281 2.328533721
H 1.754391442 2.274187031 -2.433111769
H -0.292719408 3.701130169 -0.214289481
H -0.832237558 -1.646725467 -2.411503507
H -2.590575618 0.990179659 -3.321259823
H -4.416026639 1.323432634 1.054794440
H -5.061105665 -1.654832978 -0.307633883
H -2.675656965 -1.344204314 1.996451393

