15

C -4.677578737 -0.103500262 -0.759028094
N -2.075447936 0.327261240 -0.064401564
C 0.001705686 -0.971758816 -0.752009066
C 2.096040357 0.170582837 0.246646789
C 4.774945194 -0.700731574 0.053283625
C 1.253087711 2.425128149 1.470924983
N -1.367688924 2.449573589 1.204107389
H -5.033816111 0.424059191 -2.721507730
H -5.851319985 1.056668387 0.465585753
H -5.165978492 -2.085927166 -0.483901129
H -0.170387685 -2.635160720 -1.926145418
H 4.905982469 -2.563818494 -0.821353530
H 5.638864559 -0.803692811 1.922693077
H 5.901917081 0.611600563 -1.069109380
H -0.547506268 2.377957561 3.289271446

