13

C 1.086802149 -1.810594618 0.292053450
C 1.996977058 0.379742581 -1.427469691
C 0.431288962 2.685237725 -1.129848050
C -1.382493114 2.075987755 0.850501667
N -3.152018711 0.149769904 -0.156738533
C -1.213884417 -0.699068596 1.536754689
H 2.509571770 -2.353003558 1.682308254
H 0.611500785 -3.501720788 -0.793600388
H 2.402711178 -0.093135398 -3.394929266
H 3.806474482 1.129845329 -0.714719006
H -2.273785407 3.496198196 2.020020738
H -2.774154479 -0.278339159 -1.991928806
H -1.877312419 -1.355135095 3.359635777

