13

C 0.994558400 -1.943616295 0.172180657
C 1.886417120 0.175495331 -1.552065401
C 0.591162003 2.479153567 -1.324321485
C -1.276085508 2.010869078 0.749283552
N -3.250057154 0.213858643 0.020164871
C -1.184138616 -0.714002743 1.546584458
H 2.481504254 -2.569827351 1.458922595
H 0.422379168 -3.591016886 -0.938278028
H 3.217774036 -0.168822727 -3.080284348
H 2.945009909 2.017288439 -0.498014549
H -1.898568153 3.528990197 1.969449172
H -3.068300631 -0.287129674 -1.824581690
H -1.689982640 -1.325453412 3.432997231

