8

O 1.009413329 1.728455536 1.893699066
C -0.527212216 1.209366157 -0.259920755
C -1.109795108 -1.537974148 -0.015950630
N 0.971414376 -2.414358108 0.857417762
C 2.366589290 -0.059197447 0.544283888
H -1.504106004 2.817056459 -1.060466208
H -2.791606894 -2.598857191 -0.512309023
H 1.528764492 0.900888606 -1.656218922

