11

N 4.235002006 -0.331913802 -0.918737561
C 2.211068440 0.277303759 0.126130942
C 0.071514701 -1.173965351 1.314022761
C -2.224261014 -1.463887152 -0.329948449
C -2.932942477 0.891824195 0.195967094
N -0.980431317 1.385854974 2.034775682
O 1.203876786 2.582930088 0.682380557
H 5.251738326 1.202235616 -1.471801476
H 0.527981731 -2.524241506 2.793520317
H -2.975977362 -3.009680419 -1.428217192
H -4.379364667 2.213827100 -0.375192499

