16

C -3.266148493 1.084977411 -1.306046662
C -0.770122431 0.684640216 0.008926443
C -0.972317438 0.143985471 2.796885503
C 1.418931606 -0.115418651 -1.490605271
O 1.151635421 2.441329791 -0.700399455
C 3.648495344 -1.570448600 -0.514228890
H -2.980228943 1.505880532 -3.301978116
H -4.277810256 2.667219848 -0.449085458
H -4.453521545 -0.596078787 -1.148064424
H 1.075181108 -0.375434667 -3.506308041
H -2.022636837 1.657920432 3.727129456
H 0.874200155 0.017274591 3.691191476
H -1.988262246 -1.623972296 3.117790819
H 3.374301469 -3.591684110 -0.830518305
H 5.356475074 -0.995213171 -1.518271429
H 3.957751821 -1.252497134 1.494397952

