16

C -3.245657210 1.288552674 -1.248899228
C -1.037016483 0.101944432 -0.063402749
C -1.192735074 -0.692667697 2.599693149
C 1.318450919 0.068227107 -1.535753720
O 1.538260177 2.243932062 -2.727175415
C 3.708370503 -0.811961024 -0.145435288
H -2.948611179 1.515113148 -3.272323853
H -3.415267632 3.206774111 -0.478562974
H -4.984147854 0.287637443 -0.757145039
H 0.781466457 -1.644655083 -2.779905577
H -0.096213894 0.694682958 3.687968699
H -0.242792976 -2.498189647 2.894080411
H -3.110961122 -0.744470136 3.341168693
H 3.520116006 -2.680999296 0.713352091
H 5.235523909 -0.875591372 -1.521639431
H 4.217912476 0.572017452 1.297506442

