11

O 3.953765198 -0.593976675 1.523928191
C 2.413767191 -1.318281429 -0.532107155
C 0.112246122 -2.660607016 0.537239783
C -1.457586786 -3.852408528 -1.507513293
O -3.660344663 -3.443838779 -1.852265101
H -0.429271547 -5.203606038 -2.746523811
H -1.052414822 -1.372269431 1.643577524
H 0.781201857 -4.175340631 1.781205975
H 1.812125372 0.333058409 -1.631961925
H 3.441185490 -2.590320996 -1.811951951
H 5.371411035 0.341790342 0.897296256

