17

O 4.480872175 -2.304338650 1.783694801
C 3.170846203 -0.839833558 -0.030736698
C 0.422387898 -0.813064435 0.617700032
C -1.223630150 3.054478645 0.007960811
C -3.699502529 2.416242619 -0.248520396
O -3.786915760 -1.796825677 -0.422978740
C -1.454279671 -2.092789990 -0.915775774
H 6.261304137 -2.177998743 1.473741903
H 3.845834813 1.118213366 -0.030154095
H 3.422345922 -1.595264937 -1.945141776
H -0.037300208 -0.643633669 2.607253131
H -0.493067567 3.688366732 1.813285720
H -0.109798946 3.543743214 -1.640867354
H -4.603116706 2.338037324 -2.077026877
H -4.944339658 2.317868522 1.367257329
H -0.820781434 -2.483482665 -2.868986057
H -0.384048095 -3.678062471 0.337323313

