14

N 3.187191030 -3.272693389 -0.202596102
C 1.857834558 -1.399882581 -0.716946029
O 2.819671746 0.755057836 -1.928435312
C 1.072990424 2.606781021 -1.901801078
C -1.048058852 1.931585448 -0.372901149
C -2.790829687 -1.650363209 -1.975363354
C -0.914786314 -0.981333208 -0.107066005
H 5.013930372 -3.032924466 -0.750312073
H 1.301348614 4.085344333 -3.294942269
H 0.523134092 3.169073130 0.776180212
H -2.798547140 2.983751600 -0.392747903
H -2.489037685 -1.211027869 -3.947858670
H -4.601118925 -2.379868112 -1.386200454
H -1.330790434 -1.683201604 1.775869748

