10

O -4.455575829 -0.147070392 0.424995645
C -2.243543043 -0.208347048 0.132200969
C -0.417343067 -2.124496817 -1.102224279
C 1.750740963 -0.346402219 -0.418977037
C 4.171929846 -0.313769767 -0.710405479
C -0.037611465 1.564176637 0.819055075
N 0.034851198 3.638864884 1.927440579
H -0.724045976 -2.386537882 -3.122100491
H -0.369079121 -3.951997888 -0.153306961
H 1.804532754 4.365011781 2.107405151

