8

C 4.994808007 -2.869604943 -0.555724725
N 3.712557475 -0.474687278 -0.852989813
C 1.603405556 0.093702693 -0.198894657
N -0.404339578 0.911669891 0.604377859
H -1.937923986 0.769028355 -0.522350196
H 3.909857468 -4.216422200 0.570679451
H 6.813775850 -2.547450575 0.354970313
H 5.355696998 -3.684032437 -2.414054562

