9

N 3.494605327 0.146067893 -0.162478652
C 1.096895101 0.850066387 -0.443893171
N -0.718093074 1.949424614 -1.076007693
C -3.731178156 0.024954249 0.148758371
N -2.735950944 -1.698851068 1.192660581
O -0.588195454 -2.474203883 1.636353989
H 4.814957934 1.497664060 -0.365986395
H 3.837747560 -1.216462683 1.112422980
H -5.471500700 0.906558994 -0.372997733

