8

C -0.530812428 0.474689716 -1.069556130
H -0.144450608 2.254027848 -1.970615171
C 0.745802336 -1.604291214 -0.463370956
H 2.634029549 -2.375013708 -0.600606760
O -1.177151202 -2.963748169 0.639872547
C -2.799316390 -0.796255661 0.082439019
H -4.320899148 -1.350700928 -1.191946322
H -3.549378093 0.002322984 1.827771718

