10

C 0.125507597 1.489558911 0.188471287
C 1.887560026 -0.795524866 -0.089553686
O -0.211187269 -2.504808432 -0.245464520
C -1.994924967 -0.470892897 -0.065212086
H 0.235310511 2.880450421 -1.321960651
H 0.215560133 2.446449230 2.006268161
H 3.031447608 -0.833294407 -1.811022112
H 3.096974579 -1.211853811 1.533366844
H -3.153178606 -0.319238691 -1.770651382
H -3.233069612 -0.680845457 1.575758163

