11

C 6.176861971 -1.930632043 -0.387695437
C 3.841828027 -1.485722691 -0.311633110
C 1.408696661 -0.806879342 -0.182999056
C 0.320183100 1.763141044 0.320230173
C -2.458853940 1.248058753 0.225598717
C -2.759185033 -1.180278434 -0.254158243
O -0.469726010 -2.454049179 -0.508966230
H 0.974877545 3.102073551 -1.110185412
H 0.987139014 2.470451397 2.142831431
H -3.942798418 2.615150750 0.501187097
H -4.403789377 -2.358935881 -0.483412749

