11

C 4.193622107 0.016541699 -1.178104134
C 3.946303198 -1.747668136 0.485781766
C 1.339753631 -1.119337847 0.573253031
C 0.370920527 1.426547789 0.686838705
C -2.281011323 1.191179943 0.009870493
C -2.672310600 -1.261949790 -0.447390940
O -0.519378470 -2.687260091 -0.136430554
H 2.368513296 1.880618854 -1.057424599
H 1.078802201 2.770576585 2.056230404
H -3.682941763 2.665270860 -0.066453712
H -4.334590195 -2.322026430 -0.957796896

