15

C 3.924661204 -0.123288113 0.354248815
C 1.366304321 0.022476043 -0.387641788
C -0.660366193 -2.021747872 -0.257759683
C -2.552288028 -0.284931677 -1.532604623
C -2.732903742 -0.784265765 1.258100720
C -1.764194623 1.867662835 1.766904981
C -0.867290731 2.040903459 -0.820047030
H 5.208859363 1.400066754 -0.119382125
H 4.634906265 -1.654290873 1.524043994
H 2.857727901 -0.293580008 -2.105617035
H -0.383406439 -4.027582473 -0.566536736
H -3.862085192 -0.631527309 -3.055556242
H -4.185232856 -1.846263066 2.230430781
H -0.816198243 2.525445186 3.463283173
H -0.443217650 3.730507492 -1.903160584

