12

N 3.698775306 0.748109389 -0.115222687
C 1.214377390 0.265549568 -0.039892988
C 0.071623663 -2.348194583 0.067344245
N -2.614724522 -1.862592227 0.116336246
C -2.756631219 0.543684429 0.047588690
O -4.933577838 1.799615366 0.061929197
N -0.525928317 1.979545847 -0.048419734
H 4.971650055 -0.650584687 -0.095644878
H 4.301393754 2.545023996 -0.175347744
H 0.692110171 -3.372874725 1.753994127
H 0.611860740 -3.477844590 -1.579415936
H -4.532874565 3.571199196 0.000303717

