12

N 4.820653247 -0.742455215 0.557613128
C 4.109467500 1.572616513 0.475505549
C 1.785819874 0.039029345 0.498527931
O 0.212530675 -0.145749795 2.614235480
C -1.902226549 -0.662059198 0.978124491
C -2.340587925 1.525518226 -0.730442453
C -0.321843055 -0.392347300 -1.363031353
H 3.061429171 -2.169950399 0.410390613
H -3.261053319 -2.058062512 1.588032615
H -4.009759049 1.416719909 -1.909961274
H -1.810519029 3.400394486 -0.103839373
H -0.249194688 -1.478841216 -3.085870813

