9

O 4.004373632 1.373260876 -0.150340053
C 1.875428079 0.578195458 0.042230919
N 1.273440024 -1.976536514 0.389736247
O -1.318179857 -2.347460802 0.163718142
C -2.315134769 -0.011616865 0.066161919
C -0.587513792 1.826281858 0.031791108
H 2.238864912 -3.346149803 -0.518309886
H -4.354996837 0.022647177 0.050397843
H -0.893248028 3.832933596 -0.071742829

