14

O 3.646435901 1.998259275 -0.266421488
C 2.441948393 -0.276306645 0.479471177
C -0.287846390 0.308301315 1.099977830
C -1.854170871 1.038144309 -1.174204590
O -3.273116707 -1.312893064 -1.512513754
C -1.814421653 -2.102387418 1.635800753
H 5.389977613 1.659673776 -0.613484865
H 3.349514819 -1.111148265 2.144065819
H 2.515081909 -1.695572715 -1.036691620
H -0.353108044 1.731536792 2.597682311
H -3.268514487 2.477191710 -0.782256268
H -0.811270216 1.541136850 -2.882451244
H -3.527405095 -1.539514407 2.669676284
H -2.330796101 -2.465329842 -2.551292822

