11

O 1.397939886 -2.001262201 3.637370413
C 0.858204361 -1.031298001 1.687384645
C 1.909638849 -0.817380853 -1.017450107
C -0.439087030 0.754218741 -1.525383753
N -1.759386460 -0.337105069 0.667655925
C -0.546785413 2.259850245 0.828117918
H 3.699708169 0.172437547 -1.194157585
H 1.968809160 -2.678101155 -1.921521390
H -1.444365336 1.033521245 -3.280471521
H -3.592784290 -0.755773910 0.977779918
H -1.942045914 3.746709513 1.069228773

