20

C -3.518986233 3.161992855 0.704893280
C -1.411921573 1.456465630 1.492562838
N -0.812525787 -0.667431425 0.150253371
C -2.258139514 -2.978657239 -0.066133857
C 1.683711130 -0.326268737 -0.231942585
C 3.524034731 -2.330305698 0.573437544
C 2.648410251 1.707273407 -1.956461179
H -5.010630230 2.094179147 -0.253325440
H -4.356981655 4.120033696 2.329156575
H -2.910454340 4.635729127 -0.623710967
H -0.355918199 1.825954728 3.202594377
H -2.004108979 -3.834185199 -1.926808844
H -1.715999822 -4.351570310 1.384523435
H -4.249837887 -2.523781698 0.202435834
H 5.380082440 -1.514144626 0.956139890
H 2.891153887 -3.307892921 2.277651617
H 3.795125902 -3.760280789 -0.905557250
H 1.106999409 2.890272310 -2.634392981
H 3.595088830 0.865752872 -3.604962384
H 4.038477595 2.933819178 -1.040635441

