10

N -2.889581143 -0.518327102 -0.876591339
C -1.591688630 -0.723388332 1.086780701
O -2.509531425 -1.573642596 3.280102987
O 0.903775314 -0.194463155 1.538955993
C 2.493399778 0.703514593 -0.240055519
N 1.913467094 1.170095645 -2.491145334
H -4.263804154 -1.947351981 2.968311102
H -1.861632946 0.158959831 -2.344013394
H 4.346794632 0.943071526 0.626665252
H 3.432789399 1.824748591 -3.454749018

