10

C -1.669511237 1.812513276 0.140615806
O -1.195539277 0.487344966 -1.816877579
C 1.645882631 -1.875938683 -1.617391362
C 2.322753351 -1.312906273 0.779909285
N 1.955501784 -0.108754740 2.652053435
H -3.320493199 1.294788033 1.286911428
H -1.159588258 3.823654001 0.095967492
H 0.110453736 1.172551439 2.007381399
H 2.778112492 -1.143869119 -3.153698242
H 0.638219717 -3.621818609 -1.959248242

