15

C 4.043022424 0.028862430 -0.944745521
C 1.224711791 -0.451530499 -1.113545553
C -0.127048706 -0.747788325 1.387201593
C -2.366393156 0.677865964 0.575783261
O -2.236175246 3.097377242 -0.019325738
N -4.639542897 -0.334323430 0.448416759
H 4.844224084 0.379006949 -2.815786563
H 5.123285062 -1.549965669 -0.111104482
H 4.480674075 1.702336706 0.193343965
H -0.530196169 3.075073315 -0.826897854
H 0.744583387 -2.001346521 -2.381814341
H -0.604208710 -2.642617617 2.105581074
H 0.820639497 0.304121184 2.893788977
H -6.047705540 0.575479279 -0.446301608
H -4.934993980 -2.089912069 1.105582020

