11

C -2.593672217 -0.063697036 0.628382843
C -0.626843226 1.950088682 0.942860614
O -1.042652780 4.119464246 1.333382420
N 1.720314672 -1.413641677 -2.507461154
C 2.826712052 -0.621626202 -0.566313484
O 1.892653632 1.184220365 0.968589216
H -2.925146223 -0.370585819 -1.378981417
H -4.319575603 0.599808218 1.524584550
H -1.986650442 -1.854388718 1.439590130
H 2.784077318 -2.734304464 -3.397640947
H 4.684598824 -1.193597375 0.118320194

