13

O 1.634271738 3.261044626 0.944578054
C 2.812734939 1.368892226 0.032586097
C 1.620125342 -0.766189684 -1.265778904
O 1.923011042 -1.588496014 1.316442197
C -1.721337562 -1.529024291 1.153921763
C -2.444882855 0.862108781 0.456852610
C -1.219239088 -0.845778504 -1.503949024
H 4.870747808 1.398879080 0.132798595
H 2.718908846 -1.810819250 -2.657306647
H -2.270362735 -3.131463706 2.279793848
H -4.321780252 1.650592660 0.545138555
H -0.478789628 2.577885899 0.858525066
H -2.160624260 -1.722114542 -3.094264050

