10

N -1.747913744 -1.588158849 -1.651076430
C -1.688608507 0.734354753 -2.758431580
O -2.994956807 1.272806096 -4.562910043
C 0.129987041 2.605424197 -1.679948875
C 2.254130611 2.034833167 -0.485920793
H 2.836313581 0.097411678 -0.156907381
H 3.530752084 3.497225413 0.161768928
H -0.369704640 4.550035093 -2.084927218
H -1.018746100 -1.865135232 0.075034391
H -3.047795553 -2.816158008 -2.288581490

