13

N -1.644794148 -1.993021143 -2.670696982
C -1.840744064 0.577919615 -2.233119843
O -3.324709632 1.860505101 -3.427190027
C -0.150486809 1.644896723 -0.294484979
C 2.207660432 0.485807920 0.320128582
O 1.159970360 -0.980999596 3.096009477
H -1.097671192 -3.133541913 -1.252990749
H -3.014851768 -2.688845968 -3.790824356
H -0.419230053 0.328414766 2.202160686
H -0.287840173 3.679227109 -0.118813129
H 2.842382909 -1.177697012 -0.693640925
H 3.734196200 1.671000814 1.004465497
H 1.906986448 -0.300759437 4.617290616

