9

O -6.005040891 -0.191867163 -0.195344599
C -4.008470766 0.578540692 -0.044577864
C -0.581531392 -1.309774071 -0.196578023
N 0.395128467 0.952120159 0.132672852
C 2.946415809 0.612795474 0.169805423
N 3.589790548 -1.720899807 -0.118171756
O 1.269392665 -2.971651136 -0.358189612
H -1.932698194 1.959295598 0.195624392
H 4.327015644 2.091438363 0.414759187

