13

C 1.531920524 1.412742394 0.313288794
C -1.370184401 1.595288899 -0.129535586
C -2.180477005 -1.126299560 0.147920996
O -0.336246642 -2.425953714 1.199652908
C 1.883304797 -1.381691397 0.774753337
H 2.619829863 2.082440433 -1.301388846
H 2.124494927 2.525760411 1.952469983
H -1.842449863 2.366714976 -1.979345422
H -2.285618381 2.797795614 1.282592289
H -4.060113145 -1.817380322 0.536023820
H -0.452116843 -1.977842693 -2.905323110
H 3.459113171 -2.290092572 1.696998513
H 1.062793802 -2.079137853 -2.672156625

