19

C 3.323872237 -1.421164318 -1.583390295
C 1.841597465 0.647685242 -0.307294412
O 1.130245705 2.683652850 -1.998576693
C -1.529718010 2.886760273 0.629873402
C -0.862606988 0.124205916 0.689092978
C -1.033884526 -1.315314163 3.161655671
C -2.427920257 -0.552568693 -1.577280735
H 5.074203621 -0.666751539 -2.369028209
H 3.811278261 -2.881007985 -0.208361373
H 2.247271397 -2.290364522 -3.109093884
H 2.971748003 1.525029807 1.186121600
H -3.431709459 3.450634650 0.126632192
H -0.373830195 4.320478023 1.539536687
H 0.186157884 -0.508060635 4.626876894
H -0.477148911 -3.281818877 2.857796157
H -2.974059044 -1.329543611 3.860050731
H -0.348758027 1.826461590 -2.916679400
H -4.454510250 -0.348923680 -1.311766958
H -1.896755225 -2.242186465 -2.625339926

