12

C -4.159146170 0.761395052 0.687363746
C -1.374192284 0.377500988 0.147703488
O -0.812241818 -2.169098151 0.798051714
H 0.938767845 -2.482597234 0.452831008
C -0.708102319 0.917098696 -2.595314522
H -1.131681973 2.876621080 -3.085225547
H -1.786074306 -0.321931116 -3.845257634
H 1.303305992 0.603484661 -2.947965706
H -0.275640819 1.651180194 1.368064053
H -4.574427715 0.337344535 2.660450206
H -4.714774405 2.709511389 0.300234925
H -5.290850366 -0.494018081 -0.496955528

