16

C -1.753355380 -1.575846943 -1.794948876
C -0.629902674 0.695231942 -0.496153433
C -0.375941435 3.002059399 -2.148643491
C 1.785748631 -1.981670674 2.948790325
C 1.001001156 0.456894260 1.732321387
O -1.570582374 1.203999392 1.981142627
H -3.584860309 -1.080256100 -2.607495224
H -0.527384559 -2.208811955 -3.330248551
H -2.042834570 -3.138848567 -0.491758365
H -2.223303887 3.568111213 -2.875642296
H 0.853917800 2.612994969 -3.760157352
H 0.409680246 4.581748741 -1.085737780
H 0.403170763 -3.473434215 2.642127252
H 3.605724549 -2.603021089 2.198796464
H 1.994882202 -1.716953794 4.984153183
H 2.324176787 2.005843786 2.045836381

