11

C -2.698554001 -1.187122985 -0.375308037
C -0.680269828 0.241999329 0.032089893
O -0.700875874 2.480244411 1.305579692
C 1.946233320 -0.338475215 -0.860545807
O 3.709644443 -0.387730359 1.137304702
H -4.567182751 -0.634586001 0.257273834
H -2.518355765 -2.962895846 -1.364649677
H -2.354418944 2.789884125 1.984250433
H 2.481933770 1.074220522 -2.284851889
H 1.980365534 -2.192749472 -1.751219820
H 3.543910643 1.167814557 2.057304826

