10

O 4.670664796 2.030197480 0.556960379
C 2.745263798 0.956413635 0.903809291
C 0.112831843 -2.610208965 -4.107398307
N -1.002277855 -1.840936590 -2.365196014
C -2.411385248 -0.986296082 -0.352997779
C -1.694022686 0.885634510 1.157399086
O 0.491620207 2.221802519 0.957316376
H 2.528509094 -1.079181923 1.269146604
H -4.211070912 -1.907789091 -0.063313819
H -2.925236269 1.537049921 2.654442200

