10

O 3.272174584 2.510004272 -1.003356757
C 3.118850937 0.502519788 -0.060405096
C 1.395573609 -1.803640917 -1.733051615
N -0.765434190 -1.546433337 -2.225917889
C -2.687866712 -0.528890822 -0.808020113
C -1.774053815 0.338017466 1.444081726
O 0.557006470 0.087329403 2.102584497
H 4.476711981 -0.547029131 1.074327122
H -4.572812510 -0.334669703 -1.542088611
H -3.020150352 1.322792999 2.751848643

