9

C -1.199689191 3.021710435 1.700557529
C -2.076740263 0.710813263 2.086701028
C -3.117471115 -0.991466978 0.085297381
H -3.055309387 -0.096557314 -1.770767865
H -2.050537150 -2.757628843 -0.007189765
H -5.078159990 -1.495836147 0.496369316
H -2.057073240 -0.047556526 3.997218316
H -1.179902171 3.863092057 -0.169969224
H -0.471642457 4.161147768 3.237234285

