15

C -1.270774149 2.613682036 -0.185226684
C -0.607729081 0.154917593 0.520704850
C -2.655525372 -1.781009840 0.935443552
N 1.671184117 -2.420280435 -2.295793365
C 2.168270962 -1.051973476 -0.171083180
C 3.981168834 1.076844521 -0.288113087
N 5.318223465 2.780046589 -0.439923291
H -0.307083235 1.559073582 2.250745923
H -3.217268062 3.147716787 -0.561514298
H 0.182825503 4.046608349 -0.386430549
H -3.684083838 -2.135480547 -0.810296496
H -1.846012810 -3.569215909 1.550108514
H -3.996102131 -1.111918499 2.353664773
H 1.587344471 -1.230562969 -3.805667229
H 2.666859137 -2.239076392 1.446886949

