14

C 2.145904787 0.575752496 -1.539770975
C 1.214425899 0.429963338 1.155538442
C -1.511011592 1.423617900 1.077868166
C -2.469371721 -0.409795085 -0.898432321
O -1.513182717 -2.737234182 -0.144964803
C 0.711857091 -2.319010900 0.791029302
H 2.036197039 2.426570860 -2.442561383
H 3.976209569 -0.291693495 -1.854287372
H 2.384231150 1.035562055 2.731812463
H -1.601258808 3.386519323 0.457656726
H -2.484218373 1.230876229 2.897967105
H -0.245295522 -0.035118784 -2.443405693
H -4.447007206 -0.547470590 -1.409889286
H 1.935315238 -3.930159646 1.060311930

