10

N 2.259682476 0.775055655 0.171708282
C 1.619093835 -1.330316642 1.143209094
O 1.963227532 -3.133802034 2.332975862
N -1.878733229 -1.713265559 -0.629966471
C -2.755598219 0.599550233 -0.348858069
O -1.718067693 2.579611729 -1.233373068
H 3.929736329 1.489762132 0.754043677
H 0.503186238 1.983017349 -0.834404659
H -0.806280621 -1.762342143 -2.232927639
H -4.398435273 0.854289736 0.884879772

