14

C 2.258111849 -0.557820016 -1.102400232
C -0.247770968 -1.903783381 -0.874518914
C -2.440564301 -0.122203392 -1.308012941
C -1.262569714 -1.243429396 1.712369810
N -0.337426927 1.342761149 2.228911498
C 1.504255689 1.851127202 0.196293638
C -1.223857938 2.305067159 -0.230713828
H 2.801694195 -0.237290812 -3.065912527
H 3.789085204 -1.547005886 -0.135789540
H -0.448223988 -3.839301784 -1.511499973
H -3.457951140 -0.904813435 1.109761943
H -1.413714073 -2.646659514 3.203727740
H 2.806024068 3.380382796 0.562577666
H -2.100980573 4.145443841 -0.357472461

