9

C -2.634771002 -0.317903845 0.110365221
C -0.611768295 1.007712670 -1.351047504
C 1.031899898 2.629973781 -0.388723335
H 1.012573612 3.119414869 1.603138405
H 2.455724327 3.529922569 -1.551750402
H -0.515869872 0.578169078 -3.359018573
H -2.595197415 0.212510380 2.102213752
H -2.414192455 -2.367768460 -0.019729723
H -4.504580358 0.132632318 -0.643352497

