14

N 4.844449793 0.034461140 1.430700027
C 2.798569627 0.381314285 0.222369515
O 1.955557947 -1.238369466 -1.581908938
C -0.679060762 -1.090647118 -2.180158964
C -2.213033906 -0.708441562 0.213083307
C -1.372655199 1.783183781 1.427874017
C 1.278074860 2.531095826 0.990999138
H 5.510150739 -1.748473500 1.119681002
H -1.124158349 -2.861911112 -3.127577768
H -1.874913544 -2.305296817 1.477884259
H -4.227274633 -0.685733838 -0.231141983
H -1.459182395 1.732825320 3.509918325
H -2.603017102 3.374474114 0.944878369
H -0.997198933 0.458665953 -3.518811377

