17

C 4.206428138 0.101860018 -1.929315717
C 1.680854979 -1.062989653 -1.327427458
C 0.263189301 -0.273727604 4.119161020
O -1.909196540 -0.151389324 2.733496927
C -2.139523333 0.343503171 0.409460565
C -4.689558089 0.423114838 -0.743840517
O -0.132004683 0.967866850 -0.980130926
H 4.075588566 1.322463488 -3.585457992
H 5.586913814 -1.380101760 -2.315658941
H 4.886023428 1.222091025 -0.338611539
H 0.987126239 -2.231399568 -2.881737230
H 1.749744756 0.961775299 3.435024076
H -0.216104393 -0.230463836 6.103295235
H 1.773578322 -2.197254749 0.400903432
H -5.058347364 2.304725024 -1.514332899
H -4.830437002 -0.916540849 -2.310994738
H -6.121327191 -0.020767089 0.662173073

