17

C 4.262271359 0.091487160 -1.221938581
C 1.549142505 -0.764004990 -1.285409965
C 0.741891019 0.137495755 3.289267308
O -1.633709147 -0.134830995 2.636850759
C -2.077826931 -0.163541774 0.075244113
C -4.786303034 0.181290555 -0.617958055
O -0.343365712 1.207555535 -1.297519575
H 4.766371374 1.000854929 -3.012688523
H 5.473963731 -1.562136092 -0.999229217
H 4.681650341 1.406460850 0.302423775
H 1.275271811 -1.863896932 -3.018164496
H 1.774969766 1.719468377 2.520599985
H 1.156320978 -0.562036448 5.166435806
H -0.374370789 -2.142778613 -0.190516179
H -5.320818871 2.175001221 -0.506623536
H -5.081615694 -0.453691835 -2.553641601
H -5.988300903 -0.909585409 0.646247595

