11

C 2.410499080 -1.292555359 -1.086596944
N 1.096926357 0.428157327 0.830800592
C -1.257810723 1.489302872 -0.231825667
C -3.272871591 -0.396432000 -0.216380425
N -4.892852199 -1.830972952 -0.143901737
H 1.216682496 -2.986806929 -1.151717567
H 4.168178834 -1.840560553 -0.133294950
H 2.301519425 1.890971681 1.128116211
H 0.690380467 -0.325405321 2.572115960
H -1.883632457 3.130654733 0.851793918
H -0.806285043 2.008522265 -2.176203994

