17

C 4.150680991 1.070812685 -1.070203267
O 1.733970268 1.699084412 -0.198940313
C 0.154925738 -1.056175074 1.576738175
C -1.120192230 -0.591533769 3.797402096
C -1.917863561 -1.633467092 -0.022484396
C -3.468618663 0.408363050 -1.115188405
O -1.634965003 0.644204423 -3.013134158
H 4.970263866 2.648904112 -2.127776380
H 4.134242036 -0.586300607 -2.328239169
H 5.417258323 0.657320445 0.517367631
H 1.778050681 -2.301730866 1.601591381
H -0.396861346 -1.256286753 5.591890200
H -2.822725448 0.533938923 3.828630406
H -2.118609545 -3.518752738 -0.795895593
H -5.291274931 -0.184673504 -1.869354461
H -3.680392352 2.085657465 0.072289186
H 0.115157378 1.390442587 -1.904226352

