14

C -2.524375545 -0.780728802 -0.291770558
C -1.782403835 1.933784938 -0.048634332
C 0.372939624 2.861208474 0.821829854
O 2.437099677 1.535054049 1.551228536
C 3.284020899 -0.484945279 0.009949748
N 1.817619032 -2.763847762 -0.123709692
C -0.556435356 -2.826898209 -0.240233437
H -3.911375088 -1.235899348 1.182929153
H -3.565916788 -1.066923647 -2.061606448
H -3.230242468 3.305907008 -0.513916386
H 0.622989300 4.878998957 1.092171806
H 3.564356667 0.200677557 -1.926184497
H 5.115423839 -0.974940246 0.808753195
H -1.380786143 -4.715285652 -0.407546065

