29

C     5.12503   0.02948  -0.04413
N     3.81675   0.41555   0.45154
C     2.83714  -0.49828   0.63357
O     2.99986  -1.70319   0.40844
N     1.54426  -0.04776   1.03617
N     1.49296   1.25133   1.34017
C     0.59342   2.00595   0.75036
C     0.30714   3.43127   1.16773
C    -0.39287   1.11644  -0.50525
C    -1.82206   0.94855   0.11325
O    -1.52457  -0.03090   1.12076
C    -1.01431  -1.03581   0.22338
C    -2.24754  -1.18112  -0.73219
C    -2.70870  -2.34730  -1.37574
N    -3.07389  -3.32226  -1.90017
C    -2.72534   0.07819  -0.78405
F    -3.75566   0.54054  -1.44880
C     0.09015  -0.23569  -0.48349
H     5.04047  -0.55607  -0.98252
H     5.68277  -0.58225   0.67850
H     5.71633   0.93290  -0.26649
H     3.67636   1.38815   0.71269
H     0.30755   4.06555   0.25987
H    -0.71012   3.48299   1.59885
H     0.99315   3.94431   1.92311
H    -0.26132   1.78437  -1.42273
H    -2.27441   1.85683   0.48915
H    -0.69786  -1.94080   0.72372
H     0.76742  -0.71236  -1.23830
29

C     5.12580   0.02948  -0.04565
N     3.81797   0.41665   0.44958
C     2.83954  -0.49768   0.63706
O     3.00128  -1.70242   0.40954
N     1.55382  -0.04948   1.05219
N     1.48864   1.24643   1.33526
C     0.61078   2.01828   0.77346
C     0.30811   3.43796   1.17099
C    -0.40258   1.10689  -0.52398
C    -1.82291   0.94753   0.10953
O    -1.52183  -0.02953   1.11789
C    -1.01553  -1.03595   0.22037
C    -2.25251  -1.18294  -0.72943
C    -2.71083  -2.34835  -1.37515
N    -3.07400  -3.32333  -1.90109
C    -2.72977   0.07638  -0.78206
F    -3.75799   0.54028  -1.44939
C     0.08166  -0.23701  -0.49784
H     5.04061  -0.55628  -0.98280
H     5.68298  -0.58212   0.67819
H     5.71667   0.93275  -0.26724
H     3.67813   1.38792   0.71450
H     0.30765   4.06456   0.25911
H    -0.71027   3.48260   1.59850
H     0.99086   3.95049   1.92348
H    -0.25967   1.78634  -1.42127
H    -2.27339   1.85725   0.48779
H    -0.69715  -1.94044   0.72286
H     0.76925  -0.71242  -1.23705
29

C     5.12657   0.02948  -0.04717
N     3.81920   0.41775   0.44762
C     2.84195  -0.49709   0.64056
O     3.00271  -1.70165   0.41063
N     1.56338  -0.05121   1.06820
N     1.48432   1.24153   1.33034
C     0.62814   2.03062   0.79656
C     0.30908   3.44466   1.17424
C    -0.41229   1.09734  -0.54271
C    -1.82376   0.94652   0.10581
O    -1.51909  -0.02816   1.11502
C    -1.01675  -1.03609   0.21735
C    -2.25749  -1.18476  -0.72666
C    -2.71296  -2.34939  -1.37457
N    -3.07411  -3.32440  -1.90202
C    -2.73420   0.07457  -0.78007
F    -3.76031   0.54002  -1.44999
C     0.07317  -0.23833  -0.51219
H     5.04075  -0.55650  -0.98308
H     5.68320  -0.58200   0.67789
H     5.71701   0.93261  -0.26799
H     3.67991   1.38768   0.71631
H     0.30776   4.06356   0.25834
H    -0.71043   3.48222   1.59814
H     0.98857   3.95667   1.92385
H    -0.25803   1.78831  -1.41982
H    -2.27237   1.85766   0.48644
H    -0.69644  -1.94007   0.72200
H     0.77107  -0.71248  -1.23579
29

C     5.12734   0.02948  -0.04870
N     3.82043   0.41885   0.44565
C     2.84435  -0.49649   0.64405
O     3.00413  -1.70088   0.41173
N     1.57294  -0.05294   1.08422
N     1.48001   1.23663   1.32543
C     0.64550   2.04296   0.81966
C     0.31005   3.45135   1.17750
C    -0.42200   1.08780  -0.56144
C    -1.82462   0.94550   0.10209
O    -1.51635  -0.02679   1.11215
C    -1.01797  -1.03623   0.21434
C    -2.26246  -1.18657  -0.72390
C    -2.71508  -2.35043  -1.37398
N    -3.07422  -3.32546  -1.90294
C    -2.73862   0.07276  -0.77807
F    -3.76263   0.53976  -1.45058
C     0.06468  -0.23965  -0.52654
H     5.04090  -0.55671  -0.98337
H     5.68341  -0.58188   0.67758
H     5.71736   0.93246  -0.26874
H     3.68168   1.38745   0.71812
H     0.30786   4.06257   0.25758
H    -0.71058   3.48184   1.59779
H     0.98628   3.96285   1.92422
H    -0.25638   1.79029  -1.41836
H    -2.27136   1.85808   0.48508
H    -0.69572  -1.93970   0.72114
H     0.77289  -0.71253  -1.23453
29

C     5.12811   0.02948  -0.05022
N     3.82165   0.41995   0.44369
C     2.84675  -0.49589   0.64755
O     3.00556  -1.70011   0.41283
N     1.58250  -0.05466   1.10023
N     1.47569   1.23173   1.32051
C     0.66286   2.05530   0.84276
C     0.31102   3.45805   1.18076
C    -0.43172   1.07825  -0.58016
C    -1.82547   0.94448   0.09838
O    -1.51361  -0.02541   1.10928
C    -1.01919  -1.03637   0.21132
C    -2.26744  -1.18839  -0.72113
C    -2.71721  -2.35148  -1.37339
N    -3.07433  -3.32653  -1.90387
C    -2.74305   0.07096  -0.77608
F    -3.76495   0.53950  -1.45117
C     0.05619  -0.24097  -0.54089
H     5.04104  -0.55693  -0.98365
H     5.68363  -0.58176   0.67728
H     5.71770   0.93232  -0.26949
H     3.68346   1.38722   0.71993
H     0.30797   4.06158   0.25681
H    -0.71073   3.48146   1.59743
H     0.98398   3.96902   1.92459
H    -0.25474   1.79226  -1.41691
H    -2.27034   1.85849   0.48373
H    -0.69501  -1.93933   0.72028
H     0.77471  -0.71259  -1.23327
29

C     5.12888   0.02948  -0.05175
N     3.82288   0.42105   0.44173
C     2.84915  -0.49529   0.65105
O     3.00698  -1.69934   0.41392
N     1.59206  -0.05639   1.11624
N     1.47137   1.22683   1.31559
C     0.68022   2.06764   0.86586
C     0.31199   3.46475   1.18402
C    -0.44143   1.06870  -0.59889
C    -1.82632   0.94347   0.09466
O    -1.51087  -0.02404   1.10641
C    -1.02041  -1.03652   0.20831
C    -2.27242  -1.19021  -0.71837
C    -2.71933  -2.35252  -1.37281
N    -3.07444  -3.32760  -1.90480
C    -2.74747   0.06915  -0.77409
F    -3.76727   0.53924  -1.45176
C     0.04771  -0.24229  -0.55524
H     5.04118  -0.55715  -0.98393
H     5.68384  -0.58163   0.67697
H     5.71805   0.93217  -0.27024
H     3.68524   1.38699   0.72175
H     0.30808   4.06058   0.25605
H    -0.71089   3.48107   1.59708
H     0.98169   3.97520   1.92495
H    -0.25309   1.79424  -1.41545
H    -2.26932   1.85890   0.48238
H    -0.69430  -1.93897   0.71942
H     0.77653  -0.71264  -1.23201
29

C     5.12965   0.02948  -0.05327
N     3.82410   0.42215   0.43977
C     2.85155  -0.49469   0.65454
O     3.00841  -1.69856   0.41502
N     1.60162  -0.05811   1.13226
N     1.46705   1.22193   1.31068
C     0.69759   2.07998   0.88896
C     0.31296   3.47144   1.18727
C    -0.45114   1.05915  -0.61762
C    -1.82717   0.94245   0.09094
O    -1.50813  -0.02267   1.10354
C    -1.02163  -1.03666   0.20529
C    -2.27739  -1.19203  -0.71560
C    -2.72146  -2.35356  -1.37222
N    -3.07455  -3.32867  -1.90572
C    -2.75190   0.06734  -0.77210
F    -3.76959   0.53898  -1.45236
C     0.03922  -0.24362  -0.56959
H     5.04133  -0.55736  -0.98421
H     5.68406  -0.58151   0.67666
H     5.71839   0.93202  -0.27099
H     3.68701   1.38675   0.72356
H     0.30818   4.05959   0.25528
H    -0.71104   3.48069   1.59672
H     0.97940   3.98138   1.92532
H    -0.25145   1.79621  -1.41400
H    -2.26830   1.85932   0.48102
H    -0.69358  -1.93860   0.71856
H     0.77835  -0.71270  -1.23075
29

C     5.13042   0.02948  -0.05479
N     3.82533   0.42325   0.43781
C     2.85395  -0.49410   0.65804
O     3.00983  -1.69779   0.41612
N     1.61118  -0.05984   1.14827
N     1.46273   1.21702   1.30576
C     0.71495   2.09232   0.91206
C     0.31393   3.47814   1.19053
C    -0.46085   1.04961  -0.63635
C    -1.82802   0.94144   0.08722
O    -1.50539  -0.02130   1.10067
C    -1.02285  -1.03680   0.20228
C    -2.28237  -1.19384  -0.71284
C    -2.72359  -2.35461  -1.37163
N    -3.07467  -3.32973  -1.90665
C    -2.75633   0.06553  -0.77011
F    -3.77192   0.53872  -1.45295
C     0.03073  -0.24494  -0.58394
H     5.04147  -0.55758  -0.98449
H     5.68427  -0.58139   0.67636
H     5.71874   0.93188  -0.27174
H     3.68879   1.38652   0.72537
H     0.30829   4.05859   0.25452
H    -0.71119   3.48031   1.59637
H     0.97711   3.98756   1.92569
H    -0.24980   1.79818  -1.41254
H    -2.26728   1.85973   0.47967
H    -0.69287  -1.93823   0.71771
H     0.78017  -0.71276  -1.22950
29

C     5.13119   0.02948  -0.05632
N     3.82655   0.42436   0.43585
C     2.85635  -0.49350   0.66153
O     3.01126  -1.69702   0.41721
N     1.62074  -0.06157   1.16429
N     1.45842   1.21212   1.30085
C     0.73231   2.10466   0.93516
C     0.31490   3.48483   1.19379
C    -0.47056   1.04006  -0.65508
C    -1.82887   0.94042   0.08350
O    -1.50265  -0.01993   1.09780
C    -1.02407  -1.03694   0.19926
C    -2.28734  -1.19566  -0.71007
C    -2.72571  -2.35565  -1.37104
N    -3.07478  -3.33080  -1.90758
C    -2.76075   0.06373  -0.76812
F    -3.77424   0.53846  -1.45354
C     0.02224  -0.24626  -0.59829
H     5.04161  -0.55779  -0.98477
H     5.68449  -0.58127   0.67605
H     5.71908   0.93173  -0.27250
H     3.69057   1.38629   0.72718
H     0.30839   4.05760   0.25375
H    -0.71134   3.47993   1.59601
H     0.97481   3.99373   1.92606
H    -0.24816   1.80016  -1.41109
H    -2.26626   1.86015   0.47832
H    -0.69216  -1.93786   0.71685
H     0.78199  -0.71281  -1.22824
29

C     5.13196   0.02948  -0.05784
N     3.82778   0.42546   0.43388
C     2.85875  -0.49290   0.66503
O     3.01268  -1.69625   0.41831
N     1.63029  -0.06329   1.18030
N     1.45410   1.20722   1.29593
C     0.74967   2.11699   0.95826
C     0.31587   3.49153   1.19704
C    -0.48027   1.03051  -0.67381
C    -1.82972   0.93940   0.07979
O    -1.49990  -0.01855   1.09493
C    -1.02529  -1.03708   0.19625
C    -2.29232  -1.19748  -0.70731
C    -2.72784  -2.35669  -1.37046
N    -3.07489  -3.33187  -1.90850
C    -2.76518   0.06192  -0.76613
F    -3.77656   0.53820  -1.45413
C     0.01375  -0.24758  -0.61264
H     5.04176  -0.55801  -0.98505
H     5.68470  -0.58114   0.67575
H     5.71943   0.93159  -0.27325
H     3.69234   1.38606   0.72899
H     0.30850   4.05660   0.25298
H    -0.71150   3.47954   1.59566
H     0.97252   3.99991   1.92643
H    -0.24651   1.80213  -1.40964
H    -2.26524   1.86056   0.47696
H    -0.69145  -1.93750   0.71599
H     0.78382  -0.71287  -1.22698
29

C     5.13273   0.02948  -0.05936
N     3.82901   0.42656   0.43192
C     2.86115  -0.49230   0.66853
O     3.01410  -1.69548   0.41941
N     1.63985  -0.06502   1.19632
N     1.44978   1.20232   1.29101
C     0.76703   2.12933   0.98136
C     0.31684   3.49823   1.20030
C    -0.48999   1.02097  -0.69254
C    -1.83057   0.93839   0.07607
O    -1.49716  -0.01718   1.09206
C    -1.02651  -1.03722   0.19324
C    -2.29729  -1.19930  -0.70454
C    -2.72997  -2.35774  -1.36987
N    -3.07500  -3.33294  -1.90943
C    -2.76961   0.06011  -0.76414
F    -3.77888   0.53794  -1.45473
C     0.00526  -0.24890  -0.62699
H     5.04190  -0.55822  -0.98533
H     5.68491  -0.58102   0.67544
H     5.71977   0.93144  -0.27400
H     3.69412   1.38582   0.73080
H     0.30860   4.05561   0.25222
H    -0.71165   3.47916   1.59530
H     0.97023   4.00609   1.92680
H    -0.24487   1.80410  -1.40818
H    -2.26422   1.86098   0.47561
H    -0.69073  -1.93713   0.71513
H     0.78564  -0.71293  -1.22572
29

C     5.13350   0.02948  -0.06089
N     3.83023   0.42766   0.42996
C     2.86356  -0.49170   0.67202
O     3.01553  -1.69471   0.42051
N     1.64941  -0.06674   1.21233
N     1.44546   1.19742   1.28610
C     0.78439   2.14167   1.00446
C     0.31781   3.50492   1.20356
C    -0.49970   1.01142  -0.71127
C    -1.83142   0.93737   0.07235
O    -1.49442  -0.01581   1.08919
C    -1.02773  -1.03736   0.19022
C    -2.30227  -1.20112  -0.70178
C    -2.73209  -2.35878  -1.36928
N    -3.07511  -3.33401  -1.91035
C    -2.77403   0.05830  -0.76214
F    -3.78120   0.53768  -1.45532
C    -0.00323  -0.25023  -0.64134
H     5.04204  -0.55844  -0.98561
H     5.68513  -0.58090   0.67513
H     5.72011   0.93129  -0.27475
H     3.69589   1.38559   0.73261
H     0.30871   4.05462   0.25145
H    -0.71180   3.47878   1.59495
H     0.96794   4.01227   1.92716
H    -0.24322   1.80608  -1.40673
H    -2.26320   1.86139   0.47426
H    -0.69002  -1.93676   0.71427
H     0.78746  -0.71298  -1.22446
29

C     5.13427   0.02948  -0.06241
N     3.83146   0.42876   0.42800
C     2.86596  -0.49111   0.67552
O     3.01695  -1.69394   0.42160
N     1.65897  -0.06847   1.22835
N     1.44115   1.19252   1.28118
C     0.80176   2.15401   1.02756
C     0.31878   3.51162   1.20682
C    -0.50941   1.00187  -0.72999
C    -1.83227   0.93636   0.06863
O    -1.49168  -0.01444   1.08632
C    -1.02895  -1.03751   0.18721
C    -2.30725  -1.20293  -0.69901
C    -2.73422  -2.35982  -1.36869
N    -3.07522  -3.33507  -1.91128
C    -2.77846   0.05650  -0.76015
F    -3.78353   0.53742  -1.45591
C    -0.01172  -0.25155  -0.65569
H     5.04218  -0.55865  -0.98590
H     5.68534  -0.58078   0.67483
H     5.72046   0.93115  -0.27550
H     3.69767   1.38536   0.73442
H     0.30881   4.05362   0.25069
H    -0.71195   3.47840   1.59459
H     0.96564   4.01844   1.92753
H    -0.24158   1.80805  -1.40527
H    -2.26218   1.86180   0.47290
H    -0.68931  -1.93640   0.71341
H     0.78928  -0.71304  -1.22321
29

C     5.13504   0.02948  -0.06393
N     3.83268   0.42986   0.42604
C     2.86836  -0.49051   0.67901
O     3.01838  -1.69317   0.42270
N     1.66853  -0.07020   1.24436
N     1.43683   1.18762   1.27627
C     0.81912   2.16635   1.05066
C     0.31975   3.51831   1.21007
C    -0.51912   0.99232  -0.74872
C    -1.83312   0.93534   0.06491
O    -1.48894  -0.01306   1.08345
C    -1.03017  -1.03765   0.18419
C    -2.31222  -1.20475  -0.69625
C    -2.73635  -2.36086  -1.36811
N    -3.07533  -3.33614  -1.91221
C    -2.78289   0.05469  -0.75816
F    -3.78585   0.53716  -1.45650
C    -0.02021  -0.25287  -0.67003
H     5.04233  -0.55887  -0.98618
H     5.68556  -0.58066   0.67452
H     5.72080   0.93100  -0.27625
H     3.69945   1.38513   0.73623
H     0.30892   4.05263   0.24992
H    -0.71211   3.47801   1.59424
H     0.96335   4.02462   1.92790
H    -0.23993   1.81002  -1.40382
H    -2.26117   1.86222   0.47155
H    -0.68859  -1.93603   0.71255
H     0.79110  -0.71309  -1.22195
29

C     5.13581   0.02948  -0.06546
N     3.83391   0.43096   0.42407
C     2.87076  -0.48991   0.68251
O     3.01980  -1.69239   0.42380
N     1.67809  -0.07192   1.26037
N     1.43251   1.18271   1.27135
C     0.83648   2.17869   1.07376
C     0.32072   3.52501   1.21333
C    -0.52883   0.98278  -0.76745
C    -1.83397   0.93432   0.06119
O    -1.48620  -0.01169   1.08058
C    -1.03139  -1.03779   0.18118
C    -2.31720  -1.20657  -0.69348
C    -2.73847  -2.36191  -1.36752
N    -3.07544  -3.33721  -1.91313
C    -2.78731   0.05288  -0.75617
F    -3.78817   0.53690  -1.45710
C    -0.02870  -0.25419  -0.68438
H     5.04247  -0.55908  -0.98646
H     5.68577  -0.58053   0.67422
H     5.72115   0.93086  -0.27700
H     3.70122   1.38489   0.73804
H     0.30903   4.05163   0.24916
H    -0.71226   3.47763   1.59388
H     0.96106   4.03080   1.92827
H    -0.23829   1.81200  -1.40236
H    -2.26015   1.86263   0.47019
H    -0.68788  -1.93566   0.71169
H     0.79292  -0.71315  -1.22069
29

C     5.13658   0.02948  -0.06698
N     3.83513   0.43206   0.42211
C     2.87316  -0.48931   0.68601
O     3.02123  -1.69162   0.42489
N     1.68765  -0.07365   1.27639
N     1.42819   1.17781   1.26643
C     0.85384   2.19103   1.09686
C     0.32169   3.53171   1.21659
C    -0.53854   0.97323  -0.78618
C    -1.83482   0.93331   0.05748
O    -1.48346  -0.01032   1.07770
C    -1.03261  -1.03793   0.17816
C    -2.32217  -1.20839  -0.69072
C    -2.74060  -2.36295  -1.36693
N    -3.07556  -3.33828  -1.91406
C    -2.79174   0.05107  -0.75418
F    -3.79049   0.53664  -1.45769
C    -0.03719  -0.25551  -0.69873
H     5.04261  -0.55930  -0.98674
H     5.68599  -0.58041   0.67391
H     5.72149   0.93071  -0.27775
H     3.70300   1.38466   0.73985
H     0.30913   4.05064   0.24839
H    -0.71241   3.47725   1.59353
H     0.95877   4.03697   1.92864
H    -0.23664   1.81397  -1.40091
H    -2.25913   1.86305   0.46884
H    -0.68717  -1.93529   0.71084
H     0.79474  -0.71321  -1.21943
29

C     5.13735   0.02948  -0.06851
N     3.83636   0.43316   0.42015
C     2.87556  -0.48871   0.68950
O     3.02265  -1.69085   0.42599
N     1.69721  -0.07537   1.29240
N     1.42387   1.17291   1.26152
C     0.87120   2.20337   1.11996
C     0.32266   3.53840   1.21985
C    -0.54826   0.96368  -0.80491
C    -1.83567   0.93229   0.05376
O    -1.48072  -0.00895   1.07483
C    -1.03383  -1.03807   0.17515
C    -2.32715  -1.21021  -0.68795
C    -2.74273  -2.36399  -1.36634
N    -3.07567  -3.33934  -1.91498
C    -2.79617   0.04927  -0.75219
F    -3.79281   0.53638  -1.45828
C    -0.04568  -0.25683  -0.71308
H     5.04276  -0.55952  -0.98702
H     5.68620  -0.58029   0.67360
H     5.72184   0.93056  -0.27850
H     3.70477   1.38443   0.74166
H     0.30924   4.04965   0.24762
H    -0.71256   3.47687   1.59317
H     0.95647   4.04315   1.92901
H    -0.23500   1.81595  -1.39946
H    -2.25811   1.86346   0.46749
H    -0.68646  -1.93493   0.70998
H     0.79656  -0.71326  -1.21817
29

C     5.13812   0.02948  -0.07003
N     3.83759   0.43427   0.41819
C     2.87796  -0.48812   0.69300
O     3.02408  -1.69008   0.42709
N     1.70677  -0.07710   1.30842
N     1.41956   1.16801   1.25660
C     0.88856   2.21570   1.14306
C     0.32363   3.54510   1.22310
C    -0.55797   0.95414  -0.82364
C    -1.83652   0.93128   0.05004
O    -1.47798  -0.00757   1.07196
C    -1.03505  -1.03821   0.17213
C    -2.33212  -1.21202  -0.68519
C    -2.74485  -2.36504  -1.36576
N    -3.07578  -3.34041  -1.91591
C    -2.80059   0.04746  -0.75020
F    -3.79514   0.53612  -1.45887
C    -0.05416  -0.25816  -0.72743
H     5.04290  -0.55973  -0.98730
H     5.68642  -0.58017   0.67330
H     5.72218   0.93042  -0.27925
H     3.70655   1.38420   0.74347
H     0.30934   4.04865   0.24686
H    -0.71272   3.47648   1.59282
H     0.95418   4.04933   1.92938
H    -0.23335   1.81792  -1.39800
H    -2.25709   1.86388   0.46613
H    -0.68574  -1.93456   0.70912
H     0.79839  -0.71332  -1.21691
29

C     5.13889   0.02948  -0.07155
N     3.83881   0.43537   0.41623
C     2.88036  -0.48752   0.69649
O     3.02550  -1.68931   0.42818
N     1.71633  -0.07883   1.32443
N     1.41524   1.16311   1.25169
C     0.90593   2.22804   1.16616
C     0.32460   3.55179   1.22636
C    -0.56768   0.94459  -0.84237
C    -1.83737   0.93026   0.04632
O    -1.47523  -0.00620   1.06909
C    -1.03627  -1.03835   0.16912
C    -2.33710  -1.21384  -0.68242
C    -2.74698  -2.36608  -1.36517
N    -3.07589  -3.34148  -1.91684
C    -2.80502   0.04565  -0.74821
F    -3.79746   0.53586  -1.45947
C    -0.06265  -0.25948  -0.74178
H     5.04304  -0.55995  -0.98758
H     5.68663  -0.58004   0.67299
H     5.72252   0.93027  -0.28001
H     3.70833   1.38396   0.74528
H     0.30945   4.04766   0.24609
H    -0.71287   3.47610   1.59246
H     0.95189   4.05551   1.92974
H    -0.23170   1.81989  -1.39655
H    -2.25607   1.86429   0.46478
H    -0.68503  -1.93419   0.70826
H     0.80021  -0.71338  -1.21566
29

C     5.13966   0.02948  -0.07308
N     3.84004   0.43647   0.41426
C     2.88276  -0.48692   0.69999
O     3.02693  -1.68854   0.42928
N     1.72589  -0.08055   1.34045
N     1.41092   1.15821   1.24677
C     0.92329   2.24038   1.18925
C     0.32557   3.55849   1.22962
C    -0.57739   0.93504  -0.86109
C    -1.83822   0.92924   0.04260
O    -1.47249  -0.00483   1.06622
C    -1.03749  -1.03850   0.16610
C    -2.34208  -1.21566  -0.67966
C    -2.74911  -2.36712  -1.36458
N    -3.07600  -3.34255  -1.91776
C    -2.80945   0.04384  -0.74621
F    -3.79978   0.53559  -1.46006
C    -0.07114  -0.26080  -0.75613
H     5.04319  -0.56016  -0.98786
H     5.68685  -0.57992   0.67269
H     5.72287   0.93013  -0.28076
H     3.71010   1.38373   0.74709
H     0.30955   4.04666   0.24533
H    -0.71302   3.47572   1.59210
H     0.94960   4.06168   1.93011
H    -0.23006   1.82187  -1.39509
H    -2.25505   1.86470   0.46343
H    -0.68432  -1.93383   0.70740
H     0.80203  -0.71343  -1.21440
29

C     5.14043   0.02948  -0.07460
N     3.84126   0.43757   0.41230
C     2.88517  -0.48632   0.70349
O     3.02835  -1.68777   0.43038
N     1.73545  -0.08228   1.35646
N     1.40660   1.15331   1.24185
C     0.94065   2.25272   1.21235
C     0.32654   3.56519   1.23288
C    -0.58710   0.92549  -0.87982
C    -1.83908   0.92823   0.03889
O    -1.46975  -0.00346   1.06335
C    -1.03871  -1.03864   0.16309
C    -2.34705  -1.21748  -0.67689
C    -2.75123  -2.36817  -1.36400
N    -3.07611  -3.34361  -1.91869
C    -2.81387   0.04204  -0.74422
F    -3.80210   0.53533  -1.46065
C    -0.07963  -0.26212  -0.77048
H     5.04333  -0.56038  -0.98815
H     5.68706  -0.57980   0.67238
H     5.72321   0.92998  -0.28151
H     3.71188   1.38350   0.74890
H     0.30966   4.04567   0.24456
H    -0.71317   3.47534   1.59175
H     0.94730   4.06786   1.93048
H    -0.22841   1.82384  -1.39364
H    -2.25403   1.86512   0.46207
H    -0.68360  -1.93346   0.70654
H     0.80385  -0.71349  -1.21314
29

C     5.13966   0.02948  -0.07308
N     3.84004   0.43647   0.41426
C     2.88276  -0.48692   0.69999
O     3.02693  -1.68854   0.42928
N     1.72589  -0.08055   1.34045
N     1.41092   1.15821   1.24677
C     0.92329   2.24038   1.18925
C     0.32557   3.55849   1.22962
C    -0.57739   0.93504  -0.86109
C    -1.83822   0.92924   0.04260
O    -1.47249  -0.00483   1.06622
C    -1.03749  -1.03850   0.16610
C    -2.34208  -1.21566  -0.67966
C    -2.74911  -2.36712  -1.36458
N    -3.07600  -3.34255  -1.91776
C    -2.80945   0.04384  -0.74621
F    -3.79978   0.53559  -1.46006
C    -0.07114  -0.26080  -0.75613
H     5.04319  -0.56016  -0.98786
H     5.68685  -0.57992   0.67269
H     5.72287   0.93013  -0.28076
H     3.71010   1.38373   0.74709
H     0.30955   4.04666   0.24533
H    -0.71302   3.47572   1.59210
H     0.94960   4.06168   1.93011
H    -0.23006   1.82187  -1.39509
H    -2.25505   1.86470   0.46343
H    -0.68432  -1.93383   0.70740
H     0.80203  -0.71343  -1.21440
29

C     5.13889   0.02948  -0.07155
N     3.83881   0.43537   0.41623
C     2.88036  -0.48752   0.69649
O     3.02550  -1.68931   0.42818
N     1.71633  -0.07883   1.32443
N     1.41524   1.16311   1.25169
C     0.90593   2.22804   1.16616
C     0.32460   3.55179   1.22636
C    -0.56768   0.94459  -0.84237
C    -1.83737   0.93026   0.04632
O    -1.47523  -0.00620   1.06909
C    -1.03627  -1.03835   0.16912
C    -2.33710  -1.21384  -0.68242
C    -2.74698  -2.36608  -1.36517
N    -3.07589  -3.34148  -1.91684
C    -2.80502   0.04565  -0.74821
F    -3.79746   0.53586  -1.45947
C    -0.06265  -0.25948  -0.74178
H     5.04304  -0.55995  -0.98758
H     5.68663  -0.58004   0.67299
H     5.72252   0.93027  -0.28001
H     3.70833   1.38396   0.74528
H     0.30945   4.04766   0.24609
H    -0.71287   3.47610   1.59246
H     0.95189   4.05551   1.92974
H    -0.23170   1.81989  -1.39655
H    -2.25607   1.86429   0.46478
H    -0.68503  -1.93419   0.70826
H     0.80021  -0.71338  -1.21566
29

C     5.13812   0.02948  -0.07003
N     3.83759   0.43427   0.41819
C     2.87796  -0.48812   0.69300
O     3.02408  -1.69008   0.42709
N     1.70677  -0.07710   1.30842
N     1.41956   1.16801   1.25660
C     0.88856   2.21570   1.14306
C     0.32363   3.54510   1.22310
C    -0.55797   0.95414  -0.82364
C    -1.83652   0.93128   0.05004
O    -1.47798  -0.00757   1.07196
C    -1.03505  -1.03821   0.17213
C    -2.33212  -1.21202  -0.68519
C    -2.74485  -2.36504  -1.36576
N    -3.07578  -3.34041  -1.91591
C    -2.80059   0.04746  -0.75020
F    -3.79514   0.53612  -1.45887
C    -0.05416  -0.25816  -0.72743
H     5.04290  -0.55973  -0.98730
H     5.68642  -0.58017   0.67330
H     5.72218   0.93042  -0.27925
H     3.70655   1.38420   0.74347
H     0.30934   4.04865   0.24686
H    -0.71272   3.47648   1.59282
H     0.95418   4.04933   1.92938
H    -0.23335   1.81792  -1.39800
H    -2.25709   1.86388   0.46613
H    -0.68574  -1.93456   0.70912
H     0.79839  -0.71332  -1.21691
29

C     5.13735   0.02948  -0.06851
N     3.83636   0.43316   0.42015
C     2.87556  -0.48871   0.68950
O     3.02265  -1.69085   0.42599
N     1.69721  -0.07537   1.29240
N     1.42387   1.17291   1.26152
C     0.87120   2.20337   1.11996
C     0.32266   3.53840   1.21985
C    -0.54826   0.96368  -0.80491
C    -1.83567   0.93229   0.05376
O    -1.48072  -0.00895   1.07483
C    -1.03383  -1.03807   0.17515
C    -2.32715  -1.21021  -0.68795
C    -2.74273  -2.36399  -1.36634
N    -3.07567  -3.33934  -1.91498
C    -2.79617   0.04927  -0.75219
F    -3.79281   0.53638  -1.45828
C    -0.04568  -0.25683  -0.71308
H     5.04276  -0.55952  -0.98702
H     5.68620  -0.58029   0.67360
H     5.72184   0.93056  -0.27850
H     3.70477   1.38443   0.74166
H     0.30924   4.04965   0.24762
H    -0.71256   3.47687   1.59317
H     0.95647   4.04315   1.92901
H    -0.23500   1.81595  -1.39946
H    -2.25811   1.86346   0.46749
H    -0.68646  -1.93493   0.70998
H     0.79656  -0.71326  -1.21817
29

C     5.13658   0.02948  -0.06698
N     3.83513   0.43206   0.42211
C     2.87316  -0.48931   0.68601
O     3.02123  -1.69162   0.42489
N     1.68765  -0.07365   1.27639
N     1.42819   1.17781   1.26643
C     0.85384   2.19103   1.09686
C     0.32169   3.53171   1.21659
C    -0.53854   0.97323  -0.78618
C    -1.83482   0.93331   0.05748
O    -1.48346  -0.01032   1.07770
C    -1.03261  -1.03793   0.17816
C    -2.32217  -1.20839  -0.69072
C    -2.74060  -2.36295  -1.36693
N    -3.07556  -3.33828  -1.91406
C    -2.79174   0.05107  -0.75418
F    -3.79049   0.53664  -1.45769
C    -0.03719  -0.25551  -0.69873
H     5.04261  -0.55930  -0.98674
H     5.68599  -0.58041   0.67391
H     5.72149   0.93071  -0.27775
H     3.70300   1.38466   0.73985
H     0.30913   4.05064   0.24839
H    -0.71241   3.47725   1.59353
H     0.95877   4.03697   1.92864
H    -0.23664   1.81397  -1.40091
H    -2.25913   1.86305   0.46884
H    -0.68717  -1.93529   0.71084
H     0.79474  -0.71321  -1.21943
29

C     5.13581   0.02948  -0.06546
N     3.83391   0.43096   0.42407
C     2.87076  -0.48991   0.68251
O     3.01980  -1.69239   0.42380
N     1.67809  -0.07192   1.26037
N     1.43251   1.18271   1.27135
C     0.83648   2.17869   1.07376
C     0.32072   3.52501   1.21333
C    -0.52883   0.98278  -0.76745
C    -1.83397   0.93432   0.06119
O    -1.48620  -0.01169   1.08058
C    -1.03139  -1.03779   0.18118
C    -2.31720  -1.20657  -0.69348
C    -2.73847  -2.36191  -1.36752
N    -3.07544  -3.33721  -1.91313
C    -2.78731   0.05288  -0.75617
F    -3.78817   0.53690  -1.45710
C    -0.02870  -0.25419  -0.68438
H     5.04247  -0.55908  -0.98646
H     5.68577  -0.58053   0.67422
H     5.72115   0.93086  -0.27700
H     3.70122   1.38489   0.73804
H     0.30903   4.05163   0.24916
H    -0.71226   3.47763   1.59388
H     0.96106   4.03080   1.92827
H    -0.23829   1.81200  -1.40236
H    -2.26015   1.86263   0.47019
H    -0.68788  -1.93566   0.71169
H     0.79292  -0.71315  -1.22069
29

C     5.13504   0.02948  -0.06393
N     3.83268   0.42986   0.42604
C     2.86836  -0.49051   0.67901
O     3.01838  -1.69317   0.42270
N     1.66853  -0.07020   1.24436
N     1.43683   1.18762   1.27627
C     0.81912   2.16635   1.05066
C     0.31975   3.51831   1.21007
C    -0.51912   0.99232  -0.74872
C    -1.83312   0.93534   0.06491
O    -1.48894  -0.01306   1.08345
C    -1.03017  -1.03765   0.18419
C    -2.31222  -1.20475  -0.69625
C    -2.73635  -2.36086  -1.36811
N    -3.07533  -3.33614  -1.91221
C    -2.78289   0.05469  -0.75816
F    -3.78585   0.53716  -1.45650
C    -0.02021  -0.25287  -0.67003
H     5.04233  -0.55887  -0.98618
H     5.68556  -0.58066   0.67452
H     5.72080   0.93100  -0.27625
H     3.69945   1.38513   0.73623
H     0.30892   4.05263   0.24992
H    -0.71211   3.47801   1.59424
H     0.96335   4.02462   1.92790
H    -0.23993   1.81002  -1.40382
H    -2.26117   1.86222   0.47155
H    -0.68859  -1.93603   0.71255
H     0.79110  -0.71309  -1.22195
29

C     5.13427   0.02948  -0.06241
N     3.83146   0.42876   0.42800
C     2.86596  -0.49111   0.67552
O     3.01695  -1.69394   0.42160
N     1.65897  -0.06847   1.22835
N     1.44115   1.19252   1.28118
C     0.80176   2.15401   1.02756
C     0.31878   3.51162   1.20682
C    -0.50941   1.00187  -0.72999
C    -1.83227   0.93636   0.06863
O    -1.49168  -0.01444   1.08632
C    -1.02895  -1.03751   0.18721
C    -2.30725  -1.20293  -0.69901
C    -2.73422  -2.35982  -1.36869
N    -3.07522  -3.33507  -1.91128
C    -2.77846   0.05650  -0.76015
F    -3.78353   0.53742  -1.45591
C    -0.01172  -0.25155  -0.65569
H     5.04218  -0.55865  -0.98590
H     5.68534  -0.58078   0.67483
H     5.72046   0.93115  -0.27550
H     3.69767   1.38536   0.73442
H     0.30881   4.05362   0.25069
H    -0.71195   3.47840   1.59459
H     0.96564   4.01844   1.92753
H    -0.24158   1.80805  -1.40527
H    -2.26218   1.86180   0.47290
H    -0.68931  -1.93640   0.71341
H     0.78928  -0.71304  -1.22321
29

C     5.13350   0.02948  -0.06089
N     3.83023   0.42766   0.42996
C     2.86356  -0.49170   0.67202
O     3.01553  -1.69471   0.42051
N     1.64941  -0.06674   1.21233
N     1.44546   1.19742   1.28610
C     0.78439   2.14167   1.00446
C     0.31781   3.50492   1.20356
C    -0.49970   1.01142  -0.71127
C    -1.83142   0.93737   0.07235
O    -1.49442  -0.01581   1.08919
C    -1.02773  -1.03736   0.19022
C    -2.30227  -1.20112  -0.70178
C    -2.73209  -2.35878  -1.36928
N    -3.07511  -3.33401  -1.91035
C    -2.77403   0.05830  -0.76214
F    -3.78120   0.53768  -1.45532
C    -0.00323  -0.25023  -0.64134
H     5.04204  -0.55844  -0.98561
H     5.68513  -0.58090   0.67513
H     5.72011   0.93129  -0.27475
H     3.69589   1.38559   0.73261
H     0.30871   4.05462   0.25145
H    -0.71180   3.47878   1.59495
H     0.96794   4.01227   1.92716
H    -0.24322   1.80608  -1.40673
H    -2.26320   1.86139   0.47426
H    -0.69002  -1.93676   0.71427
H     0.78746  -0.71298  -1.22446
29

C     5.13273   0.02948  -0.05936
N     3.82901   0.42656   0.43192
C     2.86115  -0.49230   0.66853
O     3.01410  -1.69548   0.41941
N     1.63985  -0.06502   1.19632
N     1.44978   1.20232   1.29101
C     0.76703   2.12933   0.98136
C     0.31684   3.49823   1.20030
C    -0.48999   1.02097  -0.69254
C    -1.83057   0.93839   0.07607
O    -1.49716  -0.01718   1.09206
C    -1.02651  -1.03722   0.19324
C    -2.29729  -1.19930  -0.70454
C    -2.72997  -2.35774  -1.36987
N    -3.07500  -3.33294  -1.90943
C    -2.76961   0.06011  -0.76414
F    -3.77888   0.53794  -1.45473
C     0.00526  -0.24890  -0.62699
H     5.04190  -0.55822  -0.98533
H     5.68491  -0.58102   0.67544
H     5.71977   0.93144  -0.27400
H     3.69412   1.38582   0.73080
H     0.30860   4.05561   0.25222
H    -0.71165   3.47916   1.59530
H     0.97023   4.00609   1.92680
H    -0.24487   1.80410  -1.40818
H    -2.26422   1.86098   0.47561
H    -0.69073  -1.93713   0.71513
H     0.78564  -0.71293  -1.22572
29

C     5.13196   0.02948  -0.05784
N     3.82778   0.42546   0.43388
C     2.85875  -0.49290   0.66503
O     3.01268  -1.69625   0.41831
N     1.63029  -0.06329   1.18030
N     1.45410   1.20722   1.29593
C     0.74967   2.11699   0.95826
C     0.31587   3.49153   1.19704
C    -0.48027   1.03051  -0.67381
C    -1.82972   0.93940   0.07979
O    -1.49990  -0.01855   1.09493
C    -1.02529  -1.03708   0.19625
C    -2.29232  -1.19748  -0.70731
C    -2.72784  -2.35669  -1.37046
N    -3.07489  -3.33187  -1.90850
C    -2.76518   0.06192  -0.76613
F    -3.77656   0.53820  -1.45413
C     0.01375  -0.24758  -0.61264
H     5.04176  -0.55801  -0.98505
H     5.68470  -0.58114   0.67575
H     5.71943   0.93159  -0.27325
H     3.69234   1.38606   0.72899
H     0.30850   4.05660   0.25298
H    -0.71150   3.47954   1.59566
H     0.97252   3.99991   1.92643
H    -0.24651   1.80213  -1.40964
H    -2.26524   1.86056   0.47696
H    -0.69145  -1.93750   0.71599
H     0.78382  -0.71287  -1.22698
29

C     5.13119   0.02948  -0.05632
N     3.82655   0.42436   0.43585
C     2.85635  -0.49350   0.66153
O     3.01126  -1.69702   0.41721
N     1.62074  -0.06157   1.16429
N     1.45842   1.21212   1.30085
C     0.73231   2.10466   0.93516
C     0.31490   3.48483   1.19379
C    -0.47056   1.04006  -0.65508
C    -1.82887   0.94042   0.08350
O    -1.50265  -0.01993   1.09780
C    -1.02407  -1.03694   0.19926
C    -2.28734  -1.19566  -0.71007
C    -2.72571  -2.35565  -1.37104
N    -3.07478  -3.33080  -1.90758
C    -2.76075   0.06373  -0.76812
F    -3.77424   0.53846  -1.45354
C     0.02224  -0.24626  -0.59829
H     5.04161  -0.55779  -0.98477
H     5.68449  -0.58127   0.67605
H     5.71908   0.93173  -0.27250
H     3.69057   1.38629   0.72718
H     0.30839   4.05760   0.25375
H    -0.71134   3.47993   1.59601
H     0.97481   3.99373   1.92606
H    -0.24816   1.80016  -1.41109
H    -2.26626   1.86015   0.47832
H    -0.69216  -1.93786   0.71685
H     0.78199  -0.71281  -1.22824
29

C     5.13042   0.02948  -0.05479
N     3.82533   0.42325   0.43781
C     2.85395  -0.49410   0.65804
O     3.00983  -1.69779   0.41612
N     1.61118  -0.05984   1.14827
N     1.46273   1.21702   1.30576
C     0.71495   2.09232   0.91206
C     0.31393   3.47814   1.19053
C    -0.46085   1.04961  -0.63635
C    -1.82802   0.94144   0.08722
O    -1.50539  -0.02130   1.10067
C    -1.02285  -1.03680   0.20228
C    -2.28237  -1.19384  -0.71284
C    -2.72359  -2.35461  -1.37163
N    -3.07467  -3.32973  -1.90665
C    -2.75633   0.06553  -0.77011
F    -3.77192   0.53872  -1.45295
C     0.03073  -0.24494  -0.58394
H     5.04147  -0.55758  -0.98449
H     5.68427  -0.58139   0.67636
H     5.71874   0.93188  -0.27174
H     3.68879   1.38652   0.72537
H     0.30829   4.05859   0.25452
H    -0.71119   3.48031   1.59637
H     0.97711   3.98756   1.92569
H    -0.24980   1.79818  -1.41254
H    -2.26728   1.85973   0.47967
H    -0.69287  -1.93823   0.71771
H     0.78017  -0.71276  -1.22950
29

C     5.12965   0.02948  -0.05327
N     3.82410   0.42215   0.43977
C     2.85155  -0.49469   0.65454
O     3.00841  -1.69856   0.41502
N     1.60162  -0.05811   1.13226
N     1.46705   1.22193   1.31068
C     0.69759   2.07998   0.88896
C     0.31296   3.47144   1.18727
C    -0.45114   1.05915  -0.61762
C    -1.82717   0.94245   0.09094
O    -1.50813  -0.02267   1.10354
C    -1.02163  -1.03666   0.20529
C    -2.27739  -1.19203  -0.71560
C    -2.72146  -2.35356  -1.37222
N    -3.07455  -3.32867  -1.90572
C    -2.75190   0.06734  -0.77210
F    -3.76959   0.53898  -1.45236
C     0.03922  -0.24362  -0.56959
H     5.04133  -0.55736  -0.98421
H     5.68406  -0.58151   0.67666
H     5.71839   0.93202  -0.27099
H     3.68701   1.38675   0.72356
H     0.30818   4.05959   0.25528
H    -0.71104   3.48069   1.59672
H     0.97940   3.98138   1.92532
H    -0.25145   1.79621  -1.41400
H    -2.26830   1.85932   0.48102
H    -0.69358  -1.93860   0.71856
H     0.77835  -0.71270  -1.23075
29

C     5.12888   0.02948  -0.05175
N     3.82288   0.42105   0.44173
C     2.84915  -0.49529   0.65105
O     3.00698  -1.69934   0.41392
N     1.59206  -0.05639   1.11624
N     1.47137   1.22683   1.31559
C     0.68022   2.06764   0.86586
C     0.31199   3.46475   1.18402
C    -0.44143   1.06870  -0.59889
C    -1.82632   0.94347   0.09466
O    -1.51087  -0.02404   1.10641
C    -1.02041  -1.03652   0.20831
C    -2.27242  -1.19021  -0.71837
C    -2.71933  -2.35252  -1.37281
N    -3.07444  -3.32760  -1.90480
C    -2.74747   0.06915  -0.77409
F    -3.76727   0.53924  -1.45176
C     0.04771  -0.24229  -0.55524
H     5.04118  -0.55715  -0.98393
H     5.68384  -0.58163   0.67697
H     5.71805   0.93217  -0.27024
H     3.68524   1.38699   0.72175
H     0.30808   4.06058   0.25605
H    -0.71089   3.48107   1.59708
H     0.98169   3.97520   1.92495
H    -0.25309   1.79424  -1.41545
H    -2.26932   1.85890   0.48238
H    -0.69430  -1.93897   0.71942
H     0.77653  -0.71264  -1.23201
29

C     5.12811   0.02948  -0.05022
N     3.82165   0.41995   0.44369
C     2.84675  -0.49589   0.64755
O     3.00556  -1.70011   0.41283
N     1.58250  -0.05466   1.10023
N     1.47569   1.23173   1.32051
C     0.66286   2.05530   0.84276
C     0.31102   3.45805   1.18076
C    -0.43172   1.07825  -0.58016
C    -1.82547   0.94448   0.09838
O    -1.51361  -0.02541   1.10928
C    -1.01919  -1.03637   0.21132
C    -2.26744  -1.18839  -0.72113
C    -2.71721  -2.35148  -1.37339
N    -3.07433  -3.32653  -1.90387
C    -2.74305   0.07096  -0.77608
F    -3.76495   0.53950  -1.45117
C     0.05619  -0.24097  -0.54089
H     5.04104  -0.55693  -0.98365
H     5.68363  -0.58176   0.67728
H     5.71770   0.93232  -0.26949
H     3.68346   1.38722   0.71993
H     0.30797   4.06158   0.25681
H    -0.71073   3.48146   1.59743
H     0.98398   3.96902   1.92459
H    -0.25474   1.79226  -1.41691
H    -2.27034   1.85849   0.48373
H    -0.69501  -1.93933   0.72028
H     0.77471  -0.71259  -1.23327
29

C     5.12734   0.02948  -0.04870
N     3.82043   0.41885   0.44565
C     2.84435  -0.49649   0.64405
O     3.00413  -1.70088   0.41173
N     1.57294  -0.05294   1.08422
N     1.48001   1.23663   1.32543
C     0.64550   2.04296   0.81966
C     0.31005   3.45135   1.17750
C    -0.42200   1.08780  -0.56144
C    -1.82462   0.94550   0.10209
O    -1.51635  -0.02679   1.11215
C    -1.01797  -1.03623   0.21434
C    -2.26246  -1.18657  -0.72390
C    -2.71508  -2.35043  -1.37398
N    -3.07422  -3.32546  -1.90294
C    -2.73862   0.07276  -0.77807
F    -3.76263   0.53976  -1.45058
C     0.06468  -0.23965  -0.52654
H     5.04090  -0.55671  -0.98337
H     5.68341  -0.58188   0.67758
H     5.71736   0.93246  -0.26874
H     3.68168   1.38745   0.71812
H     0.30786   4.06257   0.25758
H    -0.71058   3.48184   1.59779
H     0.98628   3.96285   1.92422
H    -0.25638   1.79029  -1.41836
H    -2.27136   1.85808   0.48508
H    -0.69572  -1.93970   0.72114
H     0.77289  -0.71253  -1.23453
29

C     5.12657   0.02948  -0.04717
N     3.81920   0.41775   0.44762
C     2.84195  -0.49709   0.64056
O     3.00271  -1.70165   0.41063
N     1.56338  -0.05121   1.06820
N     1.48432   1.24153   1.33034
C     0.62814   2.03062   0.79656
C     0.30908   3.44466   1.17424
C    -0.41229   1.09734  -0.54271
C    -1.82376   0.94652   0.10581
O    -1.51909  -0.02816   1.11502
C    -1.01675  -1.03609   0.21735
C    -2.25749  -1.18476  -0.72666
C    -2.71296  -2.34939  -1.37457
N    -3.07411  -3.32440  -1.90202
C    -2.73420   0.07457  -0.78007
F    -3.76031   0.54002  -1.44999
C     0.07317  -0.23833  -0.51219
H     5.04075  -0.55650  -0.98308
H     5.68320  -0.58200   0.67789
H     5.71701   0.93261  -0.26799
H     3.67991   1.38768   0.71631
H     0.30776   4.06356   0.25834
H    -0.71043   3.48222   1.59814
H     0.98857   3.95667   1.92385
H    -0.25803   1.78831  -1.41982
H    -2.27237   1.85766   0.48644
H    -0.69644  -1.94007   0.72200
H     0.77107  -0.71248  -1.23579
29

C     5.12580   0.02948  -0.04565
N     3.81797   0.41665   0.44958
C     2.83954  -0.49768   0.63706
O     3.00128  -1.70242   0.40954
N     1.55382  -0.04948   1.05219
N     1.48864   1.24643   1.33526
C     0.61078   2.01828   0.77346
C     0.30811   3.43796   1.17099
C    -0.40258   1.10689  -0.52398
C    -1.82291   0.94753   0.10953
O    -1.52183  -0.02953   1.11789
C    -1.01553  -1.03595   0.22037
C    -2.25251  -1.18294  -0.72943
C    -2.71083  -2.34835  -1.37515
N    -3.07400  -3.32333  -1.90109
C    -2.72977   0.07638  -0.78206
F    -3.75799   0.54028  -1.44939
C     0.08166  -0.23701  -0.49784
H     5.04061  -0.55628  -0.98280
H     5.68298  -0.58212   0.67819
H     5.71667   0.93275  -0.26724
H     3.67813   1.38792   0.71450
H     0.30765   4.06456   0.25911
H    -0.71027   3.48260   1.59850
H     0.99086   3.95049   1.92348
H    -0.25967   1.78634  -1.42127
H    -2.27339   1.85725   0.48779
H    -0.69715  -1.94044   0.72286
H     0.76925  -0.71242  -1.23705
