17

O 4.601237506 -1.010695546 -0.649959679
C 1.968100229 -1.174284941 -0.816474937
C 0.535375285 -3.374236443 0.430451946
C -1.635346576 -1.502264938 0.967140571
C -2.743978728 3.893651536 -1.017628271
C -0.419302505 3.144509865 -0.470471167
C 0.279436372 0.678966994 0.691676309
H 5.083673171 -1.184607192 1.089753618
H 1.516602536 -1.054508581 -2.826878443
H 1.470716301 -3.953478470 2.179459973
H 0.146251839 -5.045745045 -0.705606803
H -2.634828468 -1.671472036 2.757070656
H -3.009671254 -1.491606184 -0.569511052
H -3.100116305 5.714196998 -1.882255943
H -4.377785782 2.723301307 -0.614671084
H 1.160437916 4.388195640 -0.900687672
H 1.198754230 1.009226794 2.521621401

