10

O -2.988688982 -3.779269966 -0.361039584
C -2.080890101 -1.455132032 0.053003038
C 0.685831934 4.715733234 -0.884645276
N 1.392082945 2.651983005 -0.102821472
C 2.068068857 0.423584605 0.383174721
N 0.425836384 -1.644712720 0.088383077
H -4.795400345 -3.654594850 -0.360975995
H -0.284282594 5.876697080 0.531099345
H 3.947871803 0.032894803 1.081534594
H 1.259879217 -3.360328267 -0.122587838

