10

O 1.850727544 -0.603776019 1.594890828
C 2.036443346 0.060447973 -1.140039003
C 0.585283821 2.534192615 -0.704406109
N -1.173539085 2.346694688 0.940072474
N -1.147567011 -0.136428853 1.920743428
C -1.764138781 -1.692783006 -0.383718149
N -0.109591530 -1.647353593 -2.077600315
H 2.159028765 -2.401023010 1.791331373
H 0.854782350 4.281024019 -1.729702151
H -3.578490175 -2.635978952 -0.408062300

