12

C -3.111020611 -0.453065826 1.086550211
C -1.314934025 -0.078779337 -1.002123616
C -0.393109068 0.112622783 -3.191495864
C 1.679401591 0.913583616 -0.657751738
C 2.654232800 -0.182425675 1.734971860
O 3.765678999 -0.735697422 -0.593162656
H -4.994955311 -0.646560307 0.277211654
H -2.698195558 -2.156676585 2.170260031
H -3.118244032 1.167056096 2.360513008
H 2.144111380 2.872030274 -1.021364089
H 1.657469921 -1.729722125 2.639170851
H 3.726835150 1.045655895 2.984899250

