12

O -1.725480295 2.067511936 2.702696300
C -1.840101482 -0.076534267 1.161791130
C 0.081536372 -1.837388969 1.466442685
O 2.810609696 -1.272221131 -1.147077326
C 2.318502601 0.518087484 -2.600407560
O 0.114436372 1.259284123 -3.138400097
H -2.072159245 3.532862397 1.694981854
H -1.138711508 0.499191905 -1.136819458
H -3.732181582 -0.827921726 0.817232453
H -0.189029550 -3.740781801 0.780327594
H 1.564769916 -1.545248478 2.840560211
H 3.916611576 1.552922222 -3.455207825

