12

C -0.708943662 0.662766976 -1.061092085
C 0.163648393 3.059076481 0.201887152
H 2.049528320 2.837183346 1.012307048
H -1.117663909 3.587101430 1.732978048
H 0.226366513 4.632668035 -1.132944442
H 0.477937003 0.031437484 -2.608873118
C -1.916028334 -1.393052147 0.466290035
H -2.184411774 -1.052463576 2.467037040
H -1.505010238 -3.339377006 -0.008034208
C -3.475188239 0.131414427 -1.351887109
H -4.127142127 -0.775109172 -3.064958556
H -4.787169435 1.495135436 -0.571077503

