12

O 3.828802825 -0.848557290 0.744785569
C 1.399812435 -1.013630971 -0.238322735
C -0.956811064 -0.903213858 1.514739058
C -2.337696757 0.747430259 -0.478938822
C 0.284005787 1.305092880 -1.520349088
O 1.273046620 3.117012498 -2.437278086
H 4.501615925 0.782254888 0.306318898
H 1.241526064 -2.660382327 -1.487648681
H -1.813168897 -2.704034850 2.010111127
H -0.530770532 0.167593687 3.220789435
H -3.418488557 2.376955761 0.157056763
H -3.471873830 -0.366520678 -1.791263438

