14

O 2.157905398 3.439945717 -2.389328591
C 1.359583208 1.778137910 -0.999628006
C 2.567721345 -0.460366972 0.496611578
N 0.436492739 -2.217176752 0.252788116
C -1.769564109 -1.208165142 1.750379799
C -2.271446059 0.596831881 -0.374267516
C -0.567246234 -0.739790229 -1.941922363
H 4.128918621 -1.153083934 -0.653097191
H 3.234021335 -0.068129502 2.410211841
H -1.336371664 -0.456304268 3.622321900
H -3.206337943 -2.680741934 1.898856809
H -0.190671722 2.501767976 0.608647450
H -3.690682912 2.013967095 -0.769299474
H -0.515338481 -1.281753023 -3.906901899

