8

C 2.810721020 1.234773884 -0.571531150
H 1.641232128 2.425830541 -1.761900779
H 4.839851334 1.442438420 -0.780453564
O 1.947642659 1.041349077 2.045233747
C 1.779888912 -1.002141852 0.541421539
C 1.020199356 -3.361704328 0.639643664
H 1.162807293 -4.541042113 -1.019066447
H 0.248293383 -4.139490921 2.363926231

