12

C -3.979064265 -0.755967211 -0.983387416
C -1.328360813 -0.633628250 0.058246424
O -0.970996331 1.764026135 1.187954540
C 1.371939485 2.127034398 2.226813392
C 3.239659824 0.484162497 2.238108984
O 4.942791481 -0.909310870 2.288326906
H 1.677588474 3.938270955 3.113580831
H -1.020136863 -2.114807567 1.481200104
H 0.075149192 -0.901094908 -1.449099648
H -4.269185905 0.708336304 -2.403942581
H -5.361803308 -0.489695275 0.521008718
H -4.308642555 -2.592503195 -1.860238876

