12

C 3.691439578 -0.657327929 0.083674333
H 3.557289867 1.238644251 0.936880935
N 3.011616557 -2.594923122 1.670823482
H 2.346243478 -2.130796597 3.426800460
C 1.148544339 -2.190341319 -0.400798382
C -0.953855570 -0.852414448 0.219283328
C -3.485678506 0.024638287 -0.265459410
H -5.110565240 -1.131257200 0.204726787
H -3.769567337 1.362386295 -1.795640119
N -1.958621986 0.841692898 1.955598103
H -1.305690638 2.636134004 1.817906781
H 1.111293812 -3.556548848 -1.912345012

