14

C 3.244343227 -0.018978501 -0.221062845
N 3.377944917 -2.400849704 0.840311130
C 1.069781102 -1.733420641 -0.663248384
C -0.893232286 0.038192631 -0.183031918
C -3.643789718 0.222902362 -0.144895506
N -2.056838385 0.928112209 2.050711364
H 2.292270746 1.788294451 -2.395571245
H 3.035095119 1.535440686 1.120901747
H 3.282777535 -2.442418519 2.757649347
H 1.005236826 -2.744455638 -2.438532789
H 0.457464636 2.040339753 -2.072084129
H -4.782056857 -1.456280834 0.141972138
H -4.528675518 1.716248265 -1.232857985
H -1.931412840 2.826413986 2.245792705

