13

N -3.696500075 -2.108566406 -1.274174749
C -0.757363756 1.258170318 -0.337574325
O -2.358614986 2.790818972 -0.858078429
C -1.242526126 -1.543605210 -0.220744653
O 3.928653156 -1.396615547 1.374069168
C 3.790062551 0.836387435 0.997665128
N 1.677842302 2.134909151 0.218822877
H -4.898131602 -0.650012421 -0.992536412
H -4.434476280 -3.689365679 -0.508449465
H 0.260710226 -2.516607258 -1.248484225
H -0.984054338 -2.093636757 1.766542003
H 5.410277107 2.123875172 1.257866337
H 1.832280265 4.028995384 0.058321843

