16

C -3.853520820 -0.146847329 -1.574679886
C -1.060558766 0.465049675 -1.328532608
O -0.712340540 2.805475764 -0.023619725
C 0.341472736 -1.564337131 0.150774804
C 3.215107198 -1.454056097 0.096416737
O 4.479418314 -3.362519329 -0.061050777
N 4.244640970 0.880667762 0.274884589
H -4.713726666 -0.339439844 0.290768701
H -4.127185893 -1.905761471 -2.615521533
H -4.847558393 1.348280454 -2.595568652
H -0.220459135 0.615627172 -3.220763035
H -1.580306885 4.113472491 -0.928746571
H -0.265924698 -1.471098630 2.126597020
H -0.168380645 -3.426257107 -0.563361996
H 6.135642981 1.027311171 0.309840913
H 3.133680241 2.414432450 0.445324355

