17

C -3.016370598 1.124863595 -0.662914904
C -2.082658299 -1.335933304 -0.878325805
C 0.659467458 -1.692670416 -1.424677375
C 2.043434615 0.856330263 -1.513828097
C 1.562258640 1.870426484 1.145043357
C 1.418927222 -0.242012330 2.739435637
C 0.738795515 -2.331711976 1.346230271
H -4.876014229 1.383393134 0.166748073
H -1.062957585 2.135175394 0.793940255
H -2.607822713 2.437437107 -2.191702148
H -3.219902605 -2.981085291 -0.458004682
H 1.230101612 -3.113855729 -2.791473196
H 1.364065393 2.096499485 -3.015906198
H 4.062969390 0.550998973 -1.813532934
H 2.302594565 3.682998171 1.741290594
H 1.400528263 -0.165062626 4.783096509
H 0.327442691 -4.192287714 2.076613783

