19

C -3.586950857 -1.501685038 2.269356324
C -2.156093113 -0.903460694 -0.122944561
C -1.179090553 1.472227137 -0.567366780
C 3.385920865 1.373412186 0.128786820
C 4.086061107 -1.027290365 0.765873986
C -0.833596158 2.356063761 -3.153457000
O -0.434377738 4.516438143 -3.775952741
H -3.720509934 -3.530808851 2.599878229
H -2.680667196 -0.636440616 3.906643838
H -5.506893494 -0.752228085 2.145937630
H 0.053505554 -2.601413877 0.346021760
H -2.686293647 -2.000592482 -1.782246005
H -1.255462511 2.910148128 0.887813799
H 3.026042688 2.778650705 1.566426601
H 3.663791070 2.087873131 -1.763975528
H 5.029350499 -2.219106049 -0.609277863
H 1.668787888 -2.559545748 0.631571226
H 4.401144630 -1.518923875 2.731172753
H -0.986366815 0.844987919 -4.609696468

