15

C -4.679218150 -1.311108558 -0.969437590
N -2.559218409 0.292314270 -0.359539217
C -0.598796383 -0.703494089 0.517452858
C 1.739085038 0.786495604 1.191123384
C 4.017022079 -0.111356704 -0.366458392
C 1.366271213 3.514308159 0.904344556
N 1.199480943 5.664223512 0.699237651
H -5.144059672 -1.067731222 -2.963684693
H -6.319147973 -0.688474848 0.114721135
H -4.335358407 -3.322174262 -0.590173261
H -0.425812630 -2.751888857 0.833705006
H 3.700156298 0.243172150 -2.370839776
H 4.302901132 -2.134728153 -0.091965922
H 5.728920686 0.873423724 0.213070135
H 2.137745800 0.443674151 3.194220717

