11

O 4.273380379 -1.323646400 -0.324289230
C 2.111543557 -0.618697013 -0.157146695
N -0.005908626 -2.080499797 -0.177589148
C -2.296690003 -0.641154481 0.223494337
C -1.616861407 2.061898958 0.529967871
C 1.131919058 2.088459645 0.081603420
H 0.098714153 -3.972056688 -0.301061831
H -3.357378858 -1.221272131 1.909694615
H -3.648768315 -0.761985119 -1.349136386
H 1.313828876 3.045604755 -1.761153354
H 2.206662959 3.286212736 1.371192835

