11

O 4.336896474 -1.499228658 -0.140967049
C 2.188216397 -0.745299990 -0.016169101
N 0.007434145 -2.080343252 -0.183124383
C -2.227752283 -0.520972813 0.122406462
C -1.343148430 2.145342896 0.616941156
C 1.282542116 1.950918291 0.392885683
H 0.011852740 -3.967945155 -0.382953056
H -3.358619879 -1.096364636 1.757147456
H -3.471569149 -0.591516138 -1.526303709
H 0.048971440 2.889582995 -1.384214654
H 2.619840370 3.460368667 0.766073598

