14

O 4.025695487 -0.610091144 0.129218868
C 2.083138403 0.409754966 -1.332208635
C -0.524887324 -0.064701218 -0.179228504
C -1.091565960 -2.585353397 2.232877863
N -0.540849916 0.035254636 2.570051227
C -2.613603045 1.493967699 -1.362270455
O -4.295206035 2.438386619 -0.185519270
H 3.718910148 -0.080793937 1.847405236
H 2.301597451 2.466707358 -1.537446971
H 2.210643950 -0.428649430 -3.213065028
H 0.771117183 -3.483597804 1.946393228
H -1.339729367 -2.094430178 -0.649801546
H -2.141695686 0.959812723 3.096355580
H -2.463897354 1.720590704 -3.435852381

