12

O -1.926985288 -3.608122706 1.758779008
C -0.866995348 -1.534705999 0.694660678
C 1.080024608 -1.087048286 -1.302277566
N -1.656165991 -0.296351443 -1.534810198
C -1.330226143 1.247632676 0.846741112
C 1.090965669 2.658539278 0.667903384
C 2.612998938 1.184106736 -0.688452852
H 1.659918496 -2.584200853 -2.565652171
H -3.339086328 -4.114536482 0.728852626
H -3.058733193 1.989186795 1.644505285
H 1.475266818 4.474872502 1.511194726
H 4.554621912 1.492642056 -1.229472938

