14

C -2.591252064 -0.421031944 -2.797142582
N -1.685806969 -0.400450767 -0.229362844
C -0.400850746 0.451340808 4.641903372
O 0.085212570 0.187715283 6.816220966
C 0.599287769 -0.137710522 0.316193378
O 1.326001868 -0.130731461 2.827109008
C 2.902997329 0.135086278 -1.299857828
H -4.058875488 1.013800611 -2.996152078
H -1.154217826 -0.078301199 -4.242874681
H -3.477171337 -2.245830122 -3.171451482
H -2.174677700 1.189193161 3.869529012
H 2.496119812 -0.132468592 -3.293231991
H 4.308264251 -1.248573817 -0.705318695
H 3.722173063 2.006721356 -1.020501731

