8

C 2.034013612 3.917906454 2.612554134
C 1.352456314 1.745123696 1.564939595
C 3.018697361 -0.484565330 1.708117227
O 2.526969609 -2.509348764 0.802323232
H 4.819747482 -0.171498315 2.740147781
H -0.424113029 1.506654602 0.571354990
H 3.827228362 4.093464505 3.593838625
H 0.851503165 5.586076760 2.536434529

