14

C -2.546890290 -2.056599089 -0.424451687
C -1.222824446 0.080351363 -1.425012934
C 0.277926065 2.826071681 1.388450683
C 1.348147360 1.005019451 -0.337449963
C 2.850106673 -1.075965231 0.919758769
O 4.975361364 -1.626121292 0.358203483
H -1.511403465 -3.654089273 0.316180604
H -4.587826365 -2.171181896 -0.466527101
H -1.070646918 -1.611650450 -2.863823704
H -2.319893742 1.561781125 -2.316348729
H -1.009036914 2.209361374 2.851299940
H 0.612239120 4.825478115 1.153171825
H 2.505432042 1.859438369 -1.806486637
H 1.872402760 -2.005715511 2.528056504

