12

C -3.383817657 -0.919597859 0.617759426
C -1.954703753 1.168328260 -0.685470392
H -2.037975215 1.113898176 -2.733232762
C -1.855360945 3.754378191 0.463891613
H -1.925761066 5.383104546 -0.770624928
H -2.787486214 4.021873063 2.266696950
C 0.472563340 2.129434728 0.410859870
H 1.984382147 2.649296665 -0.864065422
H 1.105014744 1.311679728 2.177703719
H -5.393588086 -0.858310544 0.148955980
H -3.213098571 -0.753325411 2.669213490
H -2.660237159 -2.775528442 0.075735933

