12

O -1.060047217 -2.571977670 1.051283934
C -2.371223428 -0.746415382 0.043074209
C -0.773137168 0.605877848 -1.768259707
C 0.129286539 2.012590032 0.590682391
N 1.972706644 0.310789196 1.861148874
C 1.643224882 -1.771526269 0.348092843
O 1.216491369 -1.077927504 -2.217110234
H -4.175467527 -0.204930688 0.826963371
H -1.449311770 1.597500162 -3.420640482
H 2.402652729 2.306189467 0.363130282
H -0.901663999 3.393561538 1.682373299
H 2.902419470 -3.370867912 0.540668521

