15

C 3.349576651 0.171392585 0.798958423
C 1.601996897 -0.514360680 -1.333650685
O 0.573580898 -3.082227780 -0.971848994
C -1.598630218 -2.389803517 0.034892394
N -3.353633024 -2.775983564 1.382578246
C -0.939798691 0.833743254 -1.383493572
N -1.618758296 2.631485580 0.194006654
H 2.356388265 0.134975011 2.603371123
H 4.072516854 2.078907438 0.507699962
H 4.935193837 -1.141496247 0.868030729
H 2.557406578 -0.483093687 -3.161330941
H -4.134744666 -0.137566865 2.003567610
H -1.935635433 0.589804651 -3.176848181
H -3.080772048 3.649665746 -0.515040339
H -3.511457375 1.392486703 1.922735369

