9

C 2.489914423 -0.191016691 -0.279080915
C 4.464530447 -0.505571375 -1.679654153
C -0.157384121 0.528154055 -0.824953345
C -2.229616101 -0.335340820 0.782408221
O -1.321600525 2.179577231 0.926464179
H 3.073920922 -0.564774831 1.678354078
H -0.549720574 0.948657292 -2.792766864
H -1.812970930 -1.518892034 2.406977613
H -4.103319446 -0.552928648 -0.024809666

