17

C -4.838694406 0.953605672 0.611732636
C -2.046368849 0.769145424 0.422140344
C -0.121876904 0.828564328 2.054154785
H 0.000737277 1.034301079 4.088720802
C 1.830669821 0.507557893 0.045336854
C -0.355325203 0.430816889 -1.873339799
H -0.570840002 -1.360074877 -2.879772217
H -0.381921417 1.987872320 -3.230566594
C 4.175892923 -1.059503997 0.059559368
H 4.565852365 -2.218995141 -1.581290223
H 4.779468234 -1.874035086 1.836787828
C 4.337547636 1.768297388 -0.237906390
H 4.837114859 2.509143029 -2.079205769
H 5.047658015 2.861489703 1.339037935
H -5.739525148 -0.733886611 -0.169340645
H -5.542462184 2.567481388 -0.470316531
H -5.447414308 1.170081586 2.568637844

