19

C -4.902803421 0.465400956 0.407977508
C -2.176627179 -0.267955738 0.305119904
C -0.323241168 0.153031647 -1.863607691
C 1.804905087 0.254519237 0.107254600
C 4.224793233 -1.227727681 -0.008414818
C 4.254196219 1.625292950 -0.070434911
C -0.189765485 0.282731941 2.104389431
H -5.966470031 -0.372049582 -1.145518774
H -4.996527393 2.525995512 0.285319467
H -5.753685282 -0.112312187 2.192083949
H -2.654130282 -3.165327239 0.019465842
H -0.246128154 -1.292199278 -3.330425071
H -0.691795588 2.005380822 -2.693404592
H 4.681444644 -2.222225288 -1.738773857
H 4.866116127 -2.152974819 1.700542449
H 4.731060046 2.538739466 -1.840093243
H 4.914752367 2.612003373 1.595904042
H -0.216212599 0.460628302 4.137029552
H -1.358520558 -2.198645115 1.429791296

