15

C -2.462498522 -1.028024353 -1.364742122
O -1.339983857 -3.242810470 -0.253564906
C 0.285367391 -1.723306014 1.280126725
C 2.969247026 -1.781028057 0.329494518
C 4.506494423 -0.225296607 -0.741847668
C 0.082863187 3.072800409 -0.134031622
C -1.243512280 0.670950133 0.642546718
H -1.751334488 -0.705668125 -3.281817063
H -4.520713025 -1.148379120 -1.395346237
H 0.256885420 -2.346305669 3.248032728
H 4.025258564 -3.567854947 0.465948788
H 1.509672343 2.721111965 -1.592688522
H 1.016828009 3.965710176 1.472833852
H -1.262358594 4.429843844 -0.913876392
H -2.573781055 1.047327471 2.171917698

