10

C -2.296430203 -0.162727586 -0.272149872
C 0.473510414 -0.538018577 0.185394340
C 2.253735942 1.605369359 -0.085436483
O 4.489080994 1.436664626 0.267965205
N 1.608100921 -3.062530409 -0.240728488
N 1.313726434 -2.541794133 1.950803112
H -2.629775926 0.612394210 -2.155320555
H -3.301571844 -1.953176967 -0.134818126
H -3.107317447 1.136306246 1.111638536
H 1.369013546 3.416978174 -0.654081625

