14

C -1.762610824 -1.967142856 1.007261271
C -1.312128916 0.788623851 0.257222963
C 1.237044617 1.205960342 -1.037470527
C 4.763347907 -1.035775103 0.339275967
O 3.210129811 0.799318586 0.783541017
C -3.307775172 1.688735024 -1.438795311
N -4.855569112 2.372731146 -2.793007861
H -3.592747100 -2.175534048 1.926466955
H -0.301256019 -2.589564236 2.316822824
H -1.716985995 -3.189404731 -0.650961404
H -1.370818575 1.984827631 1.943053610
H 1.531347955 -0.103117385 -2.603147890
H 1.422359796 3.153226113 -1.681849731
H 6.059501550 -0.944472116 1.993716317

