14

C -1.647597179 -1.998366555 1.036069862
C -1.207821419 0.764392006 0.318026791
C 1.440502509 1.278427748 -0.803677277
C 4.460850810 0.191837286 0.180777891
O 3.006314156 0.853228239 2.025753203
C -3.027285278 1.564849776 -1.618912365
N -4.422921456 2.170565524 -3.163075725
H -3.584844303 -2.277147570 1.673115587
H -0.364874311 -2.531507598 2.552684832
H -1.324385528 -3.236386119 -0.581612915
H -1.491064815 1.980734654 1.958316739
H 1.678551271 -0.052491471 -2.386987353
H 1.768263468 3.217465633 -1.351732964
H 4.731195577 -1.922169831 0.189854718

