10

C -1.234829404 -1.396890805 -0.024097466
C -1.050308665 1.479591437 0.394777488
N 1.638131560 2.066365591 0.064750067
C 2.707174686 -0.001169174 -0.425076979
O 1.332308734 -2.143349858 -0.544039150
H -1.880481414 -2.432219441 1.636123272
H -2.397163490 -1.922900607 -1.641994198
H -2.167039748 2.554214433 -0.965499193
H -1.656428342 2.046789540 2.282420397
H 4.708636084 -0.250431098 -0.777364239

