17

C 4.025207314 0.073587485 -0.494087982
C 1.304492892 -0.156107913 0.195596386
C 0.224971668 -2.358332491 1.121524374
C -2.307197126 -2.433594613 1.724651329
C -2.251916098 0.756084733 -2.058143695
C -0.469502040 1.947544091 -0.245439613
O -1.506302791 2.996287344 2.038953091
H 5.048129502 1.096360932 0.984378634
H 4.258355809 1.147697610 -2.240637702
H 4.914262399 -1.771839831 -0.718656231
H 1.293989964 -4.108180219 1.015229906
H -3.270513553 -0.798775535 2.454705235
H -3.282001122 -4.232515637 1.845339274
H -2.073389967 -1.189547314 -2.593092638
H -3.171499803 1.970274812 -3.446921565
H 0.503288245 3.511488404 -1.212550686
H -3.171995572 3.604802948 1.641208336

