14

C -4.024460003 1.479866128 1.711935966
N -1.702403262 0.159872418 1.115417837
C 3.105206661 -4.635844400 -1.192184295
C 2.779385336 -2.223410657 -0.949751255
C 2.461776931 0.208375734 -0.706085338
C 0.028823993 1.372822988 0.037742423
O -0.197955369 3.879074151 -0.520382065
H -4.857223302 2.376141194 0.044197255
H -3.705413309 2.966342480 3.114104228
H -5.378011527 0.136368098 2.485609079
H 2.791580513 -5.568876757 -2.987867953
H 3.671372973 -5.781241344 0.408318037
H 4.061095254 1.449399377 -1.056430301
H 1.227443901 4.441855037 -1.488636536

