12

O -2.490980323 2.809956815 0.007804191
C -1.892996333 0.358466627 0.713633944
C -0.676014863 -1.291507846 -1.243010860
C 0.666329696 -0.181731919 1.695905476
C 3.010130193 1.349818180 1.265991366
C 2.733950065 -0.054981638 -0.746892141
H -0.960063585 3.795161920 -0.007373541
H -3.416801730 -0.492615431 1.789146113
H -0.665342862 -0.524642925 -3.136312875
H -0.984398306 -3.311010931 -1.114704768
H 0.796078329 -1.755259941 3.013789118
H 3.751287091 -1.004470183 -2.230258382

