19

C 3.924565584 0.934650321 1.331283161
C 2.872506201 -0.576665933 -0.457710924
C -1.508701289 -0.862742009 -0.130860057
C -1.775838926 -3.420298102 -1.264962372
C -2.305686705 0.443774137 1.890891254
C -2.570957879 1.691937770 -0.575749246
O -1.035744584 3.805745294 -1.110862577
H 1.590117096 1.810880779 3.185930337
H 4.314042976 2.905082094 0.935655221
H 4.878406622 0.120059403 2.950878359
H 2.962329382 -2.609862295 -0.261339542
H 2.470293662 0.147580883 -2.324970151
H -0.596687638 -3.655837024 -2.939820910
H -1.284993110 -4.894377264 0.090937457
H -3.740018616 -3.717143557 -1.838233998
H 0.015944885 1.698095707 3.256266907
H -3.427601931 0.172256209 3.571822843
H -4.448452676 1.877435119 -1.423150704
H -0.874132144 3.935174091 -2.911103328

