16

C -2.649310384 -2.664823297 -1.469456515
C -1.422626059 -0.142647148 -1.010247227
O -2.365031060 1.082653331 1.281929240
C 1.278073235 -0.066800760 0.069211389
C 3.305608412 1.366388962 -1.353881451
C 0.026777514 1.278974181 2.249869695
N 0.795789145 2.289820773 4.238980787
H -1.811748504 -3.557436075 -3.131456922
H -4.670839294 -2.442866441 -1.806749989
H -2.387362861 -3.913023194 0.151088347
H -1.695842700 1.137708593 -2.608842598
H -0.650220291 3.064732129 5.241674439
H 1.941876745 -1.938764631 0.630338407
H 4.960439066 1.637498162 -0.157113701
H 2.630355033 3.228001518 -1.931893265
H 3.888912292 0.334402496 -3.042521667

