16

C -2.431118014 -2.448481441 -1.535091503
C -1.517452289 -0.035053985 -0.307743921
O -2.548982273 0.312479764 2.124028146
C 1.339386363 -0.040817177 0.380315112
C 3.276056006 1.063515148 -1.419593351
C 0.774740903 1.504145953 2.639554805
N 0.518490166 3.244000298 4.042672541
H -1.485287657 -2.782322915 -3.341576174
H -4.459650513 -2.323578084 -1.876019450
H -2.089187189 -4.051879325 -0.283321819
H -1.906747587 1.583354503 -1.559646113
H -1.617428684 2.476449728 3.534032743
H 1.840768990 -1.946859707 0.995765443
H 5.161905319 1.082705865 -0.590456757
H 2.774740918 2.991985005 -1.947368781
H 3.343201263 -0.082745532 -3.131637239

