16

C -3.244403396 -0.274028637 -0.459848450
C -2.386198355 0.411331054 3.011853926
N 0.318117233 0.682829103 3.055880292
C -0.173035437 1.129766414 0.474016501
C 1.460109287 -0.300998620 -1.356761374
C 4.137542141 -0.692559775 -0.821483826
O 2.354960520 -2.692586946 -0.597805808
H -3.028447044 0.615735227 -2.325422608
H -5.160038176 0.176743590 0.122990387
H -3.032949203 -2.306240509 -0.648415961
H -3.168463977 2.339656422 3.131097307
H 1.087470753 -1.068433180 3.246940825
H -0.317679005 3.124826119 0.007159416
H 0.854925402 -0.190825678 -3.319249722
H 5.460919500 -0.873999618 -2.377644018
H 4.914880925 -0.011049493 0.950534206

