11

O 2.748042376 -2.245662786 -1.523283322
C 1.260335982 -0.544652668 -0.352979581
N 1.194539517 -0.398793250 2.347696886
C -1.234441821 -0.479106554 0.864585191
C -1.438276733 2.148183381 -0.244241149
O 1.047155336 1.889878115 -1.403047060
H 1.503822545 -2.170271974 3.022946788
H 2.323377471 -2.257562203 -3.289825004
H -2.679021547 -1.873035062 1.216911626
H -1.473641899 3.711219832 1.097324900
H -2.890728660 2.357070985 -1.691529532

