12

C -1.006196920 0.503542584 3.894957299
N -0.897444373 -0.147213331 -1.891270258
C 1.046404132 0.845020932 -3.629347807
C 1.693991637 -1.505007970 -2.304176852
C 0.811842784 -0.672878220 0.113026712
N 1.013083271 -0.664021433 2.448292450
H -2.396859169 1.485298656 2.719122952
H -1.976852703 -0.951268119 4.988785166
H -0.183772218 1.836774317 5.234468705
H 2.001868350 2.585538760 -3.111339861
H 0.495811185 0.701065205 -5.598260165
H 1.821210249 -3.391998281 -3.073356536

