18

C 4.630056283 -0.193873220 -1.216877478
C 1.897048322 -0.714203866 -1.728702618
C -0.111203542 0.549815117 -0.892964588
C 0.021201348 2.841428616 0.783231272
H -0.496668591 2.372037654 2.727928131
H 1.892953437 3.692408232 0.826252947
H -1.313225656 4.281873072 0.139857629
C -2.742277294 -0.294836317 -1.595649610
C -4.345245284 -1.098786660 0.669315123
H -4.639670963 0.456317175 1.992692293
H -6.204274603 -1.749585452 0.056701195
H -3.435577331 -2.640866011 1.696497169
H -2.615018356 -1.860354433 -2.935514924
H -3.703768548 1.252711656 -2.582437002
H 1.539488442 -2.342096078 -2.933432616
H 4.928110236 1.450231216 -0.015631248
H 5.512423078 -1.814181526 -0.286286365
H 5.660739216 0.109973651 -2.981808697

