20

C 4.859203830 -0.293516438 -0.492655248
C 2.212154881 -1.116423719 -1.271643631
C 0.073744068 -0.074159864 0.377157247
C -0.043616183 2.806871138 0.288673410
C -2.440760833 -1.281091940 -0.395954126
C -4.678953796 -0.616649174 1.289398440
H 5.218585274 -0.732337395 1.494079741
H 6.292374844 -1.263799756 -1.614813965
H 5.148528156 1.732414910 -0.749116141
H 1.865496151 -0.567797751 -3.239884342
H 2.114431190 -3.182859570 -1.232299023
H 0.462969370 -0.637233054 2.337969974
H -1.526588246 3.546500022 1.514627205
H 1.729715247 3.659404638 0.903266052
H -0.428654268 3.460886887 -1.635776300
H -2.198613822 -3.335932640 -0.408586208
H -2.864366849 -0.746632606 -2.353143511
H -5.168268594 1.383541458 1.174934138
H -6.354439440 -1.689918862 0.745600097
H -4.272940942 -1.051266284 3.268166191

