13

O 3.443802062 1.404992987 0.573418079
C 1.699562191 0.434603920 -1.198352890
C 0.471816482 -2.085737400 -0.386827845
C -1.992265480 -1.168741316 0.702486015
N -1.910467305 0.814420313 2.092438463
C -0.634113097 1.908687523 -1.780286416
H 2.461187638 1.898088257 2.024365747
H 2.742271719 0.212525875 -2.972545940
H 1.608075220 -3.112810068 0.995878695
H 0.120804144 -3.302019766 -2.008862907
H -3.742387841 -2.194662839 0.321323191
H -3.666075541 1.409952989 2.592033711
H -0.582345372 3.831565302 -0.993374543

