15

C -3.051777054 -1.105025761 -0.173144966
C -0.801166039 0.584709363 0.342215568
C 1.184139712 -0.185362328 2.360098194
C 3.334195150 0.569595220 0.519089587
C 1.369310498 0.609177291 -1.555347118
N 1.587987621 0.411930948 -3.911645036
H -4.337533425 -1.136948810 1.439857829
H -4.123084432 -0.447358305 -1.810901283
H -2.446034813 -3.042342068 -0.549111647
H -1.416036659 2.532300376 0.677633508
H -0.143009805 0.352603204 -4.758147721
H 1.104699103 0.807339151 4.160188600
H 1.151976838 -2.216898301 2.710026359
H 4.902981169 -0.736575578 0.257821307
H 4.083825882 2.454948405 0.894573066

