15

C -3.298753771 -1.061977970 -0.103364863
C -0.987896416 0.612481024 0.088377785
C 1.054512361 -0.122231945 1.994916709
C 3.394670335 0.589587370 0.437425432
C 2.035570274 0.453057586 -2.046599849
N 1.956328653 0.158325544 -4.320538834
H -4.387869077 -1.053860500 1.656633566
H -4.574030268 -0.445348203 -1.605805187
H -2.773038218 -3.021891508 -0.494977343
H -1.487880437 2.610148702 0.245645820
H -0.139295398 0.324073007 -2.887117847
H 0.932277014 0.842659908 3.811453325
H 1.011889116 -2.156259843 2.338907335
H 5.033990004 -0.656053384 0.533737421
H 4.007476524 2.531625044 0.772205230

