11

O -4.502084540 1.384143525 2.949261075
C -3.017194821 1.660689466 1.071616272
N -0.767651765 0.969939558 1.743154015
C 1.501851088 0.874388240 0.231266214
C 2.230729471 -1.709303011 -0.449941768
C 2.829022602 -3.816690455 -1.007813487
H -3.628026737 2.374255040 -0.760086076
H -2.268751271 0.630183033 3.736168998
H 1.254676158 1.982295360 -1.497741444
H 3.047926700 1.748341068 1.283402017
H 3.357658594 -5.695091432 -1.496454673

