15

N 3.602000087 -1.260175091 -0.027316728
C 1.539494357 0.322459030 0.746715584
C 2.798292386 5.099417935 0.906786026
N 2.215676650 2.979300048 0.848237605
C -0.717191731 0.005704082 -0.957942027
C -3.302265468 0.537832023 0.052493625
C -2.500372999 -2.129580482 -0.474089917
H 5.127331722 -1.022521698 1.096892814
H 4.119313275 -0.883642437 -1.828653445
H 1.013369792 -0.195662319 2.675584097
H -0.353317690 0.513315718 -2.910830735
H -3.454032189 1.128421024 2.006072972
H -4.656575754 1.417781122 -1.199044549
H -3.303623633 -3.087006085 -2.090692300
H -2.099828502 -3.352056973 1.116582702

