15

N 3.785847007 -0.957905064 -0.353432567
C 1.562450731 -0.229907954 0.493697281
C 2.037258271 4.101706036 0.539844506
N 2.263148422 3.854037226 2.726042695
C -0.669806773 -0.273020733 -1.110777331
C -3.108643657 0.695602839 -0.061051552
C -2.761882409 -2.078314367 -0.298530089
H 5.273682847 -0.856097373 0.826351515
H 4.178999614 -0.745725859 -2.203448554
H 1.290983277 -0.336621412 2.513565007
H -0.332083537 -0.041643101 -3.114416543
H -3.013389441 1.553146003 1.792503911
H -4.336577904 1.652626874 -1.382617854
H -3.716597502 -3.081444942 -1.801910325
H -2.465254537 -3.176578347 1.400905603

