13

N -3.488960790 0.647259903 0.052531212
C -0.767942121 0.324230138 0.292555059
C 0.124077452 -2.109040104 -0.239645732
O -1.117250626 -4.066211631 -0.691522655
N 2.725246156 -1.803975588 -0.248504088
C 3.387350594 0.711217797 0.101606038
C 1.244085396 2.104913585 0.399759581
H -4.095443786 0.022596797 -1.679687677
H -4.033698175 2.470679317 0.300251630
H -4.398811442 -0.463868823 1.343131007
H 3.920363381 -3.224465292 -0.628318497
H 5.335313751 1.287679016 0.217866695
H 1.168119275 4.107416826 0.780759775

