16

C -2.919218701 -2.400147349 -0.111298009
C -0.932011904 -0.560056431 -1.040242982
C -1.235329728 2.262864510 -0.345578582
C 1.597197579 2.438222061 0.293952228
C 1.605624302 -0.540926790 0.302417426
N 3.720303368 -1.786609836 -0.429744734
O 5.177377981 -1.639631020 1.485607494
H -4.737172195 -2.047075890 -1.023835000
H -3.178883322 -2.224064200 1.929229583
H -2.369858894 -4.347356051 -0.515249588
H -0.637991476 -0.785493444 -3.076027702
H -1.911435846 3.525382370 -1.823059970
H -2.411623561 2.498835745 1.330898942
H 2.128652627 3.415488465 2.020775305
H 2.726385189 3.148912398 -1.277211312
H 3.122391565 -0.755750780 2.531840001

