12

N -2.530555554 -1.637941510 -2.539623064
C -2.936044595 0.291614013 -1.504817637
C -1.810477530 2.018980821 0.196475846
C 0.580865811 -0.128751897 0.994470187
C 0.762026768 -1.870250248 -1.207354279
N 2.985502035 0.692860865 1.090742889
H -1.010119217 3.669993851 -0.732294876
H -2.896872443 2.512991948 1.865671007
H -0.239783247 -1.039096240 2.667234890
H 1.742049055 -1.110884573 -2.833348053
H 1.116327702 -3.854094995 -0.828990669
H 3.676949385 0.621208308 2.885046537

