10

O 4.098283364 -0.349937745 -0.272387316
C 1.596545245 0.143728053 -0.044402555
C -0.344249594 -1.492156642 0.443975582
N -2.518642456 -0.143054932 0.354347516
N -2.006366238 2.347836272 0.067530062
C 0.592952840 2.636788227 -0.231035006
H 4.406026359 -2.122752580 -0.063760531
H -0.367062783 -3.492461659 0.848787912
H -4.274732856 -0.718313662 0.788263386
H -1.286949562 3.186652931 -1.882197323

