11

C 3.310845108 1.232876032 -1.280315433
C 2.704672198 -0.708138318 -0.062898778
C 0.974707053 -1.394052058 1.846369949
C 0.413110987 1.296358962 0.699258041
C -1.951938498 0.914490704 -0.674170056
C -2.602833269 -1.518176980 -0.423027646
O -1.064990099 -2.931642497 1.006347021
H 4.592475545 2.606407176 -2.030249069
H 0.880083459 2.887092922 1.894552353
H -2.970456905 2.324997363 -1.731664991
H -4.221706423 -2.497846681 -1.196190250

