17

O 4.514402889 -0.259873682 2.110361684
C 2.928861841 -1.031634826 0.106583974
C 0.215877928 -0.371657464 0.798796039
C -0.139816055 2.466854228 1.121098751
C -5.725371024 0.315213139 -1.444410557
O -4.142512933 -1.194922961 -0.384532848
C -1.542773069 -1.460028633 -1.190852227
H 6.238065627 -0.569965399 1.654604567
H 3.451665571 -0.071216634 -1.660663842
H 3.093996068 -3.076380627 -0.209235862
H -0.203471820 -1.318246205 2.590156439
H 1.165521847 3.191197287 2.537295508
H 0.226728452 3.458519532 -0.656300636
H -4.706378844 1.245649447 -3.065567803
H -2.057805150 2.921482536 1.725303265
H -1.344331531 -0.492856863 -3.011406079
H -1.235521119 -3.483625470 -1.443703195

