15

C -2.969687673 1.159154792 -0.802266483
C -0.607288113 -0.416104880 -0.405595981
C 0.184779669 -0.589994549 2.397373968
O 2.891505149 -0.400657862 2.479692422
C 3.614696685 0.474982189 0.186698497
C 1.790244384 0.641408158 -1.527593221
O -1.172701918 -2.841504829 -1.445194623
H -2.711027932 3.069983337 -0.078114362
H -3.410428837 1.261845155 -2.812244668
H -4.574938849 0.288387986 0.158278887
H -0.387085641 -2.377343060 3.243258864
H -0.585497889 0.980485949 3.494749513
H 5.603258490 0.918067388 0.027253819
H 1.992991286 1.259332254 -3.459967818
H 0.387955671 -3.748059590 -1.631702957

