15

C -2.569407983 1.813536676 -0.577523037
C -0.354683755 0.500943908 0.428835568
C 0.201134077 -0.721999062 2.896542913
O 2.849335287 -0.580206618 2.418030016
C 2.363119111 0.526617160 -0.112635444
C 2.386695523 -1.292731198 -2.209355989
O -0.311134562 -2.383590627 -2.034599181
H -3.035023328 3.348233982 0.730289876
H -2.188210388 2.595487904 -2.441062905
H -4.190765445 0.545465005 -0.683236471
H -0.477410355 -2.653394101 3.187087114
H -0.437659966 0.459051042 4.483855334
H 3.384071542 2.277907146 -0.466685857
H 2.519723681 -0.441755683 -4.084075609
H -0.101896319 -4.145750865 -1.659882138

