14

C 4.328194946 -0.588131846 -1.653170454
N 2.355831438 1.212695666 -1.045300872
C 0.173237109 0.381408791 -0.609726427
C -1.939009615 2.190222379 0.144245214
O -4.169948411 0.967641783 -0.772358034
C -4.307921851 -1.332040299 0.142632200
O -0.509692622 -2.069668435 -0.614716079
H 5.861929494 0.396444094 -2.609739651
H 5.091381837 -1.423358895 0.076409413
H 3.655181667 -2.132734397 -2.850861675
H -1.757293211 4.021164888 -0.761015482
H -2.018018951 2.381527367 2.205866496
H -2.604332370 -2.637365860 -1.112686710
H -3.981158743 -1.357375838 2.206781993

