11

C -1.639645420 -2.272154630 -0.814368384
C 0.015891085 -0.003419818 -0.342313135
C -0.907472355 2.448740050 -1.400796982
C 0.410581060 4.561016235 -1.137440101
H 2.196475823 4.536473813 -0.133197195
H -0.245152923 6.342205278 -1.902346925
H -2.697519131 2.434892402 -2.402331513
O 1.974597240 -0.151064310 0.819043831
H -0.799436505 -3.951419008 0.019574142
H -1.892960825 -2.548476091 -2.845636866
H -3.515225111 -1.953387936 -0.009585579

