13

C -3.186560145 -1.509886714 -0.130463347
C -0.481657458 -1.011788922 0.376149569
C 0.814992598 2.844055864 -0.078214933
C 1.375099409 0.384049040 -1.111114893
C 3.587290025 -0.875236217 0.515698757
O 5.545144858 -0.766949316 1.432629456
O 0.753748691 -1.871847256 2.245218493
H -4.351038409 -1.043146830 1.501846742
H -3.421541957 -3.528136192 -0.514548084
H -3.829883427 -0.416606848 -1.749110640
H 0.917972959 3.118968780 1.939540968
H 0.755760304 4.482884166 -1.294084601
H 1.501901922 0.236907632 -3.155797142

