15

O -3.664888359 -2.488313655 0.008297032
C -3.025448370 -0.285730861 0.660491859
C 0.219172345 0.694169254 -0.004461095
C 2.204484823 -1.021488471 0.354230919
O 3.800250159 -1.486037822 -1.467295084
C 0.429623168 3.424935187 0.207582579
O 0.496235372 2.220866254 -2.201527571
H -1.035288101 -4.136014108 -0.075387430
H -3.766995080 1.310835115 -0.476495236
H -3.001158699 0.177014596 2.711165693
H 2.608289230 -1.922266963 2.141648802
H 0.391036265 -4.556644731 -0.061956050
H 3.363217545 -0.379943572 -2.871872444
H 2.189595444 4.303673822 0.790663206
H -1.288371033 4.481449505 0.604938031

