15

O -4.536007826 1.915580205 0.877662776
C -3.823338871 -0.514962350 1.688714445
C -1.503280685 -1.456032977 0.316762469
O 0.505624211 0.197780342 0.925771197
C 2.720662607 -0.310323095 -0.437302486
C 5.762912758 3.135242346 -1.278380505
C 4.686160777 1.607625182 0.292686149
H -3.081271182 2.989448444 1.043725086
H -5.407887775 -1.775253035 1.295045697
H -3.466624190 -0.550957286 3.732014492
H -1.837874156 -1.439037612 -1.731524603
H -1.050922864 -3.397967983 0.897623008
H 2.368907134 -0.232158996 -2.478661048
H 3.432044054 -2.207388633 0.010735137
H 5.279282483 1.772624918 2.260031773

