13

C 1.255718928 2.132032515 2.208351731
O 0.658487484 -2.604134667 2.242273827
C 0.065239015 -2.932237477 -0.002098975
C -1.989555159 -1.417280761 -1.294588931
O -2.664130108 0.556076422 0.457294825
C -0.254203539 1.580522352 0.044422642
C 0.256461290 0.082125627 -2.139146710
H 3.242782351 2.547146631 1.945164906
H 0.305970206 2.770234942 3.904797159
H 1.073043658 -4.288406593 -1.217635599
H -3.512028167 -2.212675859 -2.423722231
H -0.109178265 3.789926151 -0.125003645
H 1.678563819 0.000204544 -3.583851668

