15

C -4.136266783 -0.322008084 -1.712261113
C -2.025688121 -0.744617289 0.184011892
C 0.275624284 0.729730083 -0.131142439
C 2.332656858 0.353453486 1.575140525
O 2.361122634 -1.273727734 3.337489774
C 4.832504797 0.286829302 -0.282197167
O 5.390512367 1.762181384 -1.865067051
H -4.816246443 1.624302828 -1.653611062
H -5.735141551 -1.556623231 -1.310295314
H -3.505185828 -0.718265719 -3.635335253
H -1.372941077 -2.723562410 0.270326872
H -2.621825962 -0.465306753 2.159007335
H 0.506795237 2.104011241 -1.641872651
H 2.719174164 2.426537261 2.063336284
H 5.962994692 -1.358176534 0.333875961

