17

C -3.136496557 -0.700340665 1.957661420
C -3.970204927 1.286874635 -0.030157364
C -1.334228979 -2.238002082 0.499007940
C 1.243329959 -1.404944610 0.665907701
C 2.980034301 -1.026361356 -1.633809964
C 3.871339426 1.335726379 -0.220479487
O 1.979975665 1.030578035 1.697549236
H -2.332484515 0.306166076 3.577111960
H -4.791651412 -1.784240951 2.534829188
H -5.435477078 2.468967225 0.803347029
H -2.395665297 2.501426692 -0.567308047
H -4.738011158 0.388378856 -1.717433463
H 1.900647721 -2.970875668 1.917896744
H 4.371618302 -2.497293691 -1.980208233
H 1.930987047 -0.644207711 -3.359953081
H 5.775767091 1.200297928 0.572672186
H 3.670933668 3.132257070 -1.216405538

