16

C 3.810495253 0.888487184 0.527020654
C 1.092340161 0.882893292 -0.316481902
C -0.781127194 -0.869546459 0.880305086
C -2.795877486 -2.224741118 -0.626311495
O -3.773414914 -0.803838641 -2.667077174
C -0.948413026 1.914571620 1.366523378
H 4.905725297 -0.565643841 -0.447120993
H 3.949664889 0.524669476 2.554808752
H 4.704571396 2.712257974 0.158050589
H 0.821417043 1.264893605 -2.314830788
H -2.527992669 -0.746899775 -3.980669625
H -0.048244273 -2.009546439 2.422353294
H -4.409108767 -2.629462194 0.596369540
H -2.057165176 -4.043956516 -1.295595437
H -2.488107694 2.922592485 0.473862035
H -0.405039986 2.609423992 3.213518959

