11

C -1.527046315 -0.945044079 2.342488215
C -0.813511280 -1.679610822 -0.309626070
H -1.960081819 -3.219211551 -1.070160484
N -0.647251078 0.403771299 -2.166989973
H -1.509421199 0.125230053 -3.844871261
H -0.763573094 2.193787537 -1.527190104
C 1.737826424 -1.110453791 -1.313298089
H 2.144202125 -2.360240925 -2.913686244
H -0.397919554 0.671121966 2.948677717
H -1.088271203 -2.510084736 3.612199582
H -3.538516571 -0.508649512 2.531791491

