13

C -1.539600503 -0.729488103 2.444727803
C -0.615364746 -1.386455189 -0.170499765
N -0.822072873 0.524121739 -2.177154867
C 1.685473451 -0.320415215 -1.332618290
C 2.424884507 2.581025452 -0.152769069
O 4.494324871 3.058175327 0.546164071
H -1.009366010 1.176255472 2.999705689
H -0.706379361 -2.050150191 3.791022872
H -3.590965863 -0.914959016 2.555342165
H -1.189132406 -3.256457959 -0.803318758
H -1.552921844 0.068404136 -3.876413322
H 2.808049987 -1.452027590 -2.620528192
H -0.453171669 2.558079812 -1.372813502

