17

C 4.198153462 -0.306115374 0.049578061
C 2.024152926 1.435428613 0.770901319
C -0.248371561 -0.013690839 1.719351460
O -2.226858726 1.704047985 2.474887775
C -4.286978073 -0.579823646 0.651926940
C -3.359404436 -0.022601370 -1.905561236
C -1.740042260 -1.562845325 -0.152198807
H 3.647412776 -1.603175501 -1.459646776
H 4.816489651 -1.440781999 1.660246269
H 5.823429782 0.770829755 -0.617664486
H 1.450705065 2.588087207 -0.845123941
H 2.604716835 2.752112355 2.255470975
H 0.297556729 -1.195376477 3.334675613
H -4.168404411 0.481059737 2.727721754
H -4.278844805 -1.140276372 -3.359111926
H -2.946920668 1.909973860 -2.435627883
H -1.370808918 -3.531970579 -0.561918491

