9

N -2.128517096 -2.922843195 0.023918944
C -0.897754968 1.777191328 -0.088443189
C 1.612756488 1.953621412 -0.057582563
C 1.916147387 -0.845754675 0.006331622
N -0.577888227 -1.117103643 -0.015279437
H -3.893191217 -2.161411426 -0.021396802
H -2.638119332 2.825488304 -0.147466951
H 2.912331197 3.521785484 -0.077720165
H 3.356369763 -2.274166641 0.099038146

