13

C -1.066859227 3.203016390 0.297472825
C -0.441343873 0.767209834 0.238403804
N -2.242125578 -1.170528279 0.338033189
O -1.482212393 -3.237449015 1.835470009
C 2.226776240 -0.131669370 -0.158750166
O 2.423165838 -2.026762052 -2.036807458
H 0.327314114 4.645589869 -0.087538558
H -3.924712870 -0.587020460 1.027184464
H -2.980576917 3.817194181 0.690936594
H -0.946245869 -4.470126701 0.611595668
H 2.926443142 -0.992829527 1.578608400
H 3.425815195 1.497898424 -0.589762718
H 1.677931932 -1.392801418 -3.563880211

