13

C -1.499810222 2.972898129 0.556103974
C -0.234670064 0.681028609 -0.007603993
N -2.069281344 -1.012311281 -0.048986577
O -1.426800332 -3.462434478 0.820579328
C 2.490856263 0.139360820 -0.485925801
O 2.983938173 -2.023046114 -1.935068705
H -0.942954042 4.746870459 -0.312360409
H -3.487517965 0.868196968 0.403462178
H -2.116581755 3.135004750 2.508074578
H -2.614962382 -4.543685027 -0.028442759
H 3.450784921 0.071540269 1.356055656
H 3.278796184 1.760903249 -1.493034174
H 2.111572299 -3.412606350 -1.151887454

