11

N 4.601146005 2.061683473 0.630868928
C 2.594218575 1.168171186 0.486834589
O -0.730776897 2.585518351 1.004874131
C -2.542203485 1.083928197 0.748325895
C -0.927693124 -2.496925213 -0.235647582
O 1.417535855 -2.171415390 -0.274589810
H 6.467399275 2.287093520 0.611967434
H -3.661474625 1.151924303 -0.988987128
H -3.449961681 0.312878799 2.438907200
H -1.780132119 -3.434291089 1.397946859
H -1.954660629 -2.584278219 -2.027878786

