15

C -3.718301071 -1.505702444 -1.932497657
C -1.457533118 -2.233957709 -1.093345836
C 0.455927457 1.876340401 -1.111458596
C 1.272317035 3.655775438 0.410898571
N 2.345348523 5.289733273 1.650165430
N 0.613249916 -0.719466527 -0.602610531
C 2.447519249 -1.546646101 1.240659587
H -5.124994697 -2.915782517 -2.378870564
H -4.221916730 0.458731338 -2.190686628
H 1.220008414 6.169004452 2.940287333
H -1.068310744 -4.225748452 -0.791438107
H -0.380839737 2.426434668 -2.896819777
H 4.281629317 -0.705975772 0.818470526
H 2.624982882 -3.596605996 1.149023536
H 1.920060235 -1.027086671 3.179381699

