15

C -3.382278381 0.364770678 -0.392351363
C -1.012704419 -0.614576126 -0.864384502
C 1.857696023 1.619180328 -0.442069094
C 0.604652380 3.782399258 0.075993276
N -1.352816325 4.852195044 0.433506121
N 0.976384110 -0.534961888 0.944642682
C 2.684647847 -2.669604078 1.017239082
H -4.822229278 0.104589103 -1.824431552
H -4.013968433 0.476413222 1.555168974
H -2.781104136 3.250858209 -0.356739607
H -0.550809925 -1.424533359 -2.704920073
H 3.269434141 1.440934274 -1.915278548
H 3.377534204 -3.203962198 -0.870618236
H 1.707167847 -4.285653073 1.838775631
H 4.298095030 -2.196462255 2.206524272

