17

C 3.635534411 -1.083666829 -0.478196556
C 1.566409877 0.336250610 0.910842172
C 1.146476280 3.154253444 0.139454834
C -1.472840239 2.332943246 -0.644291559
O -5.221952595 -1.942097541 -0.831873257
C -2.713178403 -2.391766697 -0.054552784
C -1.123632363 -0.074282451 0.007359160
H 3.564221949 -3.106178169 -0.067094178
H 5.503102496 -0.397359024 0.070238380
H 3.436049687 -0.845789654 -2.520570184
H 1.782583812 0.100138553 2.955100102
H 1.249622596 4.510427605 1.692153274
H 2.374185819 3.798028843 -1.391144960
H -3.054040965 3.345624535 -1.459525040
H -1.926148479 -3.747612480 -1.402245325
H -2.653628767 -3.313415362 1.808318329
H -5.918246998 -0.651733432 0.234913612

