16

C -2.599116292 0.169182663 -1.055014253
C -1.113451539 -0.675455864 1.282054945
O -0.629440957 -3.295448716 1.378242515
C 1.339316500 0.888745529 1.087884074
C 3.471408239 -0.487087415 -0.301693718
C 0.663392986 3.235899571 -0.419330303
N -1.472491301 2.658138674 -1.521610480
H -2.304615590 3.869754248 -2.733995626
H -4.632851547 0.323705890 -0.746674312
H -2.258354149 -1.112906656 -2.640073970
H -2.138382354 -0.082881952 2.982585394
H -2.135817712 -4.160099008 1.887398436
H 2.022483504 1.430187779 2.957193049
H 5.108204727 0.752167992 -0.463590977
H 2.900355114 -1.037083568 -2.207685924
H 4.011802353 -2.195283973 0.711233840

