14

C -3.337835348 1.667354738 0.805178419
C 0.301254961 -1.218564172 0.647577547
C 1.221346699 -3.377828435 -0.020354864
O 2.141222064 -3.856701740 -2.504302911
C 3.414992129 -2.088154190 -3.617343303
C -0.594120936 1.038901673 1.154600930
N 0.886222480 2.956408832 2.155931277
H -4.391312611 0.024514208 0.164201459
H -3.550158191 3.172384894 -0.594026828
H -4.142420091 2.331255134 2.586033151
H 1.367651526 -5.074929257 1.109820563
H 3.810676799 -2.951644795 -5.497374584
H 0.284395807 4.715187065 1.751544343
H 2.756888278 2.740011021 1.876588144

