15

O 4.712980904 1.209312980 1.493150978
C 3.218165758 -0.026025554 -0.325923106
C 0.727585376 -0.923241912 0.795894308
O -0.601981668 1.212248046 1.777898482
C -2.984590450 1.485764719 0.572545858
C -3.133243091 -0.684232810 -1.235955775
C -1.051314396 -2.054542198 -1.094413909
H 3.668704566 2.487183127 2.252919902
H 2.813772134 1.214767013 -1.941015635
H 4.306350733 -1.642170037 -1.009498159
H 1.138110613 -2.216258194 2.365467398
H -4.490442088 1.430976173 1.994842367
H -3.088367708 3.319738197 -0.387011469
H -4.740287655 -1.029136967 -2.450348509
H -0.626571105 -3.741621916 -2.166739376

