10

C 2.126445200 1.182457761 0.977197731
C 2.081453863 2.241631415 3.579111895
H 0.140356233 2.680659637 4.131310542
H 2.901957829 0.918413548 4.921943474
H 3.130945770 4.020061137 3.619170895
N 2.976457314 -0.998094115 0.492656684
C 3.083968596 -1.794578074 -2.022331703
O 4.110887969 -0.663629391 -3.699174453
H 2.215886996 -3.668566257 -2.302167865
H 1.378932681 2.377224253 -0.542295008

