10

C -2.902490826 -0.405290318 -1.946050413
C -4.073229299 -2.176177519 -0.061253129
H -3.969086870 -1.403658934 1.844005429
H -6.056715489 -2.522712208 -0.517467692
H -3.109512647 -4.001782780 -0.079728263
C -1.876703814 1.755957382 -1.380904515
C -0.851631005 3.914502188 -0.804103165
H 1.138531984 4.050770717 -0.336927945
H -1.955297618 5.640267964 -0.780428185
H -2.910485804 -0.975433823 -3.919855366

