16

C 3.350272203 1.025014908 0.981893417
C 2.081872173 -1.217078243 0.416370670
C -1.470535322 -0.771589274 -1.313777532
C -3.255184208 -2.262597038 0.343950790
C -1.568947647 1.795965209 -1.392636993
C -0.448115764 3.823337132 -0.871009202
H 4.940356134 1.584664065 -0.184176299
H 1.581219340 2.943616879 0.150051889
H 3.453382822 1.631289353 2.937261031
H 2.770010518 -2.366015437 -1.131222070
H 1.261784930 -2.277318553 1.962779611
H -1.030963482 -1.678065555 -3.106270841
H -3.497166794 -1.347170353 2.174796772
H -5.111934441 -2.424425624 -0.541812561
H -2.542837942 -4.173889549 0.649201275
H -0.641585395 5.835457775 -1.057141461

