14

C 4.166403247 -2.083658815 0.916582045
C 2.172608280 -0.235697244 1.430894215
C 1.226887622 0.898234543 -0.896554973
O -1.115832575 2.200397496 -0.654001652
C -3.064381301 0.637692181 -0.159119929
O -2.889080479 -1.636093585 -0.094384733
N -5.230677045 1.966148520 0.169188238
H 5.106565710 -2.040547359 -0.935598132
H 5.519045435 -2.300243614 2.453170532
H 2.990974304 -3.811440418 0.963892585
H 2.645578496 2.369736459 -1.289703630
H 1.157342205 -0.357293844 -2.546600821
H -6.727291324 1.013571444 0.832609929
H -5.134917423 3.838233276 0.446344977

