14

C 2.892811970 -2.255226199 0.797000667
C 1.139672037 -0.093056558 0.991765592
C 1.257866923 1.843806384 -0.973694784
O -0.646460019 0.098022116 -1.888274002
C -2.560812280 -0.409475381 0.062644742
O -3.299994319 -2.528776112 0.337980276
N -3.852371168 1.757616959 0.714274315
H 3.857813560 -2.455385178 -1.024252290
H 4.321071227 -1.913038183 2.260738190
H 1.931258355 -4.009431786 1.291110777
H 0.534938909 3.726721785 -0.566069558
H 2.797025154 1.847796711 -2.343789763
H -5.563927639 1.391276598 1.451872556
H -3.800246814 3.210448589 -0.505624930

