16

C -3.326067759 1.693902877 -0.229263539
N -2.237423014 -0.786036589 0.090543657
C -1.317623899 -1.223641847 2.606962075
C 1.314598145 -1.583956608 1.734197054
O 2.613826184 -3.354421210 1.297426469
O 2.094340813 0.912455469 0.679714834
C 3.743986550 0.872108512 -1.028803544
H -5.082742406 1.853967612 0.871946733
H -3.804679072 1.983851795 -2.216026212
H -2.103549921 3.273351052 0.357897404
H -0.112747353 -0.752882063 -2.708573915
H -2.006434193 -2.971983974 3.461304138
H -1.515533178 0.345649371 3.943305696
H 4.304872381 2.682179014 -1.802246734
H 0.977464636 -0.397324688 -3.673049160
H 4.684621746 -0.889118220 -1.495304585

