10

O 4.045391196 -2.032866397 -0.625908908
C 2.138455505 -0.991047288 -0.109399836
N 1.810957445 1.740230779 -0.099865884
N -0.218340279 1.611387400 1.553691038
C -2.225056136 1.108507921 -0.105360319
C -2.307209220 -1.453715833 -0.064823237
N -0.043920769 -2.247980573 0.904972701
H 3.360421033 2.575259539 0.666525453
H -2.832917176 2.496701450 -1.480571600
H -3.740607190 -2.797094526 -0.637224153

