14

C -3.320103386 0.360363156 0.895725950
C -0.910745021 -0.864802831 0.060711420
C -0.748198452 -3.329410325 -1.065181528
O 1.727816828 -3.501758148 -1.798985312
C 2.980988348 -1.284719667 -1.416502647
C 1.503675751 0.418218766 -0.249895531
N 2.048137576 2.822374111 0.677660135
H -4.795804974 -1.059256046 1.110183598
H -3.944163669 1.703141521 -0.541650744
H -3.092430336 1.379352086 2.673956948
H -0.678869295 -2.857296778 1.413970868
H 4.922310421 -1.216956582 -2.036562436
H 0.653098665 4.086908970 0.386878773
H 3.715263374 3.523643520 0.083856087

