12

C 2.134367442 0.744824818 -1.960039319
C 1.701995686 0.893423130 0.839164406
O 3.153726664 1.876686353 2.286054851
C -0.751071478 -0.167623677 1.902364556
C -4.036829621 -1.112889705 -0.854602675
O -1.970947177 -1.887941864 0.197422031
H 0.560445488 1.631971828 -2.961154785
H 2.195065048 -1.226753300 -2.565946987
H 3.898117469 1.686670309 -2.430776673
H -0.343597790 -1.196065112 3.637292877
H -2.046596958 1.395461170 2.281463875
H -4.572964255 -2.744524027 -2.068987245

