16

C -2.576286510 2.402050360 -1.070422589
C -0.719483289 0.600073574 0.112364325
C -1.370275411 -2.117565188 0.134939277
O -0.481072606 -3.430778202 2.397875917
N 1.787441769 1.149115414 -0.565043437
C 3.898298051 -0.012670009 -0.076982189
O 4.116055218 -2.081613885 1.281517053
H -2.117033816 4.373147525 -0.642879839
H -4.457937419 2.084502785 -0.290752298
H -2.750413378 2.245360260 -3.145055599
H 2.446493676 -2.728322215 1.894841689
H -3.418825457 -2.330322800 0.010808799
H -0.527244171 -3.236999600 -1.403001914
H -0.934281427 -2.321571573 3.771321173
H 2.036292867 2.792493667 -1.507905733
H 5.647879252 0.822590015 -0.718379745

