16

C -2.251406647 2.575801002 -0.328249529
C -0.421411269 0.444292602 0.153702065
C -1.463109416 -2.194055878 -0.051123970
O -1.168912185 -3.699688024 2.190505366
N 1.839633699 0.815181760 -1.291933413
C 3.976959640 -0.084754330 -0.503562407
O 4.052284293 -1.292823833 1.623017379
H -1.516664840 4.396879064 0.313629625
H -3.997315939 2.253159708 0.719220541
H -2.793325146 2.797952178 -2.335261127
H 2.288514046 -1.044676336 2.327075022
H -3.481868195 -2.115712822 -0.528803422
H -0.525060347 -3.300319844 -1.527896522
H -1.744965866 -2.662753083 3.564956429
H 1.861856614 1.915806405 -2.863334624
H 5.724885421 0.197269001 -1.525079091

