11

N -3.549460259 -0.935945558 -0.529665213
C -1.086611003 -0.140745630 -0.036997814
C 1.118224307 -1.442220931 -0.398114121
N 3.058596396 0.156010554 0.103040813
N 2.184566316 2.383185772 0.983561951
C -0.452813415 2.310452821 0.915024721
H -4.825196356 0.190601594 0.324457132
H -3.893971977 -2.768645077 -0.150044198
H 1.475523877 -3.366911109 -0.972668889
H 4.915576533 -0.231832168 0.148963425
H 1.145219876 3.829820782 -0.381204549

