19

C 3.024992076 0.214339729 2.303187807
C 4.246990901 -0.282746738 -0.029546907
O 1.076407710 -1.099961238 -2.337655372
C -0.537935146 -1.636506603 -0.618598162
C -1.429652004 0.649385296 1.543071741
C -3.106699979 -0.502767569 -0.440371005
C -4.014286266 1.126592865 -2.591242332
H 2.817197225 -1.281441521 3.677551810
H 2.773488237 2.137081958 2.932900299
H 5.647525741 0.221015565 1.871637024
H 4.827422529 -2.175224738 -0.508492098
H 4.652585125 1.233881744 -1.329009915
H -0.343173830 -3.419834949 0.441319685
H -0.933250714 2.593758181 1.139857684
H -1.865116694 0.249684222 3.504720199
H -4.519866144 -1.791304861 0.306974897
H -4.779627085 -0.034383170 -4.116380855
H -5.485346629 2.435482469 -1.970255745
H -2.446250676 2.211479852 -3.370820877

