11

C -1.300953756 1.490877184 -0.155294461
C -1.568129641 -1.351268489 -0.597748001
C 1.717019273 -1.269080142 1.617380118
O 1.834364009 -1.095123766 -1.385317687
C 1.484239030 1.120565583 0.206610333
H -2.289764440 2.173716359 1.516586246
H -1.832204222 2.590324190 -1.819505414
H -2.502755188 -2.505285853 0.802594124
H -1.957865435 -1.962713376 -2.522037311
H 3.644091186 -1.679062952 2.247539757
H 2.944356990 2.547469585 -0.002459403

