17

C 3.814337557 1.020025842 0.034708921
C 2.236882798 -1.303960518 -0.080632459
C 0.118521865 -1.449720763 1.885236097
C -2.117990660 -0.726561787 0.264316919
O -4.465283805 -1.832958903 0.658100505
C -1.964050792 1.802915602 -1.015830291
C -1.050443554 -0.517135421 -2.324544301
H 5.218457717 0.560860698 1.491633717
H 2.890722802 2.774176665 0.665104624
H 4.857091343 1.367709163 -1.707093959
H 1.104690448 -1.475649261 -2.275160504
H 0.392357259 -0.158649425 3.481644640
H -0.101320142 -3.368387533 2.611961195
H -5.293164732 -0.965717872 2.018752958
H -3.757132127 2.504943718 -1.713161737
H -0.668891598 3.260321485 -0.385198221
H -1.877987581 -1.230981600 -4.054443418

