13

C -2.202349262 -1.116990769 1.586126278
C -1.956267293 0.681553443 -0.599786827
N -0.407116455 2.957025279 -0.268218712
C 1.124062786 1.504138375 -2.028161980
C 3.048143376 0.001565033 -0.849119276
C 4.858247043 -1.110323249 -0.031865488
H -0.350510842 -1.679290230 2.298840643
H -3.247870212 -0.214475733 3.120303097
H -3.229436141 -2.814318567 1.027268671
H -3.707136777 1.141508435 -1.583628986
H 0.350660414 2.872911604 1.499602919
H -0.874400977 -0.261256413 -2.376838655
H 6.481426031 -2.089643407 0.641099093

