11

C 3.679551462 0.875475909 4.411188089
C 2.478839740 0.719606026 2.488904044
C 1.083268815 0.545069013 0.232309966
N -1.087255834 -0.682639828 0.212784995
C -2.738506553 -1.109067960 -1.662425048
C -2.234354741 -0.160778541 -4.080565254
N -1.741455662 0.656658928 -6.043117795
H 4.747440476 1.012813948 6.110207324
H 1.729828630 1.383136074 -1.513937682
H -1.592598042 -1.430240824 1.901000231
H -4.411627148 -2.181537784 -1.239055550

