16

O -4.528962265 -0.215347425 -0.482085745
C -2.082727387 -0.105873777 -1.097503668
C -0.391929217 -2.314381279 -0.731167276
C 1.868062191 -1.488073643 0.766483914
C 2.582489234 1.159400381 -0.001422850
C 0.223864723 2.441130955 1.099273264
H -4.769475816 -1.435763340 0.845111696
H -1.793846674 1.103258640 -2.728080103
H -1.368929869 -3.950557048 0.078839827
H 0.111171038 -2.815792024 -2.695061504
H 3.352062340 -2.892094006 1.043938190
H -0.318236210 0.432357886 2.148507129
H 4.314299488 1.792735648 0.921908672
H 2.823165679 1.507867617 -2.040203466
H 0.727598169 3.303817972 2.913997387
H -0.814315018 3.906141435 0.072178467

