15

C -1.626865372 2.158945088 0.434614048
N -0.680442473 0.040967599 -1.020502525
C -2.476296679 -2.030750603 -1.154163515
C 1.775615920 -0.804217682 -0.443228176
O 2.452114477 -1.399538840 2.121252289
C 3.678639593 0.655621242 0.897468259
H -1.743513857 1.760176460 2.469597713
H -0.440025978 3.816752722 0.145532873
H -3.517616522 2.627736024 -0.237246101
H -4.235270196 -1.363834884 -1.998215982
H -2.906490318 -2.842949335 0.709335592
H -1.720798952 -3.529036458 -2.352457767
H 3.230012734 2.511908587 1.646502404
H 5.664724799 0.365205258 0.459792098
H 2.421621290 -2.233565043 -1.770675627

