15

C -1.531713447 2.204567649 -0.307540644
N -0.771843782 -0.400007210 -0.035118481
C -2.785979478 -2.235304064 -0.244477100
C 1.655372930 -1.214229273 0.280468370
O 2.177649351 -3.448754524 0.436297530
C 3.710982974 0.772321600 0.441852134
H -3.016340116 2.658675772 1.057976361
H 0.036896184 3.485846352 0.015937194
H -2.280954820 2.562027053 -2.203968436
H -3.696369854 -2.110905207 -2.097526834
H -4.218289420 -1.899186377 1.207588926
H -1.995281766 -4.113659007 -0.003628444
H 5.495410139 -0.215009486 0.674272045
H 3.425378782 2.034243799 2.047710725
H 3.795082325 1.919372866 -1.269843327

