14

C 4.437158085 -0.109796962 0.349012819
N 2.097313598 1.253237907 -0.127242346
C 0.021560169 0.453954167 1.076237730
O -0.444163572 -2.070249280 1.140340093
C -1.799315107 -1.089711061 -1.137220288
C -4.334841793 -0.460652320 -0.112690945
C -2.352152425 1.533276704 0.373744704
H 5.680090465 0.165911000 -1.268907213
H 5.399018516 0.669966039 2.001677658
H 4.166706832 -2.140418439 0.636953771
H 0.586202927 0.031598073 -2.023407032
H -5.061342845 -1.584319171 1.438769762
H -5.730646799 0.154236687 -1.477565859
H -2.364397813 3.355432100 -0.542744329

