11

C 2.725126971 -1.052727250 0.330241564
N 0.930007887 0.948294332 0.825409619
C -1.480858177 1.023792746 -0.050004988
N -2.791670861 3.037502385 -0.055357221
C -2.494898652 -1.392309939 -0.929926327
N -3.379334112 -3.234070940 -1.654697636
H 1.780869434 -2.880909058 0.406240774
H 3.642470198 -0.866164454 -1.513682739
H 4.170369631 -1.032851432 1.795219258
H 1.603210215 2.666721263 1.289665250
H -4.574659566 2.722215187 -0.673941399

