11

C 2.949732902 -1.057395289 0.016913068
N 1.068393457 0.906974545 -0.115283423
C -1.384657134 0.634416020 -0.037291345
N -2.358864260 2.821346251 0.651291350
C -2.748734545 -1.666050147 -0.577156676
N -3.804955728 -3.507151370 -1.014942819
H 2.184103465 -2.867532461 -0.621348413
H 4.545979948 -0.564771751 -1.187279700
H 3.645143744 -1.290078325 1.948843901
H 0.166834187 3.203664377 0.543441732
H -4.132343069 3.326070971 0.161978479

