11

C 3.352754018 0.559463661 1.311379242
O 1.285392541 -0.696317344 1.197518595
C -0.980673429 0.034645993 0.453746108
C -3.063715399 -1.841873138 0.666002471
H -2.350383264 -3.742316995 0.305013985
H -3.961784383 -1.833734730 2.529666060
H -4.518564690 -1.434495523 -0.733911480
C -1.235299360 2.554075595 -0.308391171
N -1.297656826 4.650160928 -0.926226867
H 3.389040104 2.530242785 0.764148005
H 4.965332285 -0.502944145 1.955097439

