13

C 3.450480864 0.431650221 0.759761176
O 1.327949268 -0.730944213 1.205575537
C -0.806325086 -0.097282780 0.030866144
C -2.994845597 -1.826229456 0.475332412
C -1.229014188 2.528036209 -0.389260924
N -1.520516858 4.658109002 -0.738720871
H 3.433858984 2.444601040 0.378128472
H 2.790997665 -0.082007405 -2.532043203
H 5.073546431 -0.465309758 1.613077004
H 1.267294748 -0.259193531 -2.824745717
H -2.387866548 -3.787968300 0.328023328
H -3.856907720 -1.535655586 2.332208086
H -4.438639668 -1.483785590 -0.951977239

