14

C -2.205606980 -0.871546337 -0.212177788
C -2.463792475 1.929929519 -0.471324586
C 0.025885223 1.960364012 0.880671409
C 1.934536633 0.669351160 -0.252924346
C 3.020129868 -1.514671349 1.151823014
O 1.158999154 -3.209909148 0.447941796
H -2.093433158 -2.040185004 -1.878859425
H -2.935304919 -1.775822353 1.462912525
H -4.020120115 2.782311898 0.563900247
H -2.401397384 2.589334068 -2.418481302
H -0.027959859 1.979716697 2.931738023
H 2.092819508 0.592766796 -2.299619343
H 4.891358843 -2.102252378 0.468942435
H 3.153963088 -1.126269873 3.194686988

