15

O 3.616861215 -1.403105868 -1.322826618
C 1.834231936 -1.048747865 0.622271279
C 0.743074025 1.634719905 0.522869569
C -1.768414835 1.208681831 -1.090363924
C -2.899724777 2.097447522 1.191731422
C -0.514751664 -2.677273134 0.257373763
O -1.856655105 -1.390707470 -1.670846083
H 2.712076334 -1.482124691 -2.897975552
H 2.811238030 -1.434132715 2.392993753
H 0.291643152 2.260108666 2.475245897
H 1.950461299 3.037115860 -0.365168239
H -1.803817852 2.276715711 -2.848900291
H -2.911594223 4.175121121 1.088712586
H -1.624063002 -2.772273578 1.998610764
H -0.073826913 -4.574886409 -0.406481904

