14

C -3.408170747 1.076261427 -0.304714860
C -0.729841747 0.434496526 -0.842702011
C 1.266335598 1.908468239 -0.109657821
N 3.729389077 0.587486429 -0.787696374
C 2.408464657 -1.196156064 0.587822989
O 2.399477196 -0.957718416 3.028860270
C 0.269025531 -2.235313153 -1.048928315
H -4.600234893 0.685631132 -1.946212212
H -3.586927972 3.069203013 0.187717305
H -4.136560239 -0.062392502 1.262006028
H 1.640954376 1.320943940 2.585538137
H 5.081292135 1.365788237 0.324576506
H -0.920434913 -3.601343767 -0.079238238
H 0.883896265 -2.928480796 -2.884254666

