11

C -2.802172201 -0.502086701 -0.682435227
C -0.200944594 -0.309842273 -0.326307419
C 0.957346744 1.187695647 1.524825037
O 3.446004632 1.111298877 0.989671473
C 3.720787232 -0.676713722 -0.850599007
N 1.659300215 -1.674904988 -1.616714613
H -3.221907548 1.436496573 2.253502051
H -3.610738729 -2.323897051 -1.188545476
H -3.969766265 1.114807777 -1.095281671
H -1.757903554 2.069451986 2.585255850
H 5.626958377 -1.145802895 -1.407660070

