15

C 3.058331796 -1.003579612 0.053485863
C 0.802240896 0.366328152 1.151754965
C -0.382517285 2.531298216 -0.326359859
O -0.934044531 1.572338458 -2.793404061
C -3.013876934 1.445295251 -0.179332647
C -1.872023416 -0.905569496 1.086084771
O -2.197352977 -3.260338417 -0.033458017
H 4.740316775 0.191006544 0.101087063
H 2.729691453 -1.554895001 -1.904273217
H 3.455735172 -2.713110543 1.135609107
H 1.199694633 0.978970994 3.081799417
H 0.179142654 4.504214903 -0.279360726
H -2.992562770 1.873769617 -2.812538388
H -2.676383886 -1.023551617 2.986352827
H -1.784531969 -3.110254629 -1.794839423

