17

C -3.964924446 -0.095343826 0.638818912
C -2.590036195 -1.358146506 -1.512339181
H -3.813533044 -2.460422299 -2.732271704
C -0.416577217 -0.137459680 -2.873901103
H -0.344226369 -0.243350162 -4.915442438
C 0.831413128 2.052978261 -1.510961061
H 2.689120942 2.514846393 -2.341745590
H -0.196733434 3.844001741 -1.533265461
C 1.570667997 1.281357466 1.089070727
C 1.519906854 -1.527875130 1.024106157
H 1.000766963 -2.347941643 2.846910050
H 3.551960536 -1.959378311 0.820926811
C 0.024563907 -2.436607857 -1.244969070
H 0.425726572 -4.267403307 -2.064342469
H -5.398484763 1.209545171 -0.069596705
H -4.909023889 -1.492473379 1.828634529
H -2.715956622 1.001276206 1.874382474

