18

C -3.179038223 -2.724187966 1.089762915
C -1.415240026 -0.561876880 1.777571673
C 0.675225922 1.611533381 -1.258826583
C 2.301484937 3.183781435 0.400822949
C 1.692507465 -0.726340632 -2.403995512
O 2.800451946 -2.213449211 -0.739166714
H -2.335153394 -4.532865419 1.598533483
H -3.527590723 -2.769273940 -0.944889859
H -5.006303400 -2.556784688 2.033691168
H -2.344058218 1.246357905 1.403868222
H -0.942550850 -0.482020379 3.791119607
H -0.854764643 2.591088055 -2.236506648
H 3.661277470 2.003750423 1.395101461
H 3.318862347 4.532057523 -0.795835896
H 1.189097881 4.294714593 1.731788749
H 3.024637016 0.256563599 -3.756343185
H 0.251617808 -1.595482596 -3.655537899
H 0.579172881 -1.237201842 0.994584138

