13

C -1.677371043 -0.839552140 -1.345153543
N -2.098349753 1.190109451 0.500991718
C 0.375893908 2.301843191 0.962852253
C 2.322202156 0.229656772 0.466074247
O 4.538490643 0.335670105 0.929844710
C 0.917041721 -1.969629074 -0.740897949
H -3.215643862 -2.204561621 -1.266763035
H -2.777059461 0.442178906 2.123015989
H -1.676782015 -0.014408160 -3.240829092
H 0.744093475 3.842144386 -0.373567070
H 0.566679033 3.075841337 2.861198572
H 1.965407936 -2.711966522 -2.349729381
H 0.774505896 -3.476414728 0.668307767

