12

C -1.803209360 -2.202606756 0.690542076
C -0.071705223 -0.388648690 0.662777049
C -0.694774496 2.305317302 1.296558593
H 0.412557146 2.947288862 2.919815948
H -0.222869272 3.556954213 -0.279242637
H -2.692026207 2.544515584 1.738529024
C 2.638688272 -0.896631223 -0.003048412
H 2.962183344 -2.885991892 -0.426371725
H 3.889015943 -0.350358493 1.549619207
H 3.207466299 0.220047458 -1.647114902
H -1.329157672 -4.142169078 0.231941678
H -3.755539806 -1.810891740 1.172007802

