14

C -1.770971899 -2.023822111 0.093472827
C 0.047710879 -0.166340761 0.640326044
C -0.679637790 2.472893150 0.294990160
C 2.785655371 -0.770990798 0.095060651
H -2.112926742 -0.103732698 -2.847782555
H -1.212254169 -3.990445953 -0.019553525
H -3.744275148 -1.669541359 0.509880309
H -0.220798586 0.684725367 2.682075968
H 0.743475648 3.934951028 0.496067394
H -2.607954881 3.003329106 0.739031315
H -1.788099526 1.438290698 -2.858541692
H 3.298448467 -2.635162156 0.805715611
H 4.057730370 0.620052325 0.929742910
H 3.069580089 -0.753776999 -1.950256547

