13

O -1.178914354 -2.637704669 2.327133566
C -2.223432672 -1.544122825 0.459418480
C 0.343689687 0.617219134 -1.655980061
C -0.683548691 3.199379669 -1.306775907
O -2.082200626 4.201936335 -2.788015885
C 2.359026493 -0.136436488 -0.238805257
C 3.365350913 -1.281393654 1.551456985
H 1.157921179 -2.253334640 2.273953649
H -2.713591270 -2.666793526 -1.206675697
H -3.463112663 0.067396685 0.839759519
H 0.090135117 -0.176002761 -3.529795429
H -0.122166221 4.134590653 0.481525687
H 5.098478798 -1.676000840 2.522732012

