19

C 4.494480679 1.043388904 -0.695168901
C 2.744517205 -0.376635928 1.067453338
O 3.813900199 -0.183118997 3.518946473
C 0.045480984 0.659914397 1.088117568
C -1.253231406 0.489320278 -1.528072153
C -3.907110940 1.114952114 -0.944430825
C -5.493405895 -1.145525161 -0.727213724
H 3.915354965 0.826943151 -2.660851187
H 6.412284656 0.316553730 -0.503146516
H 4.510936338 3.052349452 -0.222645340
H 2.681443231 -2.372904018 0.491879496
H 2.759908684 -1.075387277 4.692759587
H 0.074314727 2.618384166 1.733639849
H -0.939449469 -1.416645907 -2.311365635
H -0.395101841 1.900792739 -2.763066587
H -1.044862456 -0.418047235 2.482360243
H -4.543867008 -2.969662086 -0.416506334
H -6.248585109 -1.183474755 -2.677829470
H -7.141516116 -0.918640618 0.487355832

