19

C 4.369163793 0.244730890 -0.495859675
C 1.937548573 -0.466863718 0.843168849
O 2.550921624 -0.800389626 3.430803600
C -0.061541123 1.558182577 0.514051729
C -1.479274322 1.689464269 -1.986059959
C -3.526931719 1.011175687 -0.206766330
C -4.066314924 -1.784575584 -0.160970972
H 4.050022121 0.493036103 -2.516529761
H 5.780907354 -1.229426545 -0.219636461
H 5.115036956 2.006014163 0.277586406
H 1.230748427 -2.247368226 0.050042669
H 1.102747469 -1.457418033 4.300569683
H 0.538600745 3.411802706 1.176571340
H -0.866841411 0.245845375 -3.331663899
H -1.539790742 3.553537437 -2.840907977
H -1.771798427 1.297065342 1.938660885
H -2.598955211 -3.056182082 -0.898597824
H -5.696836651 -1.965840986 -1.423619545
H -4.699747436 -2.450090940 1.684677083

