15

O 4.825523997 1.366525835 1.150555612
C 2.539709387 1.032905705 -0.170376441
C 0.901013593 -0.962076407 1.033885282
O -0.146035616 -0.066272336 3.430420930
C -2.546828099 -0.206120006 2.735089286
C -2.872197874 0.000369782 -2.176799900
C -1.846984658 -1.311640440 0.155425212
H 4.444431131 2.015189653 2.801509096
H 1.492134438 2.814067536 -0.321112505
H 3.033217128 0.424338417 -2.080527274
H 2.004250180 -2.675690564 1.358370930
H -2.466706073 2.021244430 -2.171864881
H -2.085314234 -0.809554779 -3.902637883
H -4.920576824 -0.217730030 -2.244508939
H -2.387287479 -3.307978015 0.145377802

