14

C 2.337073601 -1.895870191 -0.060213213
C 2.006123616 0.515738347 0.845558805
O 3.249871054 2.465417034 -0.303162450
C -1.879035793 1.916158215 0.100646379
O -1.456149271 4.101512018 0.017348631
C -3.412474768 -0.117503586 -0.094400626
H 2.089475524 -3.475782691 1.215385804
H 3.598817864 -2.190946655 -1.646534718
H -0.063783888 -2.681216463 -1.574267793
H 1.555275422 0.781635096 2.841086254
H 2.140649629 3.922547924 -0.292709676
H -1.599988780 -2.109557776 -1.513048622
H -4.973012831 -0.010216124 -1.411045931
H -3.592629748 -1.353277570 1.523282245

