17

C 2.567262936 2.132011766 2.452554878
O 0.993941083 -3.795968663 -0.386031155
C 0.657842690 -2.071056968 -2.384543389
C -1.283832365 -0.022591241 -1.880891371
C -3.393471172 -0.483727841 -0.027753727
C -1.357708808 1.346549597 0.603569378
O 0.339679934 0.665069608 2.511075614
H 3.551699433 1.949258734 0.639886305
H 3.788780788 1.452632642 3.962683420
H 2.144016667 4.133261741 2.777602814
H 2.463077837 -1.180608135 -2.900616199
H 0.050840455 -3.185865463 -4.012746045
H -1.721992616 1.103235075 -3.537676720
H -5.262944761 0.239839580 -0.426137266
H -3.341306567 -2.274587180 0.959082873
H -1.815223275 3.351103550 0.601480512
H 1.213052295 -2.826803005 1.140519995

