13

C 3.772639786 -0.095743938 -0.138066830
C 0.986020560 0.275313273 0.117616875
C -0.335235903 2.428861605 0.839473169
C -3.026241677 1.503119964 0.610114463
C -3.031757107 -1.112390911 0.019447757
N -0.623116346 -1.745193257 -0.272958372
H 4.481265087 -1.588183434 1.104879023
H 4.325901688 -0.563054179 -2.074875613
H 4.702161032 1.662422912 0.381253058
H -2.312651385 2.575296539 -1.190338278
H -4.655824040 2.504067622 1.329934388
H -4.541650643 -2.465868018 -0.196806000
H -0.057410881 -3.484554138 -0.816745678

