11

C 2.597793767 0.767794099 -0.152460704
C 2.856898821 -1.885720548 0.830587544
H 4.197518344 -3.000893873 -0.274721014
O 3.684451767 -1.926670497 3.489791268
C 1.501078341 -3.241301977 3.984023587
H 1.061270097 -3.876497358 5.876697174
C 0.535938045 -3.318301419 1.665483966
H -1.120386834 -4.073055350 0.761593851
H 1.327059888 1.856893229 1.050011373
H 4.435136343 1.702508047 -0.207807607
H 1.828496050 0.734996126 -2.066992469

