10

N 2.654684085 -1.184176675 -0.878070239
C 0.946724820 -0.942345456 1.024176474
O 1.128302500 -1.512254333 3.167303420
N -0.976909510 1.951979278 0.401468536
C -2.729821485 0.449795126 -0.368757943
O -2.026544224 -1.836293098 -0.431315040
H 4.460575590 -1.274232367 -0.293014905
H 2.324721936 -0.219286956 -2.476507780
H -1.257291766 3.796614572 0.793786205
H -4.639195546 0.987272768 -0.932751373

