19

C 2.898980452 2.355866493 0.614742384
C 1.690386286 -0.303738118 0.330798259
C 3.608212524 -2.158837940 -0.753551895
C -0.402854990 0.273582322 -1.402285992
C -4.491813047 -1.448302221 -0.952194973
C -2.847900966 0.831064719 -0.203736570
O -3.046959198 1.041200563 2.484689860
H 1.604072176 3.756355638 1.401892910
H 4.504699562 2.191552217 1.896311915
H 3.573454300 3.054487999 -1.202421357
H 1.074442716 -0.908142433 2.217491279
H 5.230143689 -2.361032910 0.510048476
H 4.270440399 -1.515611356 -2.597662714
H 2.762201376 -4.022796440 -1.001022850
H -4.735197016 -1.554544079 -2.989059595
H -6.319857263 -1.230696271 -0.030061347
H -3.643359389 -3.204586337 -0.279650478
H -3.661713392 2.519368129 -1.094203280
H -2.174308391 2.532375247 3.028319865

