19

C 2.952383356 2.192500180 0.610566618
C 1.365641557 -0.202763701 0.262961400
C 2.903351502 -2.262498470 -1.035850238
C -0.866632634 0.637832399 -1.333068858
C -3.553178333 -1.493172710 -0.706686706
C -3.195067257 1.208687386 0.124768204
O -3.160719558 1.407023044 2.783448530
H 1.880887157 3.698342105 1.530947333
H 4.602797947 1.790687638 1.781425580
H 3.596448998 2.907029608 -1.214792052
H 0.809259793 -0.864910772 2.147436920
H 4.610794096 -2.700837849 0.038757017
H 3.455376710 -1.668228963 -2.933767721
H 1.818334142 -4.012969561 -1.208380854
H -1.830553565 -1.661071021 -2.196183709
H -5.079256522 -1.841207954 -2.030740946
H -3.364535345 -2.837809601 0.829105545
H -4.497512631 2.565409511 -0.710771897
H -2.520248836 3.044562798 3.219068518

