17

C 2.650073701 -1.439123084 1.974061578
C 2.060897196 1.860855305 -0.341262315
C 2.304261153 -1.162295215 -0.686137427
C -0.369022807 -1.037857354 -1.792573679
C -2.636496548 -1.287906709 0.043243718
C -2.862298033 1.628016158 0.442060817
C -0.538360372 1.812855675 -1.228783565
H 4.532020523 -1.283724518 2.751829538
H 1.093011751 -1.623056742 3.277280378
H 3.005921773 3.124987048 0.960314370
H 3.816419166 -1.781177610 -1.928302143
H -0.645377565 -1.849417265 -3.661882806
H -2.271063540 -2.408718977 1.732740113
H -4.280233943 -2.057548336 -0.926145287
H -4.611397108 2.400330842 -0.318407022
H -2.572285204 2.332559480 2.359872504
H 1.775627296 2.738502585 -2.440482552

