11

C 2.529194762 -1.486243934 0.615165493
C 2.690852479 1.156030810 0.398104653
C 1.405362390 3.088193570 0.339637339
C 0.081392413 -2.241414644 0.720575664
N -1.992452260 -0.661462631 0.673033556
N -2.386860458 1.269988779 -1.202982908
C -0.815781011 3.076719342 -1.297555783
H 4.084215770 -2.802809663 0.561386515
H -0.371064411 -4.237796760 0.899113076
H -3.630799948 -1.619151774 0.763871670
H -1.153683638 4.507002287 -2.724974773

