11

C 5.280300497 -0.905257313 0.361970123
C 3.063988332 -0.468749400 0.192545518
C 0.441429195 0.064661175 -0.017299781
C -1.554157082 -1.506828476 0.559742642
N -3.664261650 -0.190429119 0.052703044
N -3.207540262 2.135821548 -0.816829166
C -0.726254933 2.315341203 -0.867966478
H 7.247276037 -1.293785779 0.514962728
H -1.593661901 -3.413131108 1.275231182
H -5.460713463 -0.765507436 0.254889132
H 0.173595250 4.027864704 -1.509948961

