11

C 2.721532051 -2.046065113 0.097930502
C 2.590576997 0.385771847 0.104873847
C 0.998727211 2.225287740 0.887624845
C 0.143913454 -1.156298736 1.075926983
N -1.987094565 -1.019816744 -0.518350345
N -2.606287273 1.260958269 -1.534089797
C -1.023185804 2.962843860 -0.847022984
H 3.825830342 -3.726163125 -0.101367479
H -0.152703968 -1.410548819 3.093193691
H -3.166846465 -2.462594993 -0.831324594
H -1.356868012 4.898541900 -1.406123912

