14

C -2.081369374 -0.297531274 1.062935607
C -0.274421795 2.051245023 0.853240428
C 2.108753074 1.052970798 1.911634154
C 2.153024802 -1.502544995 0.647080020
C -0.276235006 -1.430455629 -0.914595508
C -0.059899991 1.257425199 -2.002330445
H -3.946805318 0.166983079 0.321852031
H -2.244304243 -1.232631482 2.893631110
H -0.884930096 3.932708301 1.404595520
H 1.655662870 1.770532481 -3.025131103
H 3.903103039 -1.684730789 -0.443902128
H 2.235234106 -2.977066827 2.097939002
H -0.788219639 -3.049239738 -2.074406451
H -1.728685819 1.873315497 -3.041973552

