14

C -2.145044413 -0.432505228 1.252942939
C -0.622923953 2.006239967 0.894616492
C 2.173892481 1.460046926 0.680822005
C 2.156791707 -1.473160850 0.409481485
C -0.440924921 -1.520493180 -0.838001752
C -0.085877243 1.235737928 -1.809622751
H -4.094948980 -0.196825974 0.629681425
H -2.103441961 -1.362391587 3.095954089
H -1.241302963 3.873645875 1.457252002
H 2.217595327 1.810529120 -1.876419977
H 3.689477494 -2.120132948 -0.805611336
H 2.284238389 -2.440322624 2.228804937
H -1.049090812 -3.104514322 -1.999211716
H -0.805610486 2.258884029 -3.432941371

