16

C 3.168464222 -1.293647167 1.576810457
C 0.892238120 -0.529054869 0.076702944
C 0.970203590 1.476240991 -1.941721807
C -0.639987216 1.844861230 0.336002451
C -3.223573984 0.511996897 0.267311568
N -3.301943950 -1.410718535 -1.664696234
C -1.428022795 -2.347231767 0.109680196
H 2.608377310 -1.950400128 3.450868938
H 4.492322063 0.271915508 1.807152916
H 4.165711645 -2.844747372 0.646930561
H 2.696041516 2.573467681 -1.947136911
H 0.190778832 1.222334705 -3.821290408
H -0.263544248 3.318944021 1.700519810
H -5.014439370 1.342046039 0.829467144
H -2.549857519 -0.781249063 -3.306446978
H -2.877850649 -1.115974040 1.956583350

