9

C 4.081384072 -0.689225277 1.055759051
C 2.360497134 1.511677191 0.631476211
C 1.760190255 2.457503050 -1.605548316
H 2.510985607 1.661635898 -3.340423706
H 0.499643946 4.059828703 -1.788647698
H 1.560721367 2.373711233 2.317302172
H 4.803915489 -1.434867459 -0.725162445
H 5.690038134 -0.151288960 2.234618755
H 3.098390192 -2.213542167 2.044550781

