16

C 4.242506373 -0.648300178 -0.027963336
C 1.938889050 0.439824099 1.355957806
C -0.217048765 1.256934986 -0.281000461
O -1.158955369 -1.109700811 -1.876276263
C -3.645985013 -0.534630015 0.062359224
C -5.088700447 1.692723499 -0.526418777
N -6.362691440 3.371775528 -1.053941871
H 5.030451038 0.738160113 -1.335446227
H 5.719498303 -1.196043040 1.303189547
H 3.783857994 -2.336165115 -1.132959390
H 2.511337889 2.126101950 2.406980221
H 1.297188571 -0.912619440 2.797008279
H 0.370057168 2.591847725 -1.741953472
H -0.246697793 -2.623512353 -1.399863533
H -3.283957348 -0.694111504 2.071401938
H -4.674412123 -2.214628967 -0.626773117

