10

O 2.098142167 -1.167253988 1.901614637
C 2.364905317 0.963816694 0.325011728
C 0.707256269 -1.843718248 -0.217434382
C -1.707616733 -0.190945335 -0.245234880
O -2.026305287 0.959380335 2.111269395
C -0.384050212 2.128211546 0.325300668
H 2.085524636 -0.605000883 -1.759417395
H 0.961110191 -3.774577512 -0.858186371
H -3.319793679 -0.503507624 -1.462048675
H -0.790116054 4.036389901 -0.267696997

