28

C     3.88471  -0.14486   0.17293
C     2.50950   0.04021  -0.35065
C     1.84356  -0.52244  -1.35910
F     2.25199  -1.44144  -2.25171
C     0.36276  -0.15756  -1.20965
O     0.52676   1.17249  -0.68696
C     1.37438   0.77454   0.41307
C     0.51056  -0.33850   1.05528
N    -1.62840   1.31998   2.26431
O    -2.32490   0.23379   1.75722
C    -2.84000   0.10794   0.59947
C    -2.65303   1.15976  -0.43057
C    -3.58448  -1.15850   0.35474
C    -0.10170  -0.92200   0.05310
H     4.37562   0.82402   0.26674
H     3.85638  -0.59601   1.19006
H     4.44493  -0.79708  -0.48400
H    -0.28596  -0.16229  -2.10776
H     1.65976   1.65376   1.02928
H     0.48989  -0.54621   2.13306
H    -1.33718   1.83897   1.38420
H    -2.95956   0.78061  -1.43548
H    -1.61809   1.57067  -0.54987
H    -3.30611   1.95919  -0.12944
H    -4.60297  -0.86643   0.21776
H    -3.45505  -1.84426   1.19094
H    -3.24557  -1.67847  -0.58523
H    -0.78951  -1.77782   0.05508
28

C     3.88089  -0.14507   0.17402
C     2.50363   0.03724  -0.34546
C     1.83720  -0.52534  -1.35387
F     2.24700  -1.44088  -2.24818
C     0.35691  -0.15478  -1.20773
O     0.52545   1.17593  -0.68770
C     1.37009   0.77762   0.41464
C     0.49909  -0.32645   1.05972
N    -1.60607   1.30607   2.25503
O    -2.32015   0.23303   1.75726
C    -2.81993   0.09981   0.59196
C    -2.64924   1.15753  -0.43403
C    -3.57854  -1.15825   0.35249
C    -0.11778  -0.91190   0.05498
H     4.37408   0.82426   0.26611
H     3.85662  -0.59568   1.19051
H     4.44345  -0.79709  -0.48406
H    -0.28671  -0.16109  -2.10785
H     1.65955   1.65490   1.02883
H     0.49186  -0.54763   2.13218
H    -1.33280   1.83662   1.38261
H    -2.95620   0.77937  -1.43700
H    -1.61932   1.57469  -0.55050
H    -3.30929   1.95438  -0.13020
H    -4.60065  -0.86355   0.21991
H    -3.45313  -1.84493   1.18968
H    -3.24733  -1.67863  -0.58667
H    -0.78632  -1.77900   0.05594
28

C     3.87707  -0.14529   0.17510
C     2.49776   0.03426  -0.34028
C     1.83084  -0.52824  -1.34865
F     2.24202  -1.44032  -2.24465
C     0.35106  -0.15200  -1.20581
O     0.52414   1.17938  -0.68844
C     1.36580   0.78069   0.41620
C     0.48762  -0.31441   1.06416
N    -1.58374   1.29216   2.24575
O    -2.31539   0.23228   1.75730
C    -2.79986   0.09167   0.58446
C    -2.64545   1.15530  -0.43749
C    -3.57259  -1.15801   0.35023
C    -0.13385  -0.90180   0.05686
H     4.37254   0.82451   0.26548
H     3.85687  -0.59534   1.19096
H     4.44198  -0.79710  -0.48412
H    -0.28745  -0.15989  -2.10793
H     1.65934   1.65605   1.02839
H     0.49383  -0.54904   2.13131
H    -1.32842   1.83428   1.38102
H    -2.95284   0.77814  -1.43853
H    -1.62054   1.57870  -0.55114
H    -3.31248   1.94958  -0.13097
H    -4.59832  -0.86067   0.22205
H    -3.45122  -1.84561   1.18842
H    -3.24908  -1.67879  -0.58811
H    -0.78314  -1.78018   0.05679
28

C     3.87325  -0.14550   0.17618
C     2.49190   0.03129  -0.33510
C     1.82448  -0.53115  -1.34342
F     2.23703  -1.43976  -2.24111
C     0.34522  -0.14922  -1.20389
O     0.52283   1.18283  -0.68918
C     1.36151   0.78376   0.41777
C     0.47614  -0.30236   1.06861
N    -1.56141   1.27826   2.23647
O    -2.31064   0.23152   1.75735
C    -2.77979   0.08353   0.57695
C    -2.64165   1.15307  -0.44095
C    -3.56664  -1.15776   0.34798
C    -0.14993  -0.89170   0.05875
H     4.37099   0.82475   0.26485
H     3.85711  -0.59500   1.19141
H     4.44050  -0.79711  -0.48419
H    -0.28820  -0.15869  -2.10802
H     1.65912   1.65719   1.02795
H     0.49580  -0.55045   2.13043
H    -1.32405   1.83194   1.37944
H    -2.94947   0.77691  -1.44005
H    -1.62176   1.58271  -0.55177
H    -3.31566   1.94477  -0.13173
H    -4.59600  -0.85779   0.22420
H    -3.44930  -1.84628   1.18716
H    -3.25084  -1.67896  -0.58955
H    -0.77996  -1.78136   0.05765
28

C     3.86943  -0.14572   0.17726
C     2.48603   0.02831  -0.32992
C     1.81812  -0.53405  -1.33820
F     2.23204  -1.43919  -2.23758
C     0.33937  -0.14644  -1.20197
O     0.52152   1.18628  -0.68992
C     1.35723   0.78683   0.41933
C     0.46467  -0.29032   1.07305
N    -1.53908   1.26435   2.22719
O    -2.30588   0.23077   1.75739
C    -2.75972   0.07539   0.56944
C    -2.63786   1.15085  -0.44441
C    -3.56069  -1.15752   0.34572
C    -0.16600  -0.88160   0.06063
H     4.36945   0.82500   0.26422
H     3.85735  -0.59467   1.19186
H     4.43903  -0.79713  -0.48425
H    -0.28894  -0.15749  -2.10811
H     1.65891   1.65834   1.02750
H     0.49777  -0.55186   2.12955
H    -1.31967   1.82960   1.37785
H    -2.94611   0.77568  -1.44158
H    -1.62298   1.58672  -0.55240
H    -3.31884   1.93997  -0.13250
H    -4.59368  -0.85491   0.22635
H    -3.44738  -1.84695   1.18590
H    -3.25259  -1.67912  -0.59099
H    -0.77677  -1.78253   0.05850
28

C     3.86561  -0.14593   0.17834
C     2.48016   0.02533  -0.32474
C     1.81177  -0.53696  -1.33297
F     2.22705  -1.43863  -2.23404
C     0.33352  -0.14366  -1.20005
O     0.52021   1.18973  -0.69066
C     1.35294   0.78990   0.42090
C     0.45320  -0.27827   1.07750
N    -1.51676   1.25044   2.21791
O    -2.30112   0.23001   1.75743
C    -2.73965   0.06725   0.56194
C    -2.63407   1.14862  -0.44787
C    -3.55474  -1.15727   0.34347
C    -0.18208  -0.87150   0.06251
H     4.36791   0.82524   0.26358
H     3.85760  -0.59433   1.19231
H     4.43755  -0.79714  -0.48431
H    -0.28969  -0.15628  -2.10820
H     1.65870   1.65948   1.02706
H     0.49974  -0.55328   2.12867
H    -1.31529   1.82725   1.37626
H    -2.94275   0.77444  -1.44310
H    -1.62421   1.59073  -0.55304
H    -3.32203   1.93516  -0.13326
H    -4.59136  -0.85203   0.22849
H    -3.44546  -1.84762   1.18464
H    -3.25435  -1.67929  -0.59243
H    -0.77359  -1.78371   0.05936
28

C     3.86179  -0.14615   0.17942
C     2.47430   0.02236  -0.31956
C     1.80541  -0.53986  -1.32774
F     2.22207  -1.43807  -2.23051
C     0.32767  -0.14088  -1.19813
O     0.51890   1.19318  -0.69140
C     1.34865   0.79298   0.42246
C     0.44173  -0.26623   1.08194
N    -1.49443   1.23654   2.20862
O    -2.29637   0.22925   1.75748
C    -2.71958   0.05911   0.55443
C    -2.63028   1.14639  -0.45132
C    -3.54879  -1.15702   0.34121
C    -0.19815  -0.86140   0.06440
H     4.36637   0.82549   0.26295
H     3.85784  -0.59399   1.19276
H     4.43608  -0.79715  -0.48437
H    -0.29043  -0.15508  -2.10828
H     1.65849   1.66063   1.02662
H     0.50171  -0.55469   2.12780
H    -1.31092   1.82491   1.37468
H    -2.93939   0.77321  -1.44463
H    -1.62543   1.59474  -0.55367
H    -3.32521   1.93036  -0.13403
H    -4.58903  -0.84915   0.23064
H    -3.44354  -1.84830   1.18338
H    -3.25610  -1.67945  -0.59387
H    -0.77040  -1.78489   0.06021
28

C     3.85797  -0.14636   0.18050
C     2.46843   0.01938  -0.31438
C     1.79905  -0.54277  -1.32252
F     2.21708  -1.43750  -2.22697
C     0.32182  -0.13810  -1.19621
O     0.51759   1.19662  -0.69214
C     1.34436   0.79605   0.42403
C     0.43025  -0.25418   1.08639
N    -1.47210   1.22263   2.19934
O    -2.29161   0.22850   1.75752
C    -2.69951   0.05097   0.54692
C    -2.62649   1.14416  -0.45478
C    -3.54284  -1.15678   0.33895
C    -0.21423  -0.85130   0.06628
H     4.36482   0.82574   0.26232
H     3.85808  -0.59366   1.19321
H     4.43460  -0.79716  -0.48443
H    -0.29118  -0.15388  -2.10837
H     1.65827   1.66177   1.02617
H     0.50368  -0.55610   2.12692
H    -1.30654   1.82257   1.37309
H    -2.93603   0.77198  -1.44615
H    -1.62665   1.59876  -0.55430
H    -3.32839   1.92556  -0.13479
H    -4.58671  -0.84628   0.23278
H    -3.44162  -1.84897   1.18212
H    -3.25785  -1.67962  -0.59531
H    -0.76722  -1.78607   0.06107
28

C     3.85415  -0.14658   0.18158
C     2.46256   0.01641  -0.30920
C     1.79269  -0.54567  -1.31729
F     2.21209  -1.43694  -2.22344
C     0.31597  -0.13532  -1.19429
O     0.51628   1.20007  -0.69288
C     1.34008   0.79912   0.42559
C     0.41878  -0.24213   1.09083
N    -1.44977   1.20873   2.19006
O    -2.28685   0.22774   1.75756
C    -2.67944   0.04283   0.53942
C    -2.62270   1.14193  -0.45824
C    -3.53689  -1.15653   0.33670
C    -0.23030  -0.84120   0.06817
H     4.36328   0.82598   0.26169
H     3.85833  -0.59332   1.19366
H     4.43313  -0.79717  -0.48449
H    -0.29192  -0.15268  -2.10846
H     1.65806   1.66291   1.02573
H     0.50565  -0.55751   2.12604
H    -1.30216   1.82023   1.37150
H    -2.93267   0.77075  -1.44768
H    -1.62788   1.60277  -0.55493
H    -3.33158   1.92075  -0.13556
H    -4.58439  -0.84340   0.23493
H    -3.43970  -1.84964   1.18086
H    -3.25961  -1.67978  -0.59675
H    -0.76403  -1.78725   0.06192
28

C     3.85033  -0.14679   0.18266
C     2.45670   0.01343  -0.30402
C     1.78633  -0.54857  -1.31207
F     2.20711  -1.43638  -2.21990
C     0.31012  -0.13254  -1.19237
O     0.51497   1.20352  -0.69362
C     1.33579   0.80219   0.42716
C     0.40731  -0.23009   1.09528
N    -1.42744   1.19482   2.18078
O    -2.28210   0.22698   1.75760
C    -2.65937   0.03469   0.53191
C    -2.61891   1.13970  -0.46170
C    -3.53094  -1.15628   0.33444
C    -0.24638  -0.83110   0.07005
H     4.36174   0.82623   0.26106
H     3.85857  -0.59298   1.19411
H     4.43165  -0.79718  -0.48456
H    -0.29267  -0.15148  -2.10854
H     1.65785   1.66406   1.02529
H     0.50762  -0.55893   2.12516
H    -1.29779   1.81788   1.36991
H    -2.92930   0.76952  -1.44920
H    -1.62910   1.60678  -0.55557
H    -3.33476   1.91595  -0.13632
H    -4.58206  -0.84052   0.23708
H    -3.43778  -1.85032   1.17960
H    -3.26136  -1.67994  -0.59819
H    -0.76085  -1.78843   0.06278
28

C     3.84651  -0.14701   0.18374
C     2.45083   0.01045  -0.29884
C     1.77998  -0.55148  -1.30684
F     2.20212  -1.43582  -2.21637
C     0.30427  -0.12976  -1.19045
O     0.51366   1.20697  -0.69436
C     1.33150   0.80527   0.42872
C     0.39584  -0.21804   1.09972
N    -1.40511   1.18091   2.17150
O    -2.27734   0.22623   1.75765
C    -2.63930   0.02655   0.52440
C    -2.61512   1.13747  -0.46516
C    -3.52499  -1.15604   0.33219
C    -0.26245  -0.82100   0.07193
H     4.36019   0.82647   0.26042
H     3.85881  -0.59265   1.19456
H     4.43018  -0.79719  -0.48462
H    -0.29341  -0.15028  -2.10863
H     1.65764   1.66520   1.02485
H     0.50960  -0.56034   2.12429
H    -1.29341   1.81554   1.36833
H    -2.92594   0.76828  -1.45073
H    -1.63032   1.61079  -0.55620
H    -3.33794   1.91114  -0.13709
H    -4.57974  -0.83764   0.23922
H    -3.43586  -1.85099   1.17834
H    -3.26312  -1.68011  -0.59963
H    -0.75767  -1.78960   0.06363
28

C     3.84269  -0.14723   0.18482
C     2.44496   0.00748  -0.29365
C     1.77362  -0.55438  -1.30162
F     2.19713  -1.43525  -2.21283
C     0.29842  -0.12698  -1.18853
O     0.51235   1.21042  -0.69510
C     1.32721   0.80834   0.43029
C     0.38436  -0.20600   1.10416
N    -1.38278   1.16701   2.16222
O    -2.27259   0.22547   1.75769
C    -2.61922   0.01842   0.51689
C    -2.61133   1.13524  -0.46862
C    -3.51904  -1.15579   0.32993
C    -0.27853  -0.81089   0.07382
H     4.35865   0.82672   0.25979
H     3.85906  -0.59231   1.19501
H     4.42870  -0.79721  -0.48468
H    -0.29416  -0.14907  -2.10872
H     1.65742   1.66635   1.02440
H     0.51157  -0.56175   2.12341
H    -1.28903   1.81320   1.36674
H    -2.92258   0.76705  -1.45226
H    -1.63154   1.61480  -0.55683
H    -3.34113   1.90634  -0.13785
H    -4.57742  -0.83476   0.24137
H    -3.43394  -1.85166   1.17708
H    -3.26487  -1.68027  -0.60107
H    -0.75448  -1.79078   0.06449
28

C     3.83887  -0.14744   0.18590
C     2.43910   0.00450  -0.28847
C     1.76726  -0.55729  -1.29639
F     2.19215  -1.43469  -2.20930
C     0.29257  -0.12420  -1.18661
O     0.51104   1.21387  -0.69584
C     1.32292   0.81141   0.43185
C     0.37289  -0.19395   1.10861
N    -1.36045   1.15310   2.15294
O    -2.26783   0.22472   1.75773
C    -2.59915   0.01028   0.50939
C    -2.60754   1.13301  -0.47208
C    -3.51309  -1.15554   0.32768
C    -0.29460  -0.80079   0.07570
H     4.35711   0.82696   0.25916
H     3.85930  -0.59197   1.19546
H     4.42723  -0.79722  -0.48474
H    -0.29490  -0.14787  -2.10881
H     1.65721   1.66749   1.02396
H     0.51354  -0.56316   2.12253
H    -1.28466   1.81086   1.36515
H    -2.91922   0.76582  -1.45378
H    -1.63277   1.61881  -0.55746
H    -3.34431   1.90153  -0.13861
H    -4.57510  -0.83188   0.24352
H    -3.43202  -1.85233   1.17581
H    -3.26662  -1.68044  -0.60251
H    -0.75130  -1.79196   0.06534
28

C     3.83505  -0.14766   0.18699
C     2.43323   0.00153  -0.28329
C     1.76090  -0.56019  -1.29116
F     2.18716  -1.43413  -2.20576
C     0.28672  -0.12142  -1.18469
O     0.50973   1.21731  -0.69658
C     1.31864   0.81448   0.43342
C     0.36142  -0.18190   1.11305
N    -1.33812   1.13920   2.14366
O    -2.26307   0.22396   1.75778
C    -2.57908   0.00214   0.50188
C    -2.60375   1.13078  -0.47554
C    -3.50714  -1.15530   0.32542
C    -0.31067  -0.79069   0.07758
H     4.35556   0.82721   0.25853
H     3.85954  -0.59164   1.19591
H     4.42575  -0.79723  -0.48480
H    -0.29565  -0.14667  -2.10889
H     1.65700   1.66864   1.02352
H     0.51551  -0.56458   2.12165
H    -1.28028   1.80851   1.36357
H    -2.91586   0.76459  -1.45531
H    -1.63399   1.62282  -0.55810
H    -3.34749   1.89673  -0.13938
H    -4.57277  -0.82900   0.24566
H    -3.43010  -1.85301   1.17455
H    -3.26838  -1.68060  -0.60395
H    -0.74811  -1.79314   0.06619
28

C     3.83123  -0.14787   0.18807
C     2.42736  -0.00145  -0.27811
C     1.75454  -0.56310  -1.28594
F     2.18217  -1.43357  -2.20223
C     0.28087  -0.11864  -1.18277
O     0.50842   1.22076  -0.69732
C     1.31435   0.81755   0.43498
C     0.34995  -0.16986   1.11750
N    -1.31579   1.12529   2.13438
O    -2.25832   0.22320   1.75782
C    -2.55901  -0.00600   0.49437
C    -2.59996   1.12855  -0.47900
C    -3.50119  -1.15505   0.32317
C    -0.32675  -0.78059   0.07947
H     4.35402   0.82745   0.25790
H     3.85979  -0.59130   1.19636
H     4.42428  -0.79724  -0.48487
H    -0.29639  -0.14547  -2.10898
H     1.65678   1.66978   1.02307
H     0.51748  -0.56599   2.12078
H    -1.27590   1.80617   1.36198
H    -2.91250   0.76335  -1.45683
H    -1.63521   1.62684  -0.55873
H    -3.35068   1.89193  -0.14014
H    -4.57045  -0.82612   0.24781
H    -3.42818  -1.85368   1.17329
H    -3.27013  -1.68077  -0.60539
H    -0.74493  -1.79432   0.06705
28

C     3.82741  -0.14809   0.18915
C     2.42149  -0.00442  -0.27293
C     1.74819  -0.56600  -1.28071
F     2.17719  -1.43300  -2.19869
C     0.27502  -0.11586  -1.18085
O     0.50711   1.22421  -0.69806
C     1.31006   0.82063   0.43654
C     0.33847  -0.15781   1.12194
N    -1.29347   1.11138   2.12510
O    -2.25356   0.22245   1.75786
C    -2.53894  -0.01414   0.48687
C    -2.59616   1.12632  -0.48245
C    -3.49524  -1.15480   0.32091
C    -0.34282  -0.77049   0.08135
H     4.35248   0.82770   0.25726
H     3.86003  -0.59096   1.19681
H     4.42280  -0.79725  -0.48493
H    -0.29714  -0.14427  -2.10907
H     1.65657   1.67093   1.02263
H     0.51945  -0.56740   2.11990
H    -1.27153   1.80383   1.36039
H    -2.90913   0.76212  -1.45836
H    -1.63643   1.63085  -0.55936
H    -3.35386   1.88712  -0.14091
H    -4.56813  -0.82324   0.24996
H    -3.42626  -1.85435   1.17203
H    -3.27189  -1.68093  -0.60683
H    -0.74174  -1.79550   0.06790
28

C     3.82359  -0.14830   0.19023
C     2.41563  -0.00740  -0.26775
C     1.74183  -0.56891  -1.27549
F     2.17220  -1.43244  -2.19516
C     0.26917  -0.11308  -1.17894
O     0.50580   1.22766  -0.69880
C     1.30577   0.82370   0.43811
C     0.32700  -0.14577   1.12639
N    -1.27114   1.09748   2.11582
O    -2.24880   0.22169   1.75790
C    -2.51887  -0.02228   0.47936
C    -2.59237   1.12409  -0.48591
C    -3.48929  -1.15456   0.31865
C    -0.35890  -0.76039   0.08323
H     4.35094   0.82794   0.25663
H     3.86027  -0.59063   1.19726
H     4.42133  -0.79726  -0.48499
H    -0.29788  -0.14307  -2.10916
H     1.65636   1.67207   1.02219
H     0.52142  -0.56881   2.11902
H    -1.26715   1.80148   1.35881
H    -2.90577   0.76089  -1.45988
H    -1.63766   1.63486  -0.55999
H    -3.35704   1.88232  -0.14167
H    -4.56581  -0.82036   0.25210
H    -3.42434  -1.85502   1.17077
H    -3.27364  -1.68109  -0.60827
H    -0.73856  -1.79667   0.06876
28

C     3.81977  -0.14852   0.19131
C     2.40976  -0.01038  -0.26257
C     1.73547  -0.57181  -1.27026
F     2.16721  -1.43188  -2.19163
C     0.26332  -0.11030  -1.17702
O     0.50449   1.23111  -0.69954
C     1.30149   0.82677   0.43967
C     0.31553  -0.13372   1.13083
N    -1.24881   1.08357   2.10654
O    -2.24405   0.22094   1.75795
C    -2.49880  -0.03042   0.47185
C    -2.58858   1.12186  -0.48937
C    -3.48334  -1.15431   0.31640
C    -0.37497  -0.75029   0.08512
H     4.34939   0.82819   0.25600
H     3.86052  -0.59029   1.19771
H     4.41985  -0.79727  -0.48505
H    -0.29863  -0.14186  -2.10924
H     1.65615   1.67321   1.02174
H     0.52339  -0.57023   2.11814
H    -1.26277   1.79914   1.35722
H    -2.90241   0.75966  -1.46141
H    -1.63888   1.63887  -0.56063
H    -3.36022   1.87751  -0.14244
H    -4.56348  -0.81748   0.25425
H    -3.42242  -1.85570   1.16951
H    -3.27539  -1.68126  -0.60971
H    -0.73538  -1.79785   0.06961
28

C     3.81595  -0.14873   0.19239
C     2.40389  -0.01335  -0.25739
C     1.72911  -0.57471  -1.26504
F     2.16223  -1.43131  -2.18809
C     0.25747  -0.10752  -1.17510
O     0.50318   1.23456  -0.70028
C     1.29720   0.82984   0.44124
C     0.30406  -0.12168   1.13527
N    -1.22648   1.06966   2.09726
O    -2.23929   0.22018   1.75799
C    -2.47873  -0.03856   0.46435
C    -2.58479   1.11963  -0.49283
C    -3.47739  -1.15406   0.31414
C    -0.39105  -0.74019   0.08700
H     4.34785   0.82844   0.25537
H     3.86076  -0.58995   1.19816
H     4.41838  -0.79729  -0.48511
H    -0.29937  -0.14066  -2.10933
H     1.65593   1.67436   1.02130
H     0.52536  -0.57164   2.11727
H    -1.25840   1.79680   1.35563
H    -2.89905   0.75842  -1.46293
H    -1.64010   1.64288  -0.56126
H    -3.36341   1.87271  -0.14320
H    -4.56116  -0.81460   0.25640
H    -3.42050  -1.85637   1.16825
H    -3.27715  -1.68142  -0.61115
H    -0.73219  -1.79903   0.07047
28

C     3.81213  -0.14895   0.19347
C     2.39803  -0.01633  -0.25221
C     1.72275  -0.57762  -1.25981
F     2.15724  -1.43075  -2.18456
C     0.25162  -0.10474  -1.17318
O     0.50188   1.23800  -0.70102
C     1.29291   0.83292   0.44280
C     0.29259  -0.10963   1.13972
N    -1.20415   1.05576   2.08798
O    -2.23454   0.21942   1.75803
C    -2.45866  -0.04670   0.45684
C    -2.58100   1.11740  -0.49629
C    -3.47144  -1.15382   0.31189
C    -0.40712  -0.73009   0.08888
H     4.34631   0.82868   0.25473
H     3.86100  -0.58962   1.19861
H     4.41690  -0.79730  -0.48517
H    -0.30012  -0.13946  -2.10942
H     1.65572   1.67550   1.02086
H     0.52733  -0.57305   2.11639
H    -1.25402   1.79446   1.35404
H    -2.89569   0.75719  -1.46446
H    -1.64133   1.64689  -0.56189
H    -3.36659   1.86790  -0.14397
H    -4.55884  -0.81172   0.25854
H    -3.41858  -1.85704   1.16699
H    -3.27890  -1.68159  -0.61259
H    -0.72901  -1.80021   0.07132
28

C     3.80831  -0.14916   0.19455
C     2.39216  -0.01930  -0.24702
C     1.71640  -0.58052  -1.25458
F     2.15225  -1.43019  -2.18102
C     0.24577  -0.10196  -1.17126
O     0.50057   1.24145  -0.70175
C     1.28862   0.83599   0.44437
C     0.28111  -0.09758   1.14416
N    -1.18182   1.04185   2.07870
O    -2.22978   0.21867   1.75807
C    -2.43859  -0.05484   0.44933
C    -2.57721   1.11517  -0.49975
C    -3.46549  -1.15357   0.30963
C    -0.42320  -0.71999   0.09077
H     4.34476   0.82893   0.25410
H     3.86125  -0.58928   1.19906
H     4.41543  -0.79731  -0.48524
H    -0.30086  -0.13826  -2.10951
H     1.65551   1.67665   1.02042
H     0.52930  -0.57446   2.11551
H    -1.24964   1.79211   1.35246
H    -2.89233   0.75596  -1.46598
H    -1.64255   1.65090  -0.56252
H    -3.36977   1.86310  -0.14473
H    -4.55651  -0.80884   0.26069
H    -3.41666  -1.85772   1.16573
H    -3.28066  -1.68175  -0.61403
H    -0.72582  -1.80139   0.07218
28

C     3.81213  -0.14895   0.19347
C     2.39803  -0.01633  -0.25221
C     1.72275  -0.57762  -1.25981
F     2.15724  -1.43075  -2.18456
C     0.25162  -0.10474  -1.17318
O     0.50188   1.23800  -0.70102
C     1.29291   0.83292   0.44280
C     0.29259  -0.10963   1.13972
N    -1.20415   1.05576   2.08798
O    -2.23454   0.21942   1.75803
C    -2.45866  -0.04670   0.45684
C    -2.58100   1.11740  -0.49629
C    -3.47144  -1.15382   0.31189
C    -0.40712  -0.73009   0.08888
H     4.34631   0.82868   0.25473
H     3.86100  -0.58962   1.19861
H     4.41690  -0.79730  -0.48517
H    -0.30012  -0.13946  -2.10942
H     1.65572   1.67550   1.02086
H     0.52733  -0.57305   2.11639
H    -1.25402   1.79446   1.35404
H    -2.89569   0.75719  -1.46446
H    -1.64133   1.64689  -0.56189
H    -3.36659   1.86790  -0.14397
H    -4.55884  -0.81172   0.25854
H    -3.41858  -1.85704   1.16699
H    -3.27890  -1.68159  -0.61259
H    -0.72901  -1.80021   0.07132
28

C     3.81595  -0.14873   0.19239
C     2.40389  -0.01335  -0.25739
C     1.72911  -0.57471  -1.26504
F     2.16223  -1.43131  -2.18809
C     0.25747  -0.10752  -1.17510
O     0.50318   1.23456  -0.70028
C     1.29720   0.82984   0.44124
C     0.30406  -0.12168   1.13527
N    -1.22648   1.06966   2.09726
O    -2.23929   0.22018   1.75799
C    -2.47873  -0.03856   0.46435
C    -2.58479   1.11963  -0.49283
C    -3.47739  -1.15406   0.31414
C    -0.39105  -0.74019   0.08700
H     4.34785   0.82844   0.25537
H     3.86076  -0.58995   1.19816
H     4.41838  -0.79729  -0.48511
H    -0.29937  -0.14066  -2.10933
H     1.65593   1.67436   1.02130
H     0.52536  -0.57164   2.11727
H    -1.25840   1.79680   1.35563
H    -2.89905   0.75842  -1.46293
H    -1.64010   1.64288  -0.56126
H    -3.36341   1.87271  -0.14320
H    -4.56116  -0.81460   0.25640
H    -3.42050  -1.85637   1.16825
H    -3.27715  -1.68142  -0.61115
H    -0.73219  -1.79903   0.07047
28

C     3.81977  -0.14852   0.19131
C     2.40976  -0.01038  -0.26257
C     1.73547  -0.57181  -1.27026
F     2.16721  -1.43188  -2.19163
C     0.26332  -0.11030  -1.17702
O     0.50449   1.23111  -0.69954
C     1.30149   0.82677   0.43967
C     0.31553  -0.13372   1.13083
N    -1.24881   1.08357   2.10654
O    -2.24405   0.22094   1.75795
C    -2.49880  -0.03042   0.47185
C    -2.58858   1.12186  -0.48937
C    -3.48334  -1.15431   0.31640
C    -0.37497  -0.75029   0.08512
H     4.34939   0.82819   0.25600
H     3.86052  -0.59029   1.19771
H     4.41985  -0.79727  -0.48505
H    -0.29863  -0.14186  -2.10924
H     1.65615   1.67321   1.02174
H     0.52339  -0.57023   2.11814
H    -1.26277   1.79914   1.35722
H    -2.90241   0.75966  -1.46141
H    -1.63888   1.63887  -0.56063
H    -3.36022   1.87751  -0.14244
H    -4.56348  -0.81748   0.25425
H    -3.42242  -1.85570   1.16951
H    -3.27539  -1.68126  -0.60971
H    -0.73538  -1.79785   0.06961
28

C     3.82359  -0.14830   0.19023
C     2.41563  -0.00740  -0.26775
C     1.74183  -0.56891  -1.27549
F     2.17220  -1.43244  -2.19516
C     0.26917  -0.11308  -1.17894
O     0.50580   1.22766  -0.69880
C     1.30577   0.82370   0.43811
C     0.32700  -0.14577   1.12639
N    -1.27114   1.09748   2.11582
O    -2.24880   0.22169   1.75790
C    -2.51887  -0.02228   0.47936
C    -2.59237   1.12409  -0.48591
C    -3.48929  -1.15456   0.31865
C    -0.35890  -0.76039   0.08323
H     4.35094   0.82794   0.25663
H     3.86027  -0.59063   1.19726
H     4.42133  -0.79726  -0.48499
H    -0.29788  -0.14307  -2.10916
H     1.65636   1.67207   1.02219
H     0.52142  -0.56881   2.11902
H    -1.26715   1.80148   1.35881
H    -2.90577   0.76089  -1.45988
H    -1.63766   1.63486  -0.55999
H    -3.35704   1.88232  -0.14167
H    -4.56581  -0.82036   0.25210
H    -3.42434  -1.85502   1.17077
H    -3.27364  -1.68109  -0.60827
H    -0.73856  -1.79667   0.06876
28

C     3.82741  -0.14809   0.18915
C     2.42149  -0.00442  -0.27293
C     1.74819  -0.56600  -1.28071
F     2.17719  -1.43300  -2.19869
C     0.27502  -0.11586  -1.18085
O     0.50711   1.22421  -0.69806
C     1.31006   0.82063   0.43654
C     0.33847  -0.15781   1.12194
N    -1.29347   1.11138   2.12510
O    -2.25356   0.22245   1.75786
C    -2.53894  -0.01414   0.48687
C    -2.59616   1.12632  -0.48245
C    -3.49524  -1.15480   0.32091
C    -0.34282  -0.77049   0.08135
H     4.35248   0.82770   0.25726
H     3.86003  -0.59096   1.19681
H     4.42280  -0.79725  -0.48493
H    -0.29714  -0.14427  -2.10907
H     1.65657   1.67093   1.02263
H     0.51945  -0.56740   2.11990
H    -1.27153   1.80383   1.36039
H    -2.90913   0.76212  -1.45836
H    -1.63643   1.63085  -0.55936
H    -3.35386   1.88712  -0.14091
H    -4.56813  -0.82324   0.24996
H    -3.42626  -1.85435   1.17203
H    -3.27189  -1.68093  -0.60683
H    -0.74174  -1.79550   0.06790
28

C     3.83123  -0.14787   0.18807
C     2.42736  -0.00145  -0.27811
C     1.75454  -0.56310  -1.28594
F     2.18217  -1.43357  -2.20223
C     0.28087  -0.11864  -1.18277
O     0.50842   1.22076  -0.69732
C     1.31435   0.81755   0.43498
C     0.34995  -0.16986   1.11750
N    -1.31579   1.12529   2.13438
O    -2.25832   0.22320   1.75782
C    -2.55901  -0.00600   0.49437
C    -2.59996   1.12855  -0.47900
C    -3.50119  -1.15505   0.32317
C    -0.32675  -0.78059   0.07947
H     4.35402   0.82745   0.25790
H     3.85979  -0.59130   1.19636
H     4.42428  -0.79724  -0.48487
H    -0.29639  -0.14547  -2.10898
H     1.65678   1.66978   1.02307
H     0.51748  -0.56599   2.12078
H    -1.27590   1.80617   1.36198
H    -2.91250   0.76335  -1.45683
H    -1.63521   1.62684  -0.55873
H    -3.35068   1.89193  -0.14014
H    -4.57045  -0.82612   0.24781
H    -3.42818  -1.85368   1.17329
H    -3.27013  -1.68077  -0.60539
H    -0.74493  -1.79432   0.06705
28

C     3.83505  -0.14766   0.18699
C     2.43323   0.00153  -0.28329
C     1.76090  -0.56019  -1.29116
F     2.18716  -1.43413  -2.20576
C     0.28672  -0.12142  -1.18469
O     0.50973   1.21731  -0.69658
C     1.31864   0.81448   0.43342
C     0.36142  -0.18190   1.11305
N    -1.33812   1.13920   2.14366
O    -2.26307   0.22396   1.75778
C    -2.57908   0.00214   0.50188
C    -2.60375   1.13078  -0.47554
C    -3.50714  -1.15530   0.32542
C    -0.31067  -0.79069   0.07758
H     4.35556   0.82721   0.25853
H     3.85954  -0.59164   1.19591
H     4.42575  -0.79723  -0.48480
H    -0.29565  -0.14667  -2.10889
H     1.65700   1.66864   1.02352
H     0.51551  -0.56458   2.12165
H    -1.28028   1.80851   1.36357
H    -2.91586   0.76459  -1.45531
H    -1.63399   1.62282  -0.55810
H    -3.34749   1.89673  -0.13938
H    -4.57277  -0.82900   0.24566
H    -3.43010  -1.85301   1.17455
H    -3.26838  -1.68060  -0.60395
H    -0.74811  -1.79314   0.06619
28

C     3.83887  -0.14744   0.18590
C     2.43910   0.00450  -0.28847
C     1.76726  -0.55729  -1.29639
F     2.19215  -1.43469  -2.20930
C     0.29257  -0.12420  -1.18661
O     0.51104   1.21387  -0.69584
C     1.32292   0.81141   0.43185
C     0.37289  -0.19395   1.10861
N    -1.36045   1.15310   2.15294
O    -2.26783   0.22472   1.75773
C    -2.59915   0.01028   0.50939
C    -2.60754   1.13301  -0.47208
C    -3.51309  -1.15554   0.32768
C    -0.29460  -0.80079   0.07570
H     4.35711   0.82696   0.25916
H     3.85930  -0.59197   1.19546
H     4.42723  -0.79722  -0.48474
H    -0.29490  -0.14787  -2.10881
H     1.65721   1.66749   1.02396
H     0.51354  -0.56316   2.12253
H    -1.28466   1.81086   1.36515
H    -2.91922   0.76582  -1.45378
H    -1.63277   1.61881  -0.55746
H    -3.34431   1.90153  -0.13861
H    -4.57510  -0.83188   0.24352
H    -3.43202  -1.85233   1.17581
H    -3.26662  -1.68044  -0.60251
H    -0.75130  -1.79196   0.06534
28

C     3.84269  -0.14723   0.18482
C     2.44496   0.00748  -0.29365
C     1.77362  -0.55438  -1.30162
F     2.19713  -1.43525  -2.21283
C     0.29842  -0.12698  -1.18853
O     0.51235   1.21042  -0.69510
C     1.32721   0.80834   0.43029
C     0.38436  -0.20600   1.10416
N    -1.38278   1.16701   2.16222
O    -2.27259   0.22547   1.75769
C    -2.61922   0.01842   0.51689
C    -2.61133   1.13524  -0.46862
C    -3.51904  -1.15579   0.32993
C    -0.27853  -0.81089   0.07382
H     4.35865   0.82672   0.25979
H     3.85906  -0.59231   1.19501
H     4.42870  -0.79721  -0.48468
H    -0.29416  -0.14907  -2.10872
H     1.65742   1.66635   1.02440
H     0.51157  -0.56175   2.12341
H    -1.28903   1.81320   1.36674
H    -2.92258   0.76705  -1.45226
H    -1.63154   1.61480  -0.55683
H    -3.34113   1.90634  -0.13785
H    -4.57742  -0.83476   0.24137
H    -3.43394  -1.85166   1.17708
H    -3.26487  -1.68027  -0.60107
H    -0.75448  -1.79078   0.06449
28

C     3.84651  -0.14701   0.18374
C     2.45083   0.01045  -0.29884
C     1.77998  -0.55148  -1.30684
F     2.20212  -1.43582  -2.21637
C     0.30427  -0.12976  -1.19045
O     0.51366   1.20697  -0.69436
C     1.33150   0.80527   0.42872
C     0.39584  -0.21804   1.09972
N    -1.40511   1.18091   2.17150
O    -2.27734   0.22623   1.75765
C    -2.63930   0.02655   0.52440
C    -2.61512   1.13747  -0.46516
C    -3.52499  -1.15604   0.33219
C    -0.26245  -0.82100   0.07193
H     4.36019   0.82647   0.26042
H     3.85881  -0.59265   1.19456
H     4.43018  -0.79719  -0.48462
H    -0.29341  -0.15028  -2.10863
H     1.65764   1.66520   1.02485
H     0.50960  -0.56034   2.12429
H    -1.29341   1.81554   1.36833
H    -2.92594   0.76828  -1.45073
H    -1.63032   1.61079  -0.55620
H    -3.33794   1.91114  -0.13709
H    -4.57974  -0.83764   0.23922
H    -3.43586  -1.85099   1.17834
H    -3.26312  -1.68011  -0.59963
H    -0.75767  -1.78960   0.06363
28

C     3.85033  -0.14679   0.18266
C     2.45670   0.01343  -0.30402
C     1.78633  -0.54857  -1.31207
F     2.20711  -1.43638  -2.21990
C     0.31012  -0.13254  -1.19237
O     0.51497   1.20352  -0.69362
C     1.33579   0.80219   0.42716
C     0.40731  -0.23009   1.09528
N    -1.42744   1.19482   2.18078
O    -2.28210   0.22698   1.75760
C    -2.65937   0.03469   0.53191
C    -2.61891   1.13970  -0.46170
C    -3.53094  -1.15628   0.33444
C    -0.24638  -0.83110   0.07005
H     4.36174   0.82623   0.26106
H     3.85857  -0.59298   1.19411
H     4.43165  -0.79718  -0.48456
H    -0.29267  -0.15148  -2.10854
H     1.65785   1.66406   1.02529
H     0.50762  -0.55893   2.12516
H    -1.29779   1.81788   1.36991
H    -2.92930   0.76952  -1.44920
H    -1.62910   1.60678  -0.55557
H    -3.33476   1.91595  -0.13632
H    -4.58206  -0.84052   0.23708
H    -3.43778  -1.85032   1.17960
H    -3.26136  -1.67994  -0.59819
H    -0.76085  -1.78843   0.06278
28

C     3.85415  -0.14658   0.18158
C     2.46256   0.01641  -0.30920
C     1.79269  -0.54567  -1.31729
F     2.21209  -1.43694  -2.22344
C     0.31597  -0.13532  -1.19429
O     0.51628   1.20007  -0.69288
C     1.34008   0.79912   0.42559
C     0.41878  -0.24213   1.09083
N    -1.44977   1.20873   2.19006
O    -2.28685   0.22774   1.75756
C    -2.67944   0.04283   0.53942
C    -2.62270   1.14193  -0.45824
C    -3.53689  -1.15653   0.33670
C    -0.23030  -0.84120   0.06817
H     4.36328   0.82598   0.26169
H     3.85833  -0.59332   1.19366
H     4.43313  -0.79717  -0.48449
H    -0.29192  -0.15268  -2.10846
H     1.65806   1.66291   1.02573
H     0.50565  -0.55751   2.12604
H    -1.30216   1.82023   1.37150
H    -2.93267   0.77075  -1.44768
H    -1.62788   1.60277  -0.55493
H    -3.33158   1.92075  -0.13556
H    -4.58439  -0.84340   0.23493
H    -3.43970  -1.84964   1.18086
H    -3.25961  -1.67978  -0.59675
H    -0.76403  -1.78725   0.06192
28

C     3.85797  -0.14636   0.18050
C     2.46843   0.01938  -0.31438
C     1.79905  -0.54277  -1.32252
F     2.21708  -1.43750  -2.22697
C     0.32182  -0.13810  -1.19621
O     0.51759   1.19662  -0.69214
C     1.34436   0.79605   0.42403
C     0.43025  -0.25418   1.08639
N    -1.47210   1.22263   2.19934
O    -2.29161   0.22850   1.75752
C    -2.69951   0.05097   0.54692
C    -2.62649   1.14416  -0.45478
C    -3.54284  -1.15678   0.33895
C    -0.21423  -0.85130   0.06628
H     4.36482   0.82574   0.26232
H     3.85808  -0.59366   1.19321
H     4.43460  -0.79716  -0.48443
H    -0.29118  -0.15388  -2.10837
H     1.65827   1.66177   1.02617
H     0.50368  -0.55610   2.12692
H    -1.30654   1.82257   1.37309
H    -2.93603   0.77198  -1.44615
H    -1.62665   1.59876  -0.55430
H    -3.32839   1.92556  -0.13479
H    -4.58671  -0.84628   0.23278
H    -3.44162  -1.84897   1.18212
H    -3.25785  -1.67962  -0.59531
H    -0.76722  -1.78607   0.06107
28

C     3.86179  -0.14615   0.17942
C     2.47430   0.02236  -0.31956
C     1.80541  -0.53986  -1.32774
F     2.22207  -1.43807  -2.23051
C     0.32767  -0.14088  -1.19813
O     0.51890   1.19318  -0.69140
C     1.34865   0.79298   0.42246
C     0.44173  -0.26623   1.08194
N    -1.49443   1.23654   2.20862
O    -2.29637   0.22925   1.75748
C    -2.71958   0.05911   0.55443
C    -2.63028   1.14639  -0.45132
C    -3.54879  -1.15702   0.34121
C    -0.19815  -0.86140   0.06440
H     4.36637   0.82549   0.26295
H     3.85784  -0.59399   1.19276
H     4.43608  -0.79715  -0.48437
H    -0.29043  -0.15508  -2.10828
H     1.65849   1.66063   1.02662
H     0.50171  -0.55469   2.12780
H    -1.31092   1.82491   1.37468
H    -2.93939   0.77321  -1.44463
H    -1.62543   1.59474  -0.55367
H    -3.32521   1.93036  -0.13403
H    -4.58903  -0.84915   0.23064
H    -3.44354  -1.84830   1.18338
H    -3.25610  -1.67945  -0.59387
H    -0.77040  -1.78489   0.06021
28

C     3.86561  -0.14593   0.17834
C     2.48016   0.02533  -0.32474
C     1.81177  -0.53696  -1.33297
F     2.22705  -1.43863  -2.23404
C     0.33352  -0.14366  -1.20005
O     0.52021   1.18973  -0.69066
C     1.35294   0.78990   0.42090
C     0.45320  -0.27827   1.07750
N    -1.51676   1.25044   2.21791
O    -2.30112   0.23001   1.75743
C    -2.73965   0.06725   0.56194
C    -2.63407   1.14862  -0.44787
C    -3.55474  -1.15727   0.34347
C    -0.18208  -0.87150   0.06251
H     4.36791   0.82524   0.26358
H     3.85760  -0.59433   1.19231
H     4.43755  -0.79714  -0.48431
H    -0.28969  -0.15628  -2.10820
H     1.65870   1.65948   1.02706
H     0.49974  -0.55328   2.12867
H    -1.31529   1.82725   1.37626
H    -2.94275   0.77444  -1.44310
H    -1.62421   1.59073  -0.55304
H    -3.32203   1.93516  -0.13326
H    -4.59136  -0.85203   0.22849
H    -3.44546  -1.84762   1.18464
H    -3.25435  -1.67929  -0.59243
H    -0.77359  -1.78371   0.05936
28

C     3.86943  -0.14572   0.17726
C     2.48603   0.02831  -0.32992
C     1.81812  -0.53405  -1.33820
F     2.23204  -1.43919  -2.23758
C     0.33937  -0.14644  -1.20197
O     0.52152   1.18628  -0.68992
C     1.35723   0.78683   0.41933
C     0.46467  -0.29032   1.07305
N    -1.53908   1.26435   2.22719
O    -2.30588   0.23077   1.75739
C    -2.75972   0.07539   0.56944
C    -2.63786   1.15085  -0.44441
C    -3.56069  -1.15752   0.34572
C    -0.16600  -0.88160   0.06063
H     4.36945   0.82500   0.26422
H     3.85735  -0.59467   1.19186
H     4.43903  -0.79713  -0.48425
H    -0.28894  -0.15749  -2.10811
H     1.65891   1.65834   1.02750
H     0.49777  -0.55186   2.12955
H    -1.31967   1.82960   1.37785
H    -2.94611   0.77568  -1.44158
H    -1.62298   1.58672  -0.55240
H    -3.31884   1.93997  -0.13250
H    -4.59368  -0.85491   0.22635
H    -3.44738  -1.84695   1.18590
H    -3.25259  -1.67912  -0.59099
H    -0.77677  -1.78253   0.05850
28

C     3.87325  -0.14550   0.17618
C     2.49190   0.03129  -0.33510
C     1.82448  -0.53115  -1.34342
F     2.23703  -1.43976  -2.24111
C     0.34522  -0.14922  -1.20389
O     0.52283   1.18283  -0.68918
C     1.36151   0.78376   0.41777
C     0.47614  -0.30236   1.06861
N    -1.56141   1.27826   2.23647
O    -2.31064   0.23152   1.75735
C    -2.77979   0.08353   0.57695
C    -2.64165   1.15307  -0.44095
C    -3.56664  -1.15776   0.34798
C    -0.14993  -0.89170   0.05875
H     4.37099   0.82475   0.26485
H     3.85711  -0.59500   1.19141
H     4.44050  -0.79711  -0.48419
H    -0.28820  -0.15869  -2.10802
H     1.65912   1.65719   1.02795
H     0.49580  -0.55045   2.13043
H    -1.32405   1.83194   1.37944
H    -2.94947   0.77691  -1.44005
H    -1.62176   1.58271  -0.55177
H    -3.31566   1.94477  -0.13173
H    -4.59600  -0.85779   0.22420
H    -3.44930  -1.84628   1.18716
H    -3.25084  -1.67896  -0.58955
H    -0.77996  -1.78136   0.05765
28

C     3.87707  -0.14529   0.17510
C     2.49776   0.03426  -0.34028
C     1.83084  -0.52824  -1.34865
F     2.24202  -1.44032  -2.24465
C     0.35106  -0.15200  -1.20581
O     0.52414   1.17938  -0.68844
C     1.36580   0.78069   0.41620
C     0.48762  -0.31441   1.06416
N    -1.58374   1.29216   2.24575
O    -2.31539   0.23228   1.75730
C    -2.79986   0.09167   0.58446
C    -2.64545   1.15530  -0.43749
C    -3.57259  -1.15801   0.35023
C    -0.13385  -0.90180   0.05686
H     4.37254   0.82451   0.26548
H     3.85687  -0.59534   1.19096
H     4.44198  -0.79710  -0.48412
H    -0.28745  -0.15989  -2.10793
H     1.65934   1.65605   1.02839
H     0.49383  -0.54904   2.13131
H    -1.32842   1.83428   1.38102
H    -2.95284   0.77814  -1.43853
H    -1.62054   1.57870  -0.55114
H    -3.31248   1.94958  -0.13097
H    -4.59832  -0.86067   0.22205
H    -3.45122  -1.84561   1.18842
H    -3.24908  -1.67879  -0.58811
H    -0.78314  -1.78018   0.05679
28

C     3.88089  -0.14507   0.17402
C     2.50363   0.03724  -0.34546
C     1.83720  -0.52534  -1.35387
F     2.24700  -1.44088  -2.24818
C     0.35691  -0.15478  -1.20773
O     0.52545   1.17593  -0.68770
C     1.37009   0.77762   0.41464
C     0.49909  -0.32645   1.05972
N    -1.60607   1.30607   2.25503
O    -2.32015   0.23303   1.75726
C    -2.81993   0.09981   0.59196
C    -2.64924   1.15753  -0.43403
C    -3.57854  -1.15825   0.35249
C    -0.11778  -0.91190   0.05498
H     4.37408   0.82426   0.26611
H     3.85662  -0.59568   1.19051
H     4.44345  -0.79709  -0.48406
H    -0.28671  -0.16109  -2.10785
H     1.65955   1.65490   1.02883
H     0.49186  -0.54763   2.13218
H    -1.33280   1.83662   1.38261
H    -2.95620   0.77937  -1.43700
H    -1.61932   1.57469  -0.55050
H    -3.30929   1.95438  -0.13020
H    -4.60065  -0.86355   0.21991
H    -3.45313  -1.84493   1.18968
H    -3.24733  -1.67863  -0.58667
H    -0.78632  -1.77900   0.05594
