13

C 2.613449146 -1.020237434 0.304668203
C 0.052530834 0.200507161 0.015029427
C -0.216155038 2.737601356 0.587835405
N -0.846182944 0.118272610 -2.586240529
C -2.187684666 -1.936639445 0.773244107
O -3.942534404 -2.045403974 2.096057175
H 2.521691604 -2.989514415 -0.298307253
H 3.978510065 -0.053655485 -0.901310091
H 3.250021551 -0.955591283 2.263677243
H -2.022973529 3.659525940 0.316539009
H 1.294739202 3.866129753 1.395081241
H -2.587146218 0.945999298 -2.686245932
H -1.940122607 -2.377658531 -1.636995343

