13

N 5.349915022 -0.105477105 -0.183978236
C 3.217719159 -1.133165446 0.634689596
O 1.325832756 0.357234488 -0.091232614
C -1.113282276 -0.480638423 0.567385998
C -3.086180501 -0.329547997 -1.429876258
C -3.100150906 1.493953148 0.765035118
H 6.984081143 -0.978410217 0.205953880
H 5.403793079 1.526284510 -1.183676634
H -1.071514945 -2.058633455 1.865587991
H -2.494008099 0.407897138 -3.242445564
H -4.501636901 -1.802167857 -1.512196998
H -4.525087155 1.289302271 2.216448830
H -2.527598567 3.417678393 0.375661132

