13

N 4.784391406 -0.442867522 0.239278445
C 2.506609700 -0.409378514 -0.874086413
O 1.504424177 1.806609979 -1.071763236
C -0.673213004 -0.315767812 0.433401373
C -2.881722509 -0.792309176 -1.171633466
C -2.922962758 1.403396017 0.651838444
H 5.784711883 -2.049671731 0.318402940
H 5.627071496 1.202264661 0.742835466
H -0.253134918 -1.488327603 2.057245205
H -2.663143557 -0.320650127 -3.147617879
H -4.001477645 -2.463987343 -0.798035292
H -4.032692009 1.230081278 2.363668851
H -2.813901580 3.279883363 -0.138696978

