8

O -1.538943199 -2.970062576 -0.130677434
C -2.247954949 -0.875113139 0.320298733
C -0.449550652 1.400418073 0.298741587
O -1.196471422 3.491613456 0.757607096
C 2.152021490 0.791184940 -0.310905490
C 4.393645176 0.253494684 -0.840300566
H -4.218886554 -0.374256272 0.786064123
H 3.067742746 -1.609489170 -0.848213265

