14

C 0.958787925 0.018642432 -2.082069007
C -0.188344713 -2.078196353 -0.553598537
C -1.810323442 0.080662525 -1.422262079
C 0.472524543 -1.656951890 2.187876247
N 0.569030891 1.094794235 2.324816441
C 1.453529185 2.096807642 -0.087867559
C -1.264828995 2.157959236 0.560012211
H 1.859799439 -0.197493841 -3.897740223
H 2.305658057 -2.445299936 2.710908766
H -0.424649579 -3.933263843 -1.376861824
H -3.442697158 -0.079289072 -2.632543052
H -0.965554940 -2.366905026 3.485242433
H 2.878583485 3.557865666 -0.134971440
H -2.494784021 3.678510941 1.145320240

