13

C -3.521663899 0.203148204 0.199792787
C -0.961259914 -0.336984977 -0.999587206
C 1.151157245 -0.167328275 0.917720246
C 5.019651083 0.999116060 -0.820511543
O 3.523615363 -0.839252033 -0.258098019
H -3.580318277 2.094548531 1.023883151
H -3.950050431 -1.151179317 1.697867825
H -5.028373776 0.081736022 -1.200260398
H -0.949668957 -2.219019632 -1.851485778
H -0.576542024 1.016053619 -2.513285271
H 1.357276022 1.739271346 1.677121259
H 0.888544499 -1.518421208 2.454353066
H 6.646949845 0.013391185 -1.722995419

