13

C -3.282409492 -0.147467102 0.488960833
C -0.904413172 -0.141420924 -1.140055670
C 1.342381447 0.685922565 0.460668175
C 4.669558286 0.183773258 0.033186954
O 3.514286843 0.714596136 -2.038810209
H -3.677358624 1.728286141 1.255701845
H -3.110801346 -1.456973645 2.076059791
H -4.917688548 -0.723785118 -0.624863587
H -0.553130547 -2.026850000 -1.899872272
H -1.130644570 1.135473463 -2.740175163
H 1.262352604 2.609054399 1.148372280
H 1.561060705 -0.694109237 2.002888046
H 5.257495528 -1.872274957 0.033608855

