13

O -0.462913491 2.020111860 0.818685180
C -1.912688886 -0.140155242 0.378152282
C -2.227147193 -0.977663624 -2.322440016
C -0.173017787 -2.061614044 -0.679438537
O 2.207366787 -0.928716467 -0.803245116
C 1.975746685 1.668721143 -0.218428114
O 3.818982655 2.444248096 1.404493211
H 3.678435352 1.463374960 2.930560704
H -3.331134474 -0.474992601 1.807264108
H -3.817477469 -2.197378470 -2.729926327
H -1.709326614 0.317599523 -3.818665370
H -0.109885099 -4.032263325 -0.150476680
H 2.195744783 2.809285565 -1.927238341

