13

O -1.732064214 2.482232479 0.922256703
C -1.859325968 -0.119174595 0.650045718
C -2.488247326 -1.101374885 -1.920702610
C 0.111985472 -1.456469107 -0.883453691
O 2.029037112 -0.023265684 -2.065266904
C 3.705820923 1.094669854 -0.555390980
O 3.713236869 1.051223047 1.706656657
H -0.389661168 2.839129008 2.095838005
H -2.582001628 -1.142068852 2.277459904
H -3.710187078 -2.727268069 -2.113521155
H -2.665201186 0.322144409 -3.378601257
H 0.756558468 -3.304696997 -0.286957444
H 5.110049742 2.084919413 -1.717956256

