16

C -2.500852517 2.789627538 -0.422088150
C -0.127388649 1.308972733 -0.102069664
C 0.246831434 -1.202873058 0.302770276
C -1.672657348 -3.258375955 0.554487691
C 2.954754641 -1.492410243 0.459630394
C 4.221207308 0.906985411 0.230182248
N 2.198311333 2.466678294 -0.224890694
H -4.150448894 1.562708376 -0.353997576
H -2.523035748 3.781044060 -2.232623790
H -2.698634542 4.199995416 1.072359067
H -1.389214340 -4.724191194 -0.871398958
H -3.591571105 -2.540535254 0.332940849
H -1.562994481 -4.171197237 2.403021698
H 3.942072498 -3.199687524 1.003423332
H 4.201064018 -0.857140993 -1.538902287
H 2.418728402 4.314060532 -0.601855680

