10

O 1.590414123 4.176896802 0.524923474
C 0.941121367 2.122956085 -0.215782724
C -1.247335101 1.363557208 -1.712100562
H -2.702434327 2.595258907 -2.424176842
C -1.085531346 -1.144606471 -2.016290891
H -2.339770864 -2.414492997 -3.014061957
O 0.910648853 -2.277564444 -0.945394529
C 2.358086921 -0.345514973 0.270039520
H 4.246946361 -0.302077143 -0.552110435
H 2.485591127 -0.759915359 2.284261161

