14

C -4.055833047 -2.230464059 -0.289488600
C -1.244065100 -2.339158914 -0.541543011
C 0.367099728 -0.949250383 0.776370678
C 3.175038107 -1.086509204 0.508909840
C 4.449572150 1.427005159 0.090412964
O 3.399924341 3.435099835 0.077022005
H 6.526665772 1.312804550 -0.194524836
H 3.733998780 -2.344892078 -1.036379910
H 4.055721081 -1.887461363 2.211078776
H -0.345238299 0.407111050 2.143322816
H -0.503787813 -3.669076313 -1.926653376
H -4.821352559 -4.067050726 0.265590689
H -4.627068229 -0.839457370 1.119767004
H -4.937783952 -1.727236191 -2.087965878

