12

C -2.481307004 1.429991777 1.597277590
C -0.385164262 0.177288058 0.161399241
N -0.628314397 0.049750555 -2.342346712
N 1.549081542 -0.656067179 1.457293217
C 3.536093697 -1.755699605 0.216945321
O 3.792908025 -2.108533506 -2.051731419
H -1.956511162 3.390890600 1.967150982
H -2.713156010 0.490926545 3.409988096
H -4.261703780 1.409655130 0.560335524
H -2.172584243 0.733653476 -3.201306415
H 0.813192577 -0.749767095 -3.321037648
H 5.035314437 -2.362882177 1.524557357

