12

C -1.826801608 0.838532368 1.526797873
C -0.661207555 0.675619212 -1.059249696
N -1.499666829 1.681909295 -3.060967605
N 1.562485256 -0.714508056 -1.291378873
C 2.862134912 -1.990302980 0.539609953
O 4.781678647 -3.143473785 0.140780647
H -3.537024500 1.975724688 1.439708692
H -0.530898675 1.708093983 2.875222720
H -2.324921491 -1.032562228 2.237635532
H -3.115214971 2.653698007 -2.720988169
H 2.292456600 -0.776917130 -3.055438777
H 1.996980214 -1.875813375 2.428267683

