11

C -2.559650760 -0.375247074 0.244601369
C 0.131840050 -0.434776225 -0.781931670
C 1.719020096 1.818002401 -0.262118752
N 3.696710477 1.240183508 0.967135544
N 3.564144867 -1.480157580 1.358924279
N 1.645649741 -2.399141335 0.423633946
H -3.659072764 1.080089464 -0.712310606
H -3.465823248 -2.196960160 -0.063365163
H -2.554443884 0.019600031 2.266689467
H 1.322423048 3.745605761 -0.820871385
H 0.103056724 -0.859319753 -2.810223266

