17

C 3.116751886 0.570405932 -1.357180610
C 0.728529294 0.606933714 0.199658409
C -0.140798146 -1.987298713 1.157714292
C -2.030952085 -2.063896021 -1.066429465
C -1.721171474 0.826899573 -1.334056561
C -0.405001209 3.203946551 3.849353880
O 1.184330064 2.575278568 2.132147883
H 4.736788675 0.104746914 -0.170369393
H 2.975472030 -0.836744877 -2.857700915
H 3.437759757 2.416461922 -2.216927894
H 1.299697976 -3.452972638 1.290843456
H -1.124512957 -1.833304024 2.962721065
H -3.922557524 -2.757912567 -0.652107088
H -1.289700323 -3.085875254 -2.693084869
H -1.560824981 1.639753398 -3.219427490
H -2.151664880 2.010264403 3.609991134
H -3.181324319 1.830400592 -0.280222763

