9

N 5.806918016 0.588371558 0.968533602
C 3.671151365 0.671216962 0.569847631
C 1.052992624 0.679649714 0.095883815
C -0.687382568 -1.395478688 0.088274266
N -2.986841983 -0.881886031 -0.399600145
N -2.363998589 3.101462924 -0.868895732
N -0.272380021 2.777671524 -0.447234603
H 0.042627762 -3.272248737 0.495150707
H -4.234740695 -2.328262923 -0.411917852

