15

O 4.282335451 -1.589771239 -0.482452031
C 2.008337223 -0.778157603 0.631296555
C 1.152833091 1.894377610 -0.183049871
C -1.476941512 1.156901577 -1.072314904
C -2.789679997 -0.133519676 1.164659697
C -0.172602028 -2.447511331 -0.337494541
O -1.044417104 -1.115806195 -2.483349005
H 3.985582044 -1.841240552 -2.257411913
H 2.268918947 -0.962847756 2.665666210
H 1.150065682 3.273399920 1.346488445
H 2.297151738 2.620392000 -1.734022235
H -2.558179419 2.556282871 -2.137155941
H -2.582078823 0.676968854 3.043601457
H -4.722640220 -0.712280352 0.748321076
H -1.980108248 -2.536473137 1.160519477

