13

C 3.382783070 2.075387332 1.193434556
C -0.041385021 -1.631223742 -1.126441139
C -2.867786743 -2.006485480 -1.344318529
N -3.176470500 0.505728354 -0.065699144
C -0.529513241 0.513022754 0.138752064
O 0.721452024 2.359468103 1.284161555
H 4.045248729 2.098270309 -0.763575494
H 4.183757283 3.666269182 2.216476571
H 3.954469329 0.301501476 2.086839394
H 1.594583615 -2.541926376 -1.919461551
H -3.658820543 -3.562470192 -0.242980702
H -3.676774963 -2.000260363 -3.241264296
H -4.144042761 0.487348330 1.586568191

