13

C 3.596305284 1.271440901 1.229369626
C 0.217460385 -0.934247375 -1.171803617
C -2.429040770 -2.130638313 -1.007016325
N -3.337778184 0.377211047 -0.135283679
C -0.881393247 1.241813322 -0.089649401
O 0.066672807 3.163374472 0.881250157
H 4.559344016 0.077735774 -0.110649795
H 4.112932370 3.240282905 1.226707286
H 3.139647429 0.421209314 3.024276607
H 1.323777698 -0.923685374 -2.893913057
H -2.655719050 -3.614244889 0.409534964
H -3.299253698 -2.712092132 -2.784379372
H -4.551840443 0.656551327 1.309758538

