8

C 0.889791057 1.953726915 2.510472659
O -1.201011300 0.382439806 3.027579319
H -2.088688755 0.078029588 1.476571050
C 2.466725122 1.028059956 0.429289972
C 3.700172361 0.272183301 -1.310254780
H 4.812398016 -0.405105370 -2.843610418
H 0.293804300 3.892026163 2.080764529
H 2.006076694 2.022155240 4.242409053

