12

O -3.613301235 -1.327216621 -1.028308096
C -2.063957947 0.240430630 -1.984063728
C 0.114975246 0.776043056 1.184836756
O -1.469462864 -0.865181059 2.687959554
C 2.522713984 -0.123285203 0.327713205
C 4.528183207 -0.862957494 -0.421437215
H -2.934303477 -1.466136549 1.160936502
H -2.695370777 2.179425902 -2.344172017
H -0.544396837 -0.449472719 -3.203137900
H -0.351263464 2.774971049 1.162157491
H 0.205661993 0.661557457 3.513127912
H 6.311582757 -1.527357893 -1.071650589

