9

N -1.545613385 1.446199844 0.267720939
C 0.834098844 2.189053640 0.433047201
C 2.166095773 -0.272348671 -0.022798941
N 0.304113625 -2.286544006 -0.425203553
C -1.797671121 -1.184828668 -0.236251670
H -3.031904543 2.618486117 0.477001531
H 3.417114423 -0.116274943 -1.662135523
H 3.387911333 -0.735059526 1.580364994
H -3.640191528 -2.059351078 -0.420312998

