9

N -1.439469981 1.369374219 0.129106731
C 1.056123088 1.915026534 0.670136266
C 2.079913982 -0.583960654 0.407500277
N 0.262164408 -2.439731745 -0.067439771
C -1.811974534 -1.158032862 -0.193912508
H -2.795775308 2.693311863 0.022062004
H 2.383913751 1.037964332 -1.328166984
H 4.004903114 -1.103295622 0.853937624
H -3.661754720 -1.962723883 -0.531993280

