14

C -2.872657682 -1.931367827 -1.071019326
C -2.660344042 0.940708310 -1.200602873
C -0.697095854 -0.484206698 -0.150327335
C 1.433245413 -0.143033314 1.697406391
C 3.022638215 1.101652959 -0.371552489
O 1.621634005 0.119530771 -2.503388265
H -2.709197997 -3.051062927 -2.782651444
H -4.013397547 -2.817115267 0.395457676
H -3.855397791 2.278023250 -0.225826070
H -0.285224717 1.232711229 -2.761016536
H 2.233757720 -1.928005305 2.340219353
H 0.939838791 1.030675072 3.315933025
H 2.976949361 3.164872250 -0.334258952
H 4.973172475 0.458358533 -0.471099822

