12

N 3.485637971 0.192396702 2.025394117
C 2.127182212 0.193119484 -0.008719310
C -1.878606617 -1.618426875 -2.790831728
O -2.410430086 0.129181224 -0.811021225
C -0.519187229 0.974967514 0.654585634
N -0.910539702 2.502531992 2.458202230
H 5.354485854 -0.160210263 1.934208728
H 2.755112427 0.750218399 3.724405907
H -0.539697221 -0.832124591 -4.141228089
H -3.689867250 -1.975145128 -3.696555577
H -1.121465943 -3.386289986 -2.045837458
H -2.766442620 2.993010181 2.570212534

