12

C -2.184735125 -1.253916772 1.933475722
C 0.421693783 -2.113739210 1.037524687
C 1.263543944 -0.752843455 -1.297989871
C 3.322221921 0.657202167 -1.481488552
H 4.590112480 0.910649816 0.110782643
H 3.822712804 1.606890305 -3.224536232
H 0.042512091 -0.948796414 -2.942495591
H 0.366799393 -4.146681952 0.651556346
H 1.816688833 -1.831364239 2.534962924
H -3.610815168 -1.558993364 0.472022349
H -2.774711684 -2.294485788 3.613612020
H -2.177094282 0.757437039 2.392439100

