14

C -2.878853584 -0.650766989 1.576006228
C -1.320841536 1.974075581 -0.397086809
O -1.381053029 4.069815339 0.270301436
C 0.784127342 0.133493485 -1.589932640
C 3.333063468 0.766478188 -1.929332271
C 0.817003626 -1.335741441 0.790727948
H -4.019272932 -1.645709815 0.180662825
H -2.468013594 -1.987219382 3.112304434
H -4.027078427 0.801939353 2.491561622
H -0.110414940 -0.896336332 -3.128176036
H 4.293159235 1.876624181 -0.505225366
H 4.313442591 0.463097116 -3.698888557
H 1.017196430 -3.375346997 0.707273730
H 1.729375663 -0.434696100 2.387936657

