13

C -2.271472288 2.677581821 -1.849826806
C -0.327695555 1.550505167 -0.776737549
C 1.131839368 1.889793985 1.616752295
H 1.454042359 3.545783022 2.767554535
O 1.019918978 -0.507668309 2.875837694
C 2.845238153 -0.190646872 0.939889057
H 4.807946917 -0.508463071 1.413190165
C 1.444337462 -0.618852009 -1.566316525
O 0.450627663 -3.008421200 -2.044116371
H -0.543694388 -3.480092306 -0.597110880
H 2.591307962 -0.085903340 -3.196318974
H -3.196136068 4.282621650 -0.976681950
H -3.003161091 2.021128344 -3.646565593

