13

O -5.503856307 -1.143957766 0.445270554
C -3.368954148 -0.462678088 0.267140472
C -2.141869787 2.057575208 -0.530776069
C 0.285337193 0.721931863 0.047926402
C 4.581020422 -0.066805900 -0.289687588
O 2.551003033 1.330932182 -0.497364710
C -0.814114537 -1.777241481 0.735719041
H -2.675119073 3.665981206 0.653595757
H -2.499653524 2.543290021 -2.512292711
H 4.432603883 -1.914092008 0.565254482
H 6.314744571 0.878802016 -0.762386724
H -0.411051828 -3.323948072 -0.596262790
H -0.528723581 -2.493150145 2.658161295

