14

C 1.286329675 1.390737932 -0.222124116
C 2.211534692 -1.409797181 2.093573471
C -1.443791483 2.324336053 -0.172121188
O -2.918412751 0.422215159 -1.302682024
C -1.936769401 -1.893618639 -0.384786657
C 0.935831419 -1.582417010 -0.311861332
H 2.406748484 1.963120876 -1.845498389
H 2.277275183 2.019395673 1.517475400
H 4.263848543 -1.488351641 1.720896122
H -1.691381888 4.066774089 -1.242496571
H -2.033515669 2.637583783 1.790981831
H -2.545900753 -3.390066698 -1.661644969
H -2.634072105 -2.277137063 1.528316551
H 1.894482490 -2.363070979 -1.961675784

