15

C -1.881555535 -3.762660785 0.222707002
N 0.311473258 -3.770281635 1.845385364
C 2.125702802 -2.270092297 1.484498017
C 2.523257375 -0.379847442 -0.552248763
C 1.142425916 1.676812553 -1.016481188
C -1.065693379 2.355959373 0.518086445
N -1.961922128 4.556955969 -0.161505727
H -1.592145283 -2.874056004 -1.623042097
H -2.501632955 -5.711011014 -0.042559958
H -3.390959896 -2.737226396 1.186172131
H 3.725265751 -2.437312290 2.783308691
H 4.213893444 -0.699136664 -1.680861839
H 1.742132826 2.915149742 -2.569129191
H -3.479109119 5.286678814 0.725066919
H -1.216589881 5.648282009 -1.565214304

