9

N -4.032821493 0.212200049 0.321105835
C -1.443081966 -0.011139860 0.135495990
O -0.655189571 0.989221416 -2.089006324
H 1.147610909 0.832189144 -2.190339901
C 0.101539671 -0.975855969 1.885881193
H -0.641903871 -1.768626220 3.612463973
H 2.128351121 -0.933148782 1.636849853
H -4.840239483 -0.881857326 1.645900262
H -4.938238904 0.182519330 -1.351366868

