14

C 2.490949653 1.352780496 -1.632869995
C 1.477648553 0.718963557 0.755913826
C -1.198858222 1.796069446 1.283991801
O -2.863631178 0.781264237 -0.390376883
C -2.034181004 -1.793260822 -0.716830208
C 0.305674180 -1.910388258 0.865462761
H 1.342471473 1.168649343 -3.315401653
H 4.380453697 2.099536634 -1.871219130
H 2.701800305 1.076253225 2.366311463
H -1.648695488 3.766482341 1.685328018
H -1.033642811 -0.405732363 2.826915198
H -1.778086907 -2.104633130 -2.739971639
H -3.504464330 -3.076786125 -0.038612982
H 1.378297865 -3.661890176 0.953639725

