9

C 2.548280278 -1.520484827 0.467472928
N 0.039868950 -0.558410763 -0.025075607
C -2.013956644 -2.064460822 -0.241664526
O -2.014013185 -4.341067213 -0.055331200
H -3.753602610 -0.972270365 -0.617326414
H -0.215690751 1.310778517 -0.225406211
H 3.835191875 -1.083302679 -1.084612769
H 2.408655010 -3.562543211 0.659135754
H 3.313206075 -0.737032873 2.215645640

