12

N -3.883082902 -0.586012121 -0.817267091
C -1.414887649 -0.284797185 -0.294597853
C 0.399552826 -2.013841409 0.287160798
C 2.724247209 -0.651601794 0.603773317
O 4.836143559 -1.359133226 1.130987839
C 2.031550505 2.116310353 0.119726169
O -0.624767910 2.117001029 -0.415171696
H -4.983329546 0.955473062 -0.909585882
H -4.702305747 -2.262069426 -0.498327601
H 0.143598323 -4.024151997 0.474792838
H 3.039449917 2.876196912 -1.507687375
H 2.381818593 3.290045951 1.775164445

