14

O 2.851626391 0.135009952 -1.598933009
C 2.487296510 -0.017455362 0.905049424
C -0.462352374 0.380375828 1.401896708
C -1.229138702 2.484676896 -0.112897851
O -1.568170837 -0.991127583 -2.689783631
C -1.793320764 -1.758654040 -0.152607611
H 0.354680863 -0.640097406 -2.787535271
H 3.512590889 1.426575416 2.012938233
H 2.935459082 -1.872811375 1.759532385
H -1.186812314 0.423353567 3.336351686
H -3.011563531 3.462263892 0.183643131
H 0.084641665 3.189843563 -1.522346717
H -3.783759407 -1.830367843 0.376120411
H -0.924056346 -3.604779138 0.203337744

