17

C -3.523747946 2.365625908 0.139020745
C -2.927167002 -0.417755575 0.103497635
C -2.036344192 -1.694270202 -2.257395170
C -0.252889159 -1.399057829 -0.055794258
C 1.939006573 0.334637710 -0.233270684
C 4.097444325 -0.053087944 0.884331374
C 6.252824823 -0.455685629 1.994485662
H -5.494804481 2.689787921 -0.379049260
H -3.218596483 3.171554378 2.014643692
H -2.358257620 3.422213963 -1.193711326
H -4.150526543 -1.544857003 1.301681886
H -2.716758565 -3.569625904 -2.705704574
H -1.695903643 -0.506178034 -3.890826603
H 0.129568467 -3.094322500 1.025411013
H 1.748357943 2.028204008 -1.378774152
H 7.748006179 -1.500857867 1.060876505
H 6.620599258 0.245429144 3.884574388

