17

C -3.436079148 2.380540741 -0.229348973
C -2.756473162 -0.351636647 0.193633282
C -1.683720541 -1.926131245 -1.871758193
C -0.039685005 -1.256912441 0.376860768
C 2.071480852 0.523036224 0.128813389
C 4.480496989 0.021502948 0.998322696
C 6.291744375 -1.264732298 2.054941554
H -5.388316581 2.530638097 -0.879287015
H -3.259778434 3.480001504 1.507548159
H -2.250286417 3.262451792 -1.667063078
H -4.006481017 -1.330200348 1.489726927
H -2.259592921 -3.878231446 -2.062309123
H -1.244290507 -0.989706944 -3.638939981
H 0.324108137 -2.775274936 1.699449998
H 1.775945091 2.242803064 -0.947266662
H 4.805751755 0.409156584 -1.169321632
H 6.605478293 -1.093346516 4.083986414

