15

C -2.499117106 -0.777673663 -1.493798039
O -1.309756157 -3.129497333 -0.782628449
C -0.329191614 -2.006927695 1.516744965
C 2.438298312 -2.116135742 0.880453713
C 2.962843633 0.381731216 -0.279436996
C 0.838137964 2.286789463 0.306370072
C -1.443271487 0.606937437 0.815503693
H -1.839875660 -0.113531741 -3.338522415
H -4.550937928 -0.999357057 -1.540825839
H -0.939008048 -2.976783764 3.229832247
H 4.881241381 1.017815259 0.141899969
H 3.049878957 -0.104637953 -2.304378505
H 1.305756098 3.384008104 1.992502527
H 0.512197964 3.632409012 -1.224108950
H -2.847439646 1.428858054 2.071274098

