8

O 1.127792293 1.922415609 0.101480239
C -1.540701060 1.846954668 0.084462065
C -2.467912115 -0.536693917 -0.037227642
N -0.156816787 -1.887427896 -0.094412758
C 1.831652989 -0.412204372 -0.011997607
H -2.394722928 3.689262141 0.171412824
H -0.053764825 -3.784026123 -0.188627284
H 3.805499346 -0.915955412 -0.028291033

