11

N 3.574623190 -0.564669914 -1.282384986
C 1.309805044 0.379015018 -0.476675043
C 0.268817396 1.875775826 1.268962960
N -2.242040956 1.666492834 0.114815413
C -3.510153388 -0.622409607 0.696396580
N -2.495577800 -2.083970525 -0.941279556
N -1.014983467 0.068953291 -1.838949902
H 4.886011674 -0.812173883 0.070084764
H 3.417403022 -2.057633922 -2.453464743
H 0.786746314 3.071112449 2.828942458
H -5.011733263 -0.950925625 2.042308016

