14

O -1.528678245 3.648770167 0.258906066
C -1.209049817 1.180441215 1.139196620
C -1.999273586 -1.078190024 -0.540450447
C 0.698744338 -2.153051996 -0.295968358
C 2.718772465 -0.866592931 -1.660535208
C 1.487700743 0.119495414 1.354606992
H -0.869781711 3.760911674 -1.428072684
H -2.133684193 1.115065441 2.978942569
H -2.543019469 -0.606846579 -2.472681179
H -3.486356615 -2.221376102 0.308354549
H 1.026179810 -4.051700916 0.399674033
H 1.887215189 0.572332167 -2.919172005
H 3.167808733 1.071003207 0.237257704
H 2.435412284 -0.237585458 3.137542180

