9

C 3.854818647 -1.379363727 0.707515861
C 1.977093625 -0.158720951 0.401582373
C -0.318852658 1.329347703 0.032084167
C -4.440554792 -0.511209618 -1.620005269
C -2.671113477 -0.285508364 0.044611426
H 5.528551664 -2.464380879 0.968019199
H -0.470821220 2.738378184 1.533315141
H -0.200190216 2.358066550 -1.750083773
H -3.079180823 -1.518293595 1.658115848

