9

C 4.110356805 -1.548981614 0.106316748
C 2.302510378 -0.195670728 0.043796160
C 0.115978955 1.498508805 -0.035540741
C -2.304995066 0.191139127 0.257587359
C -4.298184943 -0.846686159 0.489631270
H 5.715704187 -2.759233788 0.163382565
H 0.307716388 2.918477021 1.453163617
H 0.118511377 2.523792167 -1.829442614
H -6.067598082 -1.781344832 0.691546352

