9

C 3.908726089 -1.441198117 0.365220962
C 1.992100563 -0.259273769 0.167893719
C -0.326761180 1.187094695 -0.022838682
C -2.350591927 -0.412511283 -2.035323475
C -3.396544698 -0.520472338 0.080342897
H 5.614919423 -2.496278284 0.510407637
H -0.875274710 1.832211233 1.872673349
H -0.103050413 2.896982350 -1.135563149
H -4.408188206 -0.752749196 1.817577780

