15

C 5.785927468 -0.190703791 1.213916334
C 3.322117268 0.805634013 2.058846975
C 1.068357666 0.505797291 1.369435938
C -0.976286184 -1.198908224 -0.801424818
C -2.702627212 0.275802164 0.570493558
O -1.328511405 1.267872513 2.362556520
C -5.395919649 0.939097281 0.307971255
H 7.063083411 1.347247775 0.703106355
H 5.660224984 -1.493374136 -0.396749568
H 6.696793885 -1.194122171 2.772519621
H -0.407316879 -2.904924850 0.211010731
H -1.178037181 -1.496926518 -2.821184301
H -5.761689009 2.881115775 0.884527263
H -5.995526894 0.649784974 -1.639443332
H -6.524400444 -0.318733813 1.498960166

