13

C 3.019135947 -0.631374241 -2.603540745
O 1.517197327 1.373845802 2.651859020
C -0.312476892 -0.111379872 2.025278731
C -3.174169929 0.859843490 2.006454092
O -3.263779986 0.520989329 -0.799424505
C -0.908063499 -0.106042359 -0.832231266
O 0.330700787 -0.064751220 -2.880521739
H 3.261016091 -2.666433760 -2.764686366
H 3.639213803 0.085342847 -0.769681671
H 3.934663204 0.329767035 -4.166681226
H -0.314583634 -2.103901731 2.730836117
H -3.300421775 2.867888145 2.408716256
H -4.663150546 -0.259635954 2.875301862

