13

C 3.545585867 -0.303053659 -2.120858716
O 1.749521939 0.307172619 1.801713661
C -0.558178686 -0.592875777 1.550758202
C -3.061368284 0.922824112 2.087368196
O -3.745550695 0.677530462 -0.637076376
C -1.459246117 -0.197218886 -1.116192077
O -0.263337625 -0.157863695 -3.059996229
H 4.055067160 -1.908008563 -0.976361187
H 4.145013834 1.514549348 -1.429282865
H 3.492846766 -0.568721883 -4.141076760
H -0.872619721 -2.579704892 2.148119773
H -2.750717699 2.910352597 2.507043468
H -4.511733954 0.069175730 3.267515729

