11

N 5.309404113 -1.405173021 1.066468242
C 3.227792968 -1.098340306 0.136885203
C 1.052447457 -0.528218060 -0.890485834
C -1.110844605 0.398718550 0.617017652
C -3.232924840 1.714642489 -0.557300303
O -3.472534440 -0.831675611 0.241068544
H 5.676999912 -3.169787919 1.730190324
H 0.823872157 -0.816730107 -2.904057976
H -0.689302246 0.816375859 2.583750135
H -4.311913123 3.086391111 0.523935771
H -3.228698392 2.000223324 -2.591606274

