19

C 5.145019596 1.237769043 0.322945275
C 3.126403775 -0.614372111 -0.470326376
O 1.060062109 -0.388041314 1.220088652
C -0.904712826 -2.016157193 0.688772442
C -3.381752697 -1.260774342 1.906650814
C -3.997844742 -0.795846252 -0.796543372
C -3.510412508 1.903550511 -1.541784762
H 5.772442496 0.842971089 2.245816176
H 4.419935386 3.165894440 0.257136432
H 6.771152378 1.105399416 -0.937430089
H 3.849453582 -2.559216728 -0.430813167
H 2.479424856 -0.224149694 -2.403586386
H -0.446146234 -4.020194495 0.896301580
H -3.117441012 0.368626305 3.144227086
H -4.381043707 -2.791576639 2.840050968
H -1.474687938 -1.997874319 -1.475540507
H -3.085875027 2.114919023 -3.547575162
H -5.349681225 2.807757230 -1.234755176
H -2.120079563 2.941240227 -0.405687860

