12

N -4.266059466 0.606375054 -3.093636680
C -3.039278519 0.863961808 -1.160580647
C -1.832845274 0.985269130 0.989722458
C 0.472237948 -0.524201278 1.533176870
C 2.178544099 -1.429182048 -0.475649961
N 2.925292998 0.690904809 1.121961108
H -3.776873000 1.775577785 -4.537258976
H -2.538261630 2.281751264 2.408566759
H 0.321983499 -1.721746310 3.194358837
H 1.789669265 -0.941496818 -2.426922595
H 3.094481482 -3.243492529 -0.216351891
H 4.182487784 0.127087767 2.449950590

