12

N 4.070324185 -0.092974809 -0.606574723
C 1.599981977 0.292751458 0.017439715
N -0.092258244 -1.459948660 -0.751982496
C -2.593643664 -1.138005450 -0.178276952
C -3.278212977 0.907021127 1.170075765
C -1.456563707 2.728111094 2.126363299
N 0.985995540 2.258673740 1.389625375
H 5.178022113 1.389349172 -0.165008939
H 4.507070393 -1.010957972 -2.209632286
H -3.852867278 -2.601097159 -0.861224521
H -5.259806795 1.174901578 1.607768423
H 0.484291528 -3.028994233 -1.656629522

