11

C -2.108967652 -1.967414145 0.564785678
C -0.517201770 -0.478998840 -1.203657332
N -0.901707651 1.943113817 -2.028144481
O -0.978901924 3.202751942 0.132218883
C 2.079710874 -0.398995621 -1.230452912
C 3.490224280 1.049490319 0.065671989
H -2.792076302 -3.648041356 -0.425005245
H -1.050075908 -2.589871676 2.219648533
H -3.737038499 -0.845055968 1.133951742
H 1.154646662 2.779158739 0.723455776
H 5.387076807 1.132254824 0.795146468

