12

O 3.512026901 -1.564490974 -1.307694919
C 0.945924030 -0.972752283 -1.052147425
C 0.127440768 -0.559954310 1.680131347
C -2.121639777 1.167464920 1.310709580
O -1.545079858 2.482230362 -1.086071940
C 0.177416030 1.413070375 -2.433720223
H 4.089672468 -0.773291502 -2.839536150
H -0.245364648 -2.452459012 -1.928324650
H -0.359019221 -2.301639517 2.659827731
H 1.646640014 0.383927153 2.705629873
H -2.381592903 2.623890034 2.736765303
H -3.898667171 0.161563439 1.025577611

