10

O -2.549394385 -1.072575497 1.235455244
C -0.593438537 0.341402778 0.078639611
C -1.791770432 -1.818554031 -1.207434555
C 1.911611666 0.121069424 1.149262095
C 3.986871990 -0.048439217 2.022574948
C -1.312572642 2.880907527 -0.708365614
N -1.882043613 4.866458394 -1.359238144
H -3.138335695 -1.444159337 -2.708394505
H -0.732573762 -3.571034298 -1.312401792
H 5.831520380 -0.195968889 2.814061999

