10

O -3.141597532 -1.119969526 -2.843047318
C -1.547303008 -0.439438935 -1.362494577
C -1.004167279 2.178518247 -0.386395948
N 0.811783371 2.258692505 1.170024081
C 1.769126279 -0.291365552 1.476360799
N 0.225309495 -1.844871907 -0.140305324
H 1.618887836 -0.828406290 3.466681562
H -2.068894082 3.832787841 -0.957171548
H 3.764604463 -0.329057027 0.938884895
H 0.392608895 -3.720317012 -0.363918411

