12

O 1.704797942 -2.167406828 -3.351054360
C 1.060248492 -0.017513471 -1.850772841
H 1.531013096 1.597157290 -3.030751319
C -1.741337837 0.038299590 -1.033859147
H -3.033002720 -0.789032259 -2.404822777
H -2.242278211 2.043013224 -0.759137207
C -1.654426744 -1.180210215 1.478250544
H -3.101207566 -1.790244176 2.772158021
O 0.631731381 -1.013739819 2.333018173
C 2.279974411 -0.008888705 0.696258630
H 4.235030957 -0.377239374 1.141642247
H 1.691577512 -3.641205328 -2.290650910

