16

C 3.004164271 1.371526920 -0.511948596
O 0.870278482 0.047823129 0.427112214
C -1.101393745 -0.741436728 -1.572044398
C 0.980592870 -3.228543321 0.584993559
C -3.369030890 0.868989727 -1.193202971
O -2.925921805 3.548332602 -1.376849938
H 4.064718388 0.201695590 -1.849539190
H 2.328592019 3.064706523 -1.476205312
H 4.218368543 1.876364117 1.074704878
H -0.199822532 -0.348521641 -3.391530064
H 2.703682416 -3.145336658 1.742903589
H 1.279178309 -4.355557614 -1.094533302
H -0.622809171 -3.884952824 1.662302253
H -4.723597518 0.397903492 -2.679095756
H -4.282883055 0.469333684 0.623748705
H -2.274370051 4.102316927 0.218712329

