17

C 4.626909737 0.216667229 -0.549316059
C 2.251627102 0.758508023 1.003541666
C 0.692925626 -1.570935431 1.400118873
O -4.542461430 3.807534260 0.697724906
C -4.673398871 1.544277972 0.731135245
C -3.186608522 -0.180230966 -0.986910338
C -1.625670706 -2.008599819 0.544108900
H 4.132893981 -0.429335231 -2.445381119
H 5.774331201 -1.253764838 0.335150789
H 5.793102115 1.907339241 -0.730476355
H 1.139736855 2.246199147 0.106854979
H 2.806289480 1.494890150 2.855441426
H 1.603523475 -3.069019615 2.474141106
H -5.916146757 0.570091746 2.113119588
H -4.537136030 -1.233410371 -2.146272849
H -2.039977455 0.984998086 -2.239018585
H -2.507323998 -3.803126039 1.002207387

