17

C 4.451652077 -0.086300882 -0.138923065
C 2.053012427 1.294658700 0.654054337
C 0.034405280 -0.571664130 1.464426461
O -2.175855604 1.061720324 2.727749401
C -3.957969158 0.718259748 1.114772325
C -3.314649032 -0.137634952 -1.442792026
C -1.383877357 -1.990660611 -0.451112850
H 4.048430707 -1.390204368 -1.684028661
H 5.233924275 -1.179794022 1.428959835
H 5.897390885 1.247069160 -0.758176433
H 1.350469040 2.434612666 -0.918322407
H 2.457904995 2.590031717 2.211364881
H 0.660972455 -1.699229958 3.069987778
H -5.857636659 1.117878733 1.807385315
H -4.933272590 -0.974952340 -2.397333811
H -2.573190005 1.393530588 -2.635005403
H -2.080022415 -3.837039253 0.108700373

