18

C 3.794976557 0.222153539 -0.961019805
C 1.933073588 -1.556498793 -0.642645645
C 0.463246744 -1.923629909 1.733654041
C -1.434074946 -0.099464109 0.723930721
C -1.204328431 2.460875493 1.142818809
C -3.576426802 -1.133267170 -0.841018549
H 4.792105665 0.288967584 -2.749120143
H 2.401821042 2.762082304 -1.174722658
H 4.857948749 0.887523235 0.664484473
H 1.261006703 -2.573242369 -2.289083231
H 1.446045208 -1.254888885 3.414919639
H -0.251569091 -3.830732386 2.028308056
H -2.710285459 3.694279760 0.498016817
H 0.927306448 3.360633760 -0.565687267
H -0.181625773 3.126537020 2.792035654
H -3.044187291 -2.824421591 -1.894275848
H -4.286443243 0.256772981 -2.188590110
H -5.147438975 -1.664539292 0.396381298

