16

C -2.914169220 -2.069991635 0.302863704
C -0.915181795 -0.548033370 -1.085537677
C -1.099042094 2.391505783 -0.946237989
C 1.672375174 2.559613702 0.017688970
C 1.650202601 -0.251298898 0.119209688
N 3.219220622 -1.834917680 1.078827316
O 5.310457578 -1.351878681 2.137480879
H -4.756801971 -1.833741231 -0.595749861
H -3.072735912 -1.458544348 2.267664320
H -2.477409331 -4.087872031 0.296979626
H -0.769446627 -1.195957662 -3.044889966
H -1.485678944 3.336074237 -2.731995710
H -2.475575805 3.017621370 0.452490593
H 1.975423787 3.495030175 1.829726602
H 3.022254865 3.331218056 -1.339181517
H 2.709260358 -3.703163835 0.981076886

