16

C -3.073882428 -2.074667876 0.072404630
C -1.034526069 -0.490527624 -1.165345573
C -1.127980869 2.439740475 -0.877280012
C 1.698350442 2.474858276 -0.079948435
C 1.525028277 -0.349068282 0.076861360
N 2.908281608 -1.958630263 1.145859360
O 5.168098500 -1.362183414 2.354949825
H -4.891145606 -1.774664915 -0.857631396
H -3.281286617 -1.581877153 2.065509016
H -2.625992600 -4.084532205 -0.042277501
H -0.824592407 -1.014660985 -3.155067821
H -1.615035837 3.500832768 -2.570593805
H -2.377986323 3.013245180 0.656727563
H 2.192572292 3.421857182 1.679864291
H 2.989270224 3.111962791 -1.556295647
H 4.019759763 -3.494125506 2.075104176

