14

C -0.734753958 3.671729980 0.512266429
C -0.178186660 1.011046714 -0.367296732
C -1.724628388 -1.049159957 0.630709265
O 1.910868702 -0.059581572 0.816842602
C 2.314219499 -3.140990363 -0.694748777
O 2.852387364 -2.955897396 -2.903047955
H -2.449042009 4.413866795 -0.362562212
H -0.937095778 3.729746934 2.562955740
H 0.852958462 4.874526202 -0.016679800
H -0.018487039 0.911941803 -2.433745413
H -1.989067156 -1.107631050 2.657954823
H 0.243932462 -3.658227906 -0.130254759
H -2.888510632 -2.291206282 -0.512163042
H 3.566305958 -3.843928968 0.807082620

