14

C -1.951989237 -1.134163523 2.006578076
N -0.665580079 -0.189151381 -0.499949440
C -1.831223643 2.114992666 -1.478104582
C 1.993491818 -0.422449031 -1.095643440
O 2.783780782 0.195407111 -3.141638256
N 3.386655553 -1.423624760 0.779005315
H -0.759514774 -2.602023201 2.805651036
H -2.241866818 0.466037133 3.269197566
H -2.069206189 -1.748928810 -0.646167339
H -1.253419868 2.419496992 -3.424754473
H -3.871982500 1.883666151 -1.344575173
H -1.268882817 3.724984314 -0.314973919
H 5.258936180 -1.543438631 0.509018197
H 2.650502348 -1.619427939 2.517704981

