8

C 3.099082417 -1.174687245 0.789002628
N 1.098505733 0.027475030 -0.632170666
C 1.206133251 0.995797928 -2.693703793
N 1.077305387 1.799557805 -4.857648491
H 1.402380705 3.659444020 -5.136644406
H 4.899779916 -1.180288148 -0.219484754
H 2.555954210 -3.119195698 1.198947530
H 3.335836301 -0.195361021 2.586031280

