10

O 3.155953460 0.923931227 -1.917896007
C 2.725223309 0.186216976 0.168018006
N 0.295384791 -0.177930678 1.150586566
C -1.983613010 0.743070094 -0.186617579
C -1.828026831 -2.032292241 -0.378227833
H 4.202742511 -0.320645554 1.545981371
H -3.333904396 1.564712317 1.127992207
H -1.464526805 2.012464252 -1.720790486
H -0.761419599 -2.436449971 -2.115230658
H 0.180227168 -0.501972656 3.021853052

