12

N 3.231699995 0.504204763 -1.181047572
C 1.629198088 -1.182950923 -0.180760940
O 2.100288386 -3.311815728 0.414872836
N -0.961726014 -0.141141490 0.108094054
C -2.765101028 -1.777548524 -0.396817202
C -1.159469999 2.320480313 0.711747733
H 2.594682333 2.201705603 -1.748650151
H 5.027269873 -0.031127909 -1.468276230
H -2.237461885 -3.630229440 -1.042417207
H -4.701518090 -1.209214903 -0.118215446
H -3.041289887 3.087175480 0.875165446
H 0.408473316 3.175587696 1.688768283

