12

N 3.556778941 0.521042978 -0.802292278
C 1.776134801 -1.291971831 -0.540607483
O 2.087138745 -3.532707383 -0.793088631
N -0.620511699 -0.307634317 0.129822484
C -2.799952246 -1.609259342 0.125689596
C -1.426205484 2.130459885 0.441651332
H 3.023893352 2.333340844 -0.994283388
H 5.282090408 -0.019103827 -1.369031423
H -3.248499623 -2.893021295 -1.410360791
H -4.004328392 -1.473779282 1.760200668
H -2.757024339 2.890477818 -0.899468118
H -0.744471269 3.257280670 2.014231581

