11

O -4.589947942 1.592808992 -0.880390407
C -2.581694358 0.027957534 -0.885704562
N -0.297155276 1.355163611 -0.953703409
C 1.684331074 0.103141271 -0.798051033
O 4.393846772 1.321533818 -0.994786867
C 3.533297280 -1.551549695 -0.343650513
N -2.733917561 -2.350610560 -0.844376120
H -3.974045776 3.301786914 -0.945305731
H 4.827278060 2.049977470 0.619505060
H 4.333492038 -2.895068568 -1.653041253
H -4.567404870 -2.911403077 -0.799739749

