17

C 5.178280439 0.411200984 1.000430176
C 3.023294309 -0.877754787 -0.421318767
C 0.579066584 -0.805538809 1.008519432
C -5.496881309 0.410792161 -2.157419833
O 0.718207308 -2.123328569 3.240287478
C -1.451757378 0.380507372 0.253144688
C -3.469387423 1.557613920 -0.533660982
H 6.935329875 0.287728358 -0.071802865
H 5.479716662 -0.474116109 2.836166352
H 4.756809681 2.406336259 1.314009817
H 3.499126118 -2.860849615 -0.767303772
H 2.731058935 0.013551887 -2.256035380
H -7.332704659 0.513545376 -1.216690244
H -5.083362141 -1.561156004 -2.579826137
H -5.667571955 1.442989445 -3.938278779
H -0.870057384 -1.976774507 4.104864127
H -3.734252098 3.529962102 -0.004517126

