17

C 4.664184528 -0.021347669 0.652329206
C 2.214833794 -0.826721675 -0.656274860
C -0.071252256 -0.266725469 0.913917191
C -4.053292802 -0.953127779 -1.998065125
O -0.204282814 -1.739926911 3.004604464
C -1.356110496 1.988690307 0.804066523
C -3.167707481 3.258445157 0.060467551
H 6.294067056 -0.504735454 -0.514201603
H 4.869152350 -0.968877532 2.470541613
H 4.685180973 2.015302602 0.978101965
H 2.244352299 -2.856916622 -1.022681001
H 2.020695710 0.133968316 -2.468715419
H -4.484232977 -0.911340644 -0.029320235
H -2.642864264 0.160408344 -2.912028368
H -5.196029578 -2.186760666 -3.181158760
H -1.592964139 -1.196762742 4.042016201
H -4.258298663 4.941932015 -0.175265522

