14

O 4.324142070 0.748797287 0.135034594
C 1.809885479 0.482863821 -0.233176916
C 0.286642181 2.674660493 -1.139240178
N -2.316555994 1.738843078 -0.936850831
C -2.311874784 -1.012768273 -0.623675554
C 0.378674603 -1.549362280 0.060275536
O 1.276462414 -3.889045763 0.713023014
H 4.984948852 -0.846029252 0.705187322
H 0.143370630 -4.664712499 1.897199273
H 0.583633448 4.343284466 0.048047742
H 0.827127758 3.188756328 -3.077673597
H -3.383879923 2.280743813 -2.415262796
H -2.857751541 -2.042419170 -2.346065806
H -3.633673409 -1.588175648 0.870866149

