14

O 4.256743173 0.189824595 0.056085446
C 1.779896263 0.273625615 -0.181944532
C 0.325956081 2.560566086 -0.892878511
N -2.288638409 1.676769694 -0.657535024
C -2.354869870 -1.091243534 -0.850120660
C 0.239692219 -1.805712869 0.104704282
O 1.187834561 -4.175023403 0.562992347
H 4.674085049 -1.593333127 0.254813127
H 0.547100563 -2.212984981 2.265889205
H 0.704272524 4.182365197 0.330665884
H 0.871923961 3.095785714 -2.829455651
H -3.444190514 2.523616290 -1.911507977
H -2.572535725 -1.807776243 -2.789417287
H -3.875663365 -1.878556558 0.295779555

