11

N -3.714029326 0.407759245 -0.295262734
C -1.099053810 -0.116671237 -0.141042846
C 0.401933087 -2.189423063 -0.435243800
C 2.924507307 -1.086985207 0.076626316
N 2.738760457 1.628207606 0.645336709
N 0.412350372 1.985947634 0.482416768
H -4.695212093 -0.710976535 0.901345013
H -4.371314641 0.066616191 -2.055896130
H 3.873838891 -1.966895510 1.695415735
H 4.250229968 -1.288450175 -1.502097962
H -0.306327175 3.740919656 0.798816543

