10

O -0.246088791 3.976066158 0.869289230
C -0.134605872 1.819725737 0.229460165
C -2.115797746 -0.272208340 0.075570941
C -0.157733096 -2.426730504 -0.146236891
O 1.299807675 -1.521874097 -2.169071563
C 2.115811409 0.128342394 -0.233925588
H -3.231786148 -0.245029014 -1.655822968
H -3.338654223 -0.310130286 1.729632590
H 1.831674437 -1.355156033 1.538760690
H 4.115889262 0.582365404 -0.282076527

