9

O -2.857058900 2.272305487 -1.125092989
C -1.356795673 0.435615962 -1.648235453
C 1.246232446 0.571345201 -1.472818885
C 2.755600921 -0.281676642 0.071728731
C -1.100280734 -2.184739849 2.481536493
N 0.829287620 -2.554507568 3.486729005
H -1.955518281 3.668415457 -0.359722483
H -2.281063952 -1.206159367 -2.450508947
H 4.344699455 -0.829900440 1.190192089

