14

C -3.589173345 -0.518266234 0.002727007
C -0.811880616 -0.903576402 -0.152315327
N 0.498748859 -2.176146660 1.853882593
C 1.395189806 0.412708343 1.494474353
C 3.400468072 0.312465289 -0.682339323
C 0.832491821 0.637533520 -1.668618776
O 0.115276242 3.016705949 -1.832013284
H -4.203408280 0.865485929 -1.388099005
H -4.115012523 0.118531068 1.890755307
H -4.535499546 -2.318804617 -0.338779933
H 1.794980019 -3.473285247 1.291605583
H 0.352166488 2.839761745 0.660196439
H 4.382853706 -1.484176234 -0.791102794
H 4.567965476 1.968076003 -0.947655227

