11

C -4.458672655 -0.437032652 -1.481756912
C -1.867083143 -0.383791414 -0.557772262
C 0.272365678 -0.350352540 0.209088653
C 2.776517809 -0.336305261 1.131036839
C 4.807414619 0.178211983 -0.437931066
N 6.546311119 0.864212159 -1.719259354
H -5.007067699 1.394999302 -2.255166276
H -5.758245852 -0.889757307 0.053767527
H -4.695985728 -1.856877412 -2.958622249
H 4.735516569 2.324094811 0.100618316
H 3.200946630 -0.662461256 3.102949402

