19

C 3.556285836 -1.714201540 1.438576481
C 2.820632558 0.963349535 0.952198242
O 4.925480342 2.375787098 0.449599614
C 0.502532223 1.942728539 0.965524213
C -1.938547369 0.591566631 1.463569621
C -3.564939402 0.241118206 -0.909014126
C -2.407030677 -1.571983851 -2.819247086
H 4.505661394 -2.484087169 -0.224080814
H 1.934074387 -2.895781656 1.872822770
H 4.890571791 -1.801801703 3.009717722
H 4.427306489 4.093775951 0.141928844
H 0.326893215 3.948892426 0.530198834
H -0.542345918 -0.924737347 -3.421890536
H -1.591586509 -1.254614270 2.322614891
H -3.022578291 1.669113847 2.857127327
H -3.868782173 2.085662246 -1.796880025
H -5.431920613 -0.444504289 -0.343617953
H -3.588823443 -1.749517819 -4.500346067
H -2.183435088 -3.458512068 -2.006400952

