15

C -1.062719082 2.535129088 -0.730937618
C -0.757374735 0.024047918 0.647862272
C -1.756139136 -2.184714092 -0.903858859
C 1.909721392 -0.370375152 1.617405157
C 3.879131485 -1.259914555 -0.990156585
N 4.562608386 0.781206090 -0.380970601
H -0.364270675 4.114900670 0.397021972
H -3.051163082 2.878900694 -1.155036682
H -0.021581145 2.523848538 -2.511049782
H -1.866666571 0.123097591 2.401365637
H -0.755351708 -2.336151868 -2.699749669
H -3.762746787 -1.921457366 -1.303133441
H -1.533040791 -3.975887900 0.095617515
H 2.199467770 -2.155618981 2.589708649
H 2.488317170 1.149082155 2.873651678

