12

C 3.654373960 -2.275071782 -2.123784787
C 2.457290929 0.270339382 -1.839240617
C 2.190376430 1.503658876 0.324043905
C 0.993005593 4.048926476 0.608349024
H -0.639929315 3.966393330 1.871458728
H 2.317445696 5.406930365 1.426868513
H 0.357491302 4.787283083 -1.209088141
H 2.888393941 0.626166647 2.049658050
H 1.759078359 1.147808291 -3.564783368
H 4.290063618 -3.013639395 -0.306504563
H 2.329780184 -3.632989234 -2.942244711
H 5.287091663 -2.192583800 -3.387194087

