14

O -1.616973563 3.501103660 -0.939905007
C -1.568608366 1.719503280 0.976699940
C -2.424917161 -0.841429791 0.344382971
C 1.755223904 -3.105999061 -1.631739901
C 2.417359107 -0.471159424 -1.126345405
C 0.375981988 -0.403812061 0.944452595
H -0.342393788 4.749518324 -0.614091014
H -1.989088302 2.445544637 2.851693948
H -2.866486857 -1.192266177 -1.617631206
H -3.531234852 -1.900768758 1.695405436
H 2.711147684 -4.239176015 -0.151404479
H 1.952567153 0.846015778 -2.640575428
H 4.239606494 -0.015743837 -0.264633165
H 1.011130674 -1.027147936 2.784482324

