14

O -1.859586637 3.375094662 -0.972880198
C -1.578683478 1.594118232 0.934422836
C -2.216607302 -1.016608272 0.211207716
C 1.128604913 -2.678736519 -1.482908681
C 2.625643246 -0.333286953 -1.075176970
C 0.695905044 -0.087084173 0.963372949
H -0.613388338 4.673300133 -0.748654821
H -2.155163349 2.227985325 2.803021765
H -2.884048044 -1.243189496 -1.694219028
H -3.068214308 -2.243554873 1.602645187
H 1.729190356 -4.060001802 -0.044510760
H 2.515779029 1.067797306 -2.577269319
H 4.514970299 -0.481858014 -0.276553519
H 1.256388552 -0.750723523 2.810861370

