14

C -2.202241208 -0.588909506 1.121559447
C -0.887001746 1.915847299 0.692440306
C 1.927140850 1.465106497 -0.025858710
C 2.878868002 -1.240906121 -0.065197460
C -0.440977437 -1.660676408 -1.009902938
C -0.087866917 1.116496663 -1.919278720
H -4.141351998 -0.531209932 0.427268702
H -2.144724162 -1.494226799 2.980715718
H -1.543430751 3.753966741 1.297646546
H 3.174437174 3.082379279 0.017617047
H 0.990074061 -2.307786267 0.787018245
H 3.562416240 -2.107824632 1.722161823
H -0.914689427 -3.304269863 -2.133148890
H -0.367172860 1.881203384 -3.791071495

