19

C -4.594250338 -0.337366871 0.047097758
C -2.099527185 0.853418289 -0.135471990
C -0.158093335 0.389580930 1.632440952
C 2.378721011 0.901397188 0.451305092
C 4.270989459 -1.259074855 0.789231587
C 1.676064410 1.357820887 -2.269271022
C -0.812129569 1.308850505 -2.601152849
H -2.722041389 -3.276124905 0.668515523
H -5.434148865 -0.476448805 1.911049095
H -5.911842338 -0.091302080 -1.507471719
H -3.492996319 2.483820435 0.428104660
H -0.450446212 0.309018825 3.654589238
H -1.280330116 -2.963884588 1.194425623
H 3.228746996 2.627559183 1.237949304
H 3.513264898 -2.995653417 -0.026051708
H 4.639289371 -1.599368572 2.789596150
H 6.067198651 -0.824604558 -0.130167945
H 3.067367219 1.650479843 -3.740987403
H -1.812042526 1.558871004 -4.368362662

