12

O 4.786797556 -0.485747354 -0.531355440
C 2.534679598 -0.233073378 -0.344209532
N 1.160566267 1.942059179 -0.032183793
C -1.509243319 1.439371432 -0.481253472
C -1.701607120 -1.388721103 -0.122763299
N 0.730801765 -2.178383604 -0.423546603
H 1.992805393 3.579497531 -0.512215784
H -2.024403806 1.855597841 -2.445707021
H -2.740134571 2.504046079 0.772808903
H -1.953392056 -1.132495916 3.052161614
H -2.832029364 -2.045694821 1.870772512
H 1.283821423 -3.989528510 -0.556696290

