14

C -2.736635101 -2.266563611 0.211307134
C -2.193551850 0.468924483 0.740127186
C 2.517290035 0.370765362 -0.720009143
O 4.187875997 2.226401885 -1.674906518
C 0.235244749 1.707051478 0.294693227
O -1.839279810 2.099384208 -1.361741370
H -4.709755368 -2.498365090 -0.343141459
H -2.417908809 -3.400005542 1.906497595
H -1.559220717 -3.002911288 -1.306934663
H -3.370848920 1.292330180 2.214898858
H 3.406402473 -0.698642444 0.822940881
H 1.951575179 -0.957997868 -2.199840802
H 5.605496833 1.401626251 -2.440027468
H 0.706682775 3.344853791 1.447748626

