15

C 1.296991661 3.182864918 0.238658822
C 2.439601165 -2.783572950 0.180679039
C -0.118916856 -3.580427522 -0.591657943
O -0.842017288 -2.688822063 1.847306101
C -1.899967061 -0.195648750 1.605684811
C -0.486228308 1.079249424 -0.582288681
C 0.861356159 -1.215843080 -1.650012098
H 0.258610041 4.758753964 1.073095115
H 2.358336913 3.911820043 -1.372705447
H 2.653974002 2.480006495 1.623647867
H -0.979538100 -5.275547383 -1.335856563
H -1.623655294 0.732695044 3.422536104
H -3.919545735 -0.386605027 1.216628847
H -1.840279022 1.804902271 -1.963658976
H 1.665552091 -1.189279937 -3.537253535

