15

C 1.478907640 2.302387697 0.413774905
C 2.893499906 -1.197973811 -0.575759526
C 0.627748046 -2.711728019 0.268091609
O -1.019815099 -1.963236036 2.216344385
C -2.535062154 0.006412408 1.195752910
C -0.866499597 1.181191096 -0.823841241
C 0.372859764 -1.126555958 -2.019178147
H 1.319995260 2.878375369 2.384923923
H 2.462961751 3.685375617 -0.743328722
H 3.398405152 0.760251163 0.537390697
H 0.907224801 -4.737447188 0.146711344
H -3.013801931 1.312845991 2.722104543
H -4.276513866 -0.764443653 0.376568786
H -1.858645761 2.480538396 -2.073603393
H 0.096193976 -1.756255808 -3.944858257

