10

C -2.650502839 0.323518259 0.646717324
C 0.576488469 -0.552356628 1.174119042
O -0.027426087 1.701508779 1.926743648
C 2.526909195 -0.551633808 -0.904555922
H -3.334126628 2.210740383 0.152985783
H -2.608454298 -0.773592856 -1.109627659
H -3.686576405 -0.589468090 2.146467150
H 2.392735428 -2.236971407 -2.081784112
H 2.495085375 1.173473965 -2.049504320
H 4.348605406 -0.638375204 0.073129982

