8

N 5.310352925 0.042845005 1.694752233
C 3.703149927 1.303996555 -0.045098352
C 1.231342481 1.181055093 -0.046188459
N -1.043318889 0.774076815 -0.231683220
H -2.148541276 2.086037318 0.641359856
H 4.608370201 2.353280289 -1.551291426
H 6.288399276 1.262639842 2.791365273
H 4.354788117 -1.170326551 2.812790591

