12

N 3.520779375 -0.235602342 1.001670422
C 1.329501036 0.143113211 -0.370718402
C -2.196150186 -1.590524559 -1.974527603
O -2.873108325 0.697427671 -1.973999255
C -0.772150938 1.198633930 0.790632365
N -1.760294530 1.456127861 2.882806645
H 5.119653557 0.537305111 0.322234133
H 3.341649004 -0.081662908 2.888560918
H 1.538313448 0.266182249 -2.388402645
H -1.506990368 -2.469633467 -3.717079684
H -2.745956931 -2.863492926 -0.437111681
H -3.020671407 2.878056932 3.085353689

