11

C -1.486757751 1.278719975 -0.735164879
C -0.248260294 -0.907039608 -2.040376320
C 0.366733140 -0.368042606 0.664183439
O -0.525623296 -2.107933140 2.414968074
C 2.828966439 0.694456115 1.241337583
N 4.757194165 1.563676426 1.722517866
H -0.929226051 -1.237529218 3.956481415
H -3.440332562 1.060656843 -0.174307393
H -0.910025205 3.176665860 -1.226257134
H 1.189557538 -0.531389474 -3.441413712
H -1.363895790 -2.592787901 -2.338044165

