17

C -4.342635100 -0.847546097 0.134482114
C -1.599409050 -1.086997395 -0.488956487
O -0.932178616 0.902019985 -2.359318097
C 0.082773425 -0.217200491 1.693002763
C 2.295511815 0.623177233 0.226371105
C 3.804615861 -1.133936907 -1.293310286
O 3.174787284 2.890017726 0.457646465
H -4.866543488 1.087502104 0.797702379
H -5.509931852 -1.265955744 -1.515573278
H -4.873783161 -2.168037127 1.631465079
H -1.700253037 2.501717048 -1.856546181
H -0.653815552 1.484385956 2.735677331
H 0.528911571 -1.684562528 3.075911918
H 5.009426172 -2.204448332 0.004181038
H 2.460867689 -2.451355393 -2.149268991
H 4.967557627 -0.142115795 -2.666284093
H 2.073630095 3.848848000 1.569171958

