13

O -4.612820280 0.405498339 0.750529183
C -2.211106291 0.195498441 1.041992699
C 1.340651818 -2.305114647 -0.731105123
O -0.887201811 -1.001286580 -2.358040226
C -0.408480327 1.174469303 -0.805229555
C 2.262457595 0.348658722 -0.143169563
O 3.087081560 0.770456704 2.353176014
H -5.024062838 1.271688796 -0.810969088
H -1.646365890 -0.885869951 2.679532566
H 2.473961015 -3.337615308 -2.114493967
H -0.873542379 3.005668739 -1.645960582
H 3.626509382 1.230343138 -1.431835488
H 2.929334348 -0.853409615 3.164363441

