12

O -3.202055408 2.306839967 0.257783796
C -2.735659435 -0.009746149 1.459751788
C -1.005544474 -1.722379084 -0.111514987
C 1.424171023 -0.602330738 -0.672957740
C 3.404596991 0.546889575 -1.103364748
C 5.431428321 2.018888225 -1.488453553
H -1.620602630 3.180076306 0.059700700
H -4.565205984 -0.930391955 1.697653246
H -1.896808742 -2.089956213 -1.946910182
H -0.761088312 -3.571053819 0.784841583
H -1.909259978 0.261147811 3.341382742
H 7.071978541 0.966048687 -2.191366968

