13

C -3.272102737 1.055309088 -0.034121519
C -0.825652638 -0.091081076 0.928111963
C 0.107812730 -2.297809306 -0.585061873
N 2.278276814 -1.950484297 -1.529345564
C 3.057257619 0.512399144 -0.745524716
N 5.093169933 1.614591638 -1.231033757
O 1.226308705 1.613981956 0.681965573
H -3.103139565 1.561541508 -2.024809398
H -4.821467889 -0.288897154 0.185389673
H -3.724785666 2.750315187 1.042663400
H -0.954718834 -4.029877224 -0.871775675
H -1.020521215 -0.613743720 2.924439277
H 6.182255608 0.469271909 -2.315078115

