15

C 4.386435342 -0.918457617 0.296517890
C 1.754657232 0.022256703 -0.136128765
C -0.408956708 -1.362161324 -0.778582980
C -2.490397305 0.118815037 -0.153221678
N -5.016835845 -0.447077359 -0.596618134
C -1.551678196 2.391355568 0.817464435
N 0.988021346 2.390378391 0.945645333
H 4.502656484 -1.904189295 2.105867008
H 4.947641217 -2.230823958 -1.189586942
H 5.724344222 0.646712865 0.341054351
H -0.431014026 -3.229984748 -1.602992405
H -6.241854131 0.514045417 0.494651989
H -5.418549251 -2.305494520 -0.622265931
H -2.610744646 4.069521921 1.303599372
H 1.894221424 2.178227399 -1.273111589

