10

N -3.321918279 -0.600105000 -0.143062699
C -0.898627209 -0.646186179 -0.568216249
N 1.036488682 -2.115950776 -1.016618741
C 2.959923193 -0.778145282 0.114755698
N 2.513707077 1.425638396 1.113474915
N -0.087603621 1.788503228 0.463550121
H -2.345842289 1.426292959 1.269470616
H -4.453504216 -2.056835040 -0.613855138
H 4.840621888 -1.574966085 0.238222863
H -0.197729301 3.208650514 -0.829768556

