16

C 4.816448455 0.584245057 0.131312080
C 2.369537169 -0.505601648 1.118503816
O 0.464229439 -0.110470026 -0.710231851
C -1.873933532 -1.036956730 0.028018346
C -3.501403163 0.539682556 1.728168298
C -4.124449079 0.252224354 -1.038254329
H 6.330455225 0.302550784 1.503082093
H 4.616561333 2.605997049 -0.218752485
H 5.356515287 -0.328489524 -1.636143870
H 2.573200720 -2.539045186 1.491805965
H 1.822951802 0.398294363 2.904986871
H -1.940589199 -3.080208192 0.263801553
H -4.682006630 -0.397839128 3.109689431
H -2.737619459 2.342321106 2.320683024
H -5.736816925 -0.884655556 -1.573818794
H -3.753081461 1.857950682 -2.247369700

