16

C 4.739188779 -0.065605868 0.047862322
C 2.549632944 1.165605146 1.321590302
O 0.378419867 1.518572008 -0.060459690
C -0.801011138 -0.731103763 0.751895399
C -3.637873703 -0.220340365 1.472115605
C -4.566628683 -0.002403883 -1.054633360
H 6.211366499 -0.511795755 1.419875808
H 5.562125105 1.201617335 -1.376413581
H 4.193838726 -1.801997876 -0.923749549
H 0.535064009 -1.119120340 2.525725848
H 2.937857901 2.679155585 2.663931346
H -0.559106692 -2.269297553 -0.612571788
H -4.323833383 -1.855598918 2.518886835
H -3.679349904 1.476529325 2.637901616
H -5.244211906 -1.651044304 -2.054327109
H -4.414228810 1.755899840 -2.080916047

