12

C -2.617305510 -0.897070849 -0.714546417
C 0.151028764 -0.331933776 -1.111652614
C 1.382765026 1.939910750 0.093929782
O 1.097205224 2.537055588 2.540063692
C 2.084347487 -1.092505229 0.731743189
O 1.249082248 -0.720694074 3.079216161
H -3.040000451 -2.803291902 -1.382285414
H -3.100411991 -0.784959162 1.281425250
H -3.798492317 0.433219374 -1.756245906
H 0.792333478 -0.446405864 -3.060777914
H 1.900090535 3.522923931 -1.112921943
H 3.913468092 -1.963954472 0.434925778

