14

C -3.144482521 -1.718880899 -0.279451660
C -1.695443627 -0.315085054 -1.775286597
O -0.013200002 2.439658933 2.758109986
C 1.762095099 1.804001004 0.939923526
C 2.604628830 -0.864136854 0.638027305
C 0.996020802 0.325505287 -1.397809514
H -1.648103210 1.844964409 2.212483561
H -2.410416272 -2.679827364 1.375154230
H -5.126423765 -2.001108340 -0.700750509
H -2.562404223 0.556128522 -3.420454533
H 3.137777602 3.297112733 0.677130444
H 4.561375604 -1.253276476 0.189574679
H 1.715344957 -2.240939378 1.862402102
H 1.972846012 0.866403845 -3.113026555

