13

N -3.970565298 -0.123718858 -0.435376610
C -1.409179769 -0.382189833 0.196288045
O -0.028225252 1.038649565 -1.526899899
C -0.396695881 -2.628192714 1.399000873
O -0.621738320 -0.262490234 2.742662647
C 2.399364549 1.637834155 -1.003424428
N 3.703366263 2.677233166 -2.687165076
H -4.441150075 1.714376302 -0.653794368
H -5.102735746 -0.951360980 0.855085198
H 1.526933026 -3.219933616 0.987400004
H -1.656366056 -4.117087726 2.038113599
H 2.982445214 1.186466513 0.921873183
H 5.455895625 3.054472144 -2.009649826

