8

O 5.590999837 0.755793942 1.133277223
C 4.101570845 0.246362140 -0.498730320
C 1.390452300 0.939290959 -0.399786774
H 0.711304516 1.661502067 1.395518467
C -0.004417651 1.414591472 -2.721582280
H -0.536793657 2.668211066 -4.242514518
N -0.422221659 -0.744118892 -1.922035471
H 4.671617917 -0.805650038 -2.224784771

