12

C 3.948172421 0.158675144 1.236554686
C 3.297109464 -0.598337539 -1.472486010
C 2.077724281 1.507851403 -2.918219999
C -0.190241450 1.414875631 -3.970421527
H -1.349489954 -0.273809902 -3.862941993
H -0.971749273 3.015102327 -4.979823423
H 3.173265714 3.243290971 -3.067308241
H 2.049737909 -2.245430615 -1.469555102
H 5.030471617 -1.171366883 -2.448218826
H 4.877944811 -1.386233278 2.237517179
H 2.247561564 0.673281167 2.285168456
H 5.218418505 1.786091238 1.268056723

