14

C 4.370340884 0.300042248 1.019132814
N 2.002438064 1.596924948 0.578715605
C -0.061444502 0.532936518 -0.318648170
O -0.147596605 -1.914794438 -0.900299503
C -2.767660738 -1.330879383 -1.747296748
C -4.259742698 -0.425853524 0.391017727
C -2.498468836 1.458545519 -1.013563526
H 5.810026805 0.910890530 -0.325236776
H 5.035232858 0.659469990 2.935709641
H 4.068839201 -1.720083143 0.789999326
H -3.305196074 -2.208452057 -3.509801918
H -3.809193382 -1.124130627 2.270062798
H -6.258202265 -0.119543564 0.061724899
H 1.878991498 3.476981231 0.837645539

