9

C -3.115518953 0.813666180 0.968695740
O -3.320944749 0.660810505 -1.728157999
C -1.320296766 1.366204449 -3.027377534
N 0.653673161 2.294383800 -2.303095815
N 2.920929848 2.786011528 -2.025820931
H 3.123030312 4.710674002 -2.015757988
H -4.897270227 0.128501736 1.726474707
H -1.559409311 -0.367189527 1.630256202
H -2.803821668 2.773249811 1.538233286

