13

C -4.334841699 0.813183242 0.142242520
O -2.601230630 -1.220206382 0.322207186
C -0.157651687 -0.616079422 0.068973548
N 0.642338583 1.709921386 -0.305580563
N 3.171499557 1.473905251 -0.452144943
C 3.956134404 -0.927917756 -0.177872682
C 1.841039618 -2.379584370 0.169452233
H -6.203273766 -0.012275472 0.378131930
H -3.984436435 2.214460422 1.616711420
H -4.197004414 1.740719254 -1.696777113
H 4.223052834 3.022249063 -0.733889937
H 5.929608693 -1.429045307 -0.250122544
H 1.714764924 -4.389329911 0.450345716

