13

N -4.236601168 1.273551744 -0.416880896
C -1.735175648 0.343375048 -0.080448098
C -0.643671936 -1.898623182 -0.330891252
N 1.991015653 -1.984816652 0.096536905
C 3.335138142 0.107364506 0.363453066
O 5.701668586 -0.546983608 1.010630974
C -1.145987823 2.789988967 0.718229399
H -4.947026830 1.280940271 -2.180945355
H -5.491852578 0.980758958 0.976959569
H -1.590396776 -3.628706358 -0.846197041
H 2.809927486 -3.694699166 0.380146416
H 6.651265318 0.986425170 1.162677790
H -0.674576914 4.045247463 -0.857676428

