12

C 3.487616723 0.924668617 -1.409847353
C 0.744510406 1.435946493 -0.813149869
O -0.192855168 3.494702326 -1.173767081
C -0.697916506 -0.710720893 0.228418756
C -3.132522935 -0.419424959 0.825891783
O -4.678472918 -2.175243125 1.779631512
H 3.643663163 -0.614040067 -2.778212269
H 4.483354236 0.327690755 0.297976588
H 4.363646926 2.620951227 -2.169684174
H 0.251076118 -2.510751111 0.493637263
H -3.785876978 -3.744688564 1.992817412
H -4.069117047 1.382699283 0.558384174

