14

N 5.149130034 1.237656056 0.039594940
C 2.800920711 0.872675959 -0.110617197
C 1.722601694 -1.757584191 0.059462236
H 3.188015707 -3.063126561 -0.551583504
H 1.368099410 -2.172535204 2.059384848
C -0.683129569 -2.045807733 -1.406007883
H -1.146136393 -3.876305645 -2.197967138
C -2.206355482 -0.084687037 -1.669510783
H -3.988738662 -0.208635685 -2.668841365
C -1.489456960 2.403360413 -0.539365120
H -2.257782318 2.576995611 1.379187907
H -2.237839226 3.971198091 -1.646124478
O 1.172376960 2.817238156 -0.440923523
H 5.547163803 3.115380549 -0.084296827

