12

O -2.673634504 1.003237118 -2.693515614
C -3.196329802 -0.455332307 -0.573673703
C -1.010923900 -0.632060684 1.182610413
N 1.033748655 0.803224631 2.145039973
N 3.069722234 0.769185807 0.364333339
C 2.736261237 0.454681768 -2.018070238
N 0.166567094 -1.954624403 2.710326164
H -0.875079747 0.743589315 -3.082986354
H -3.752627719 -2.401914300 -1.030597045
H -4.755121116 0.415565099 0.472330658
H 4.718659059 1.145045719 1.266808087
H 4.570602324 0.622808698 -2.969834202

