13

O 4.718235779 1.798308507 -0.760891931
C 2.588789808 0.916996462 -0.531480880
C 2.464207893 -1.715429371 -1.275335117
C -1.751909457 -1.706280961 0.568094872
C -1.967756941 1.088404448 -0.022895034
N 0.509232228 2.228940090 0.180791686
H -0.415454002 -2.615941846 -0.843477649
H 3.266439511 -2.893700122 0.229915740
H -3.517824354 -2.709726591 0.217701193
H -1.125869402 -2.059672615 2.494463693
H -2.757060584 1.337554500 -1.922232513
H -3.248106257 2.003921764 1.310911214
H 0.695160888 4.122036484 0.224627587

