14

O -2.820031096 1.138836967 1.865449852
C -2.172972562 0.733178209 -0.419816983
C 0.327542620 2.111249534 -0.976302493
C 1.833180265 0.828765395 1.131872476
C 1.520926683 -1.794042412 0.908914897
C -0.340410729 -2.539173158 -0.816699361
H -0.275488262 0.969680325 2.520473600
H -3.649045802 0.415896954 -1.820122239
H 0.118826357 4.136368469 -0.664083983
H 1.074382302 1.766876239 -2.870032852
H 3.437648244 1.681550134 2.074707295
H 2.247110827 -3.048818272 2.361669237
H -0.061090480 -2.024408833 -2.781675627
H -1.241661180 -4.367293304 -0.576590041

