17

C 4.231030237 0.843644947 2.272277406
C 1.558124883 0.952537221 1.218977947
C 0.887686507 -1.391534546 -0.335570195
O 1.079426283 -3.636679963 1.107369758
H -0.353707806 -3.695397080 2.222158581
C -1.705852919 -1.164280372 -1.487559713
C -2.174513407 -0.802210566 -3.922756587
H -4.079417321 -0.590471535 -4.646441550
H -0.634083976 -0.707591563 -5.258372399
O -3.515670009 -1.356464895 0.334938460
H -5.161739874 -1.318729918 -0.425633352
H 2.250431435 -1.600053824 -1.871853019
H 0.184348056 1.141456789 2.753505839
H 1.325892812 2.614986571 0.012038992
H 4.485663727 -0.824342736 3.454708843
H 5.624597826 0.753078424 0.750775660
H 4.647567505 2.511634652 3.410817837

