19

C 4.184765281 0.791946802 2.546161007
C 1.343102245 0.797369296 2.104427283
C 0.634459200 -0.342792710 -0.436698643
O 1.287826490 -2.926738129 -0.599652259
C -2.170738831 -0.111091103 -1.077578547
C -2.972461224 -0.661391275 -3.586662277
O -3.697713223 -0.466654827 0.922590882
H 4.957867905 -1.116018468 2.439693799
H 5.156197477 1.941970835 1.133363810
H 4.639304130 1.563372143 4.402949432
H 0.375789066 -0.258875396 3.597855729
H 0.599296461 2.720992666 2.180251466
H 1.675176636 0.592642830 -1.953857401
H 0.487319096 -3.808093430 0.771641317
H -2.150377126 3.002664754 -1.003126645
H -4.979487506 -0.842923846 -3.945502219
H -2.529045133 1.937084834 -2.714023432
H -1.649605826 -1.585829459 -4.833698631
H -5.313972507 -1.036364981 0.313397736

