14

C -3.351911030 1.499707969 -0.010007876
C -1.990214428 -1.043686384 -0.158908563
C 0.764707572 -0.819572028 0.398055331
C 2.819321712 -0.653456957 -1.237240487
N 5.007018548 -0.454428545 0.350544498
N 4.140113623 -0.387268340 2.680586712
N 1.670014301 -0.682178167 2.743244475
H -5.367404116 1.266017690 -0.374266174
H -3.126703977 2.333823896 1.861244796
H -2.603048925 2.829593205 -1.398770572
H -2.808629792 -2.352913607 1.208810256
H -2.243184826 -1.876925592 -2.030288735
H 3.018461183 -1.048108892 -3.228606287
H 4.071337324 1.383431816 -0.847549253

