12

C -2.068228029 1.439498781 -0.058929824
C -0.856318149 -1.072353227 0.512421008
N 0.161836221 -2.498593161 -1.665944889
C 2.447873573 -1.916326628 -0.317401008
C 3.670674889 0.378520325 -1.197832025
N 4.878784000 2.054173172 -1.890709311
H -0.806535261 2.652191876 -1.150876752
H -3.795228930 1.142360966 -1.148050610
H -2.567277713 2.423029022 1.680507251
H -1.925848126 -2.339991754 1.731199381
H -0.051328571 -1.375805486 -3.214968360
H 0.940106376 -0.801450783 1.802707090

