16

C 2.612164038 -2.140833726 -0.044242419
C 1.148184309 0.299604436 0.044782975
O 2.933760067 2.266143204 0.326260100
C -0.788836200 0.838339654 -2.083855214
N -2.847295176 1.106421682 -0.177223713
C -3.314176279 -1.131541623 1.538054839
C -1.083423791 0.482174865 1.938050125
H 1.341763979 -3.750877946 -0.222416097
H 3.719723751 -2.349978957 1.680928811
H 3.906022779 -2.134968167 -1.650387398
H 2.080518770 3.793100229 0.807655793
H -1.207205520 -0.656136986 -3.437793054
H -0.383552288 2.604374114 -3.064728141
H -2.877779047 -2.829430556 0.440599567
H -4.073557450 2.563893516 -0.182210171
H -0.901606645 1.720057348 3.573291387

