15

C -2.016585801 1.514015576 0.781615178
O -2.009581191 2.170110856 -1.957971732
C -0.704366765 0.587586811 -3.140920878
C 0.215417704 -1.557729628 -1.728650518
C -0.473320213 -0.915010832 1.010658469
C 2.105155980 -0.157384858 2.250278046
O 3.287828830 1.379377428 0.623558239
H -4.001969995 1.427991086 1.310015106
H -1.045773133 3.109761354 1.649308912
H -0.438465821 0.961535984 -5.144316618
H 2.306126161 -1.370513157 -1.866020134
H -0.441646305 -3.339949139 -2.541236569
H -1.530293715 -2.420193753 1.946190196
H 1.634092006 0.690760000 4.121055905
H 3.118966437 -1.949367563 2.699220413

