18

C 4.025722851 -0.045283847 0.076706988
C 1.845595407 -1.883239432 0.432657955
C -0.710431330 -0.710097170 0.851242137
C -2.942455302 -2.462418398 0.920720942
C -1.773052431 3.381429308 -2.394102814
C -0.929257345 1.630829885 1.916827122
N -1.258176536 3.809768162 2.225876258
H 3.808854479 1.043863301 -1.661894431
H 5.813297467 -1.063678099 -0.044157287
H 4.160325813 1.284053576 1.648246319
H 2.246350477 -3.129836879 2.044250447
H 1.699752052 -3.138517883 -1.203812592
H -2.787760621 -3.783908318 2.507716494
H -4.718992255 -1.441100740 1.119144641
H -3.015966744 -3.587852823 -0.806517762
H -3.327750031 2.531501078 -1.427304151
H 0.157314201 3.192060590 -1.841260772
H -2.169356912 4.352627178 -4.161377237

