17

C 4.800046955 -1.058325148 0.244754096
N 2.116854859 -0.909502035 0.733744825
C 0.674377643 -0.569745227 -1.243171827
O 1.051673671 -0.411424407 -3.510029441
N -1.968325201 -0.127691610 -0.359873434
C -2.619789971 -0.766403922 1.911370972
C -3.415047025 1.669643782 -1.853919802
H 5.233197260 -2.663712422 -0.982975777
H 5.514759706 0.638959696 -0.697833849
H 5.801837431 -1.303211525 2.027815669
H 0.923541812 0.457706351 2.922922885
H -0.309168038 1.073549141 3.875926585
H -1.667361182 -2.340459121 2.786223083
H -4.412377067 -0.107990232 2.651310414
H -3.504294784 0.985510958 -3.788331052
H -5.307370616 1.856515416 -1.071060806
H -2.464013818 3.498668767 -1.856634790

