12

O -3.027701225 -2.961045445 3.045438818
C -1.943457426 -1.606842287 1.624513003
C -1.003975340 0.837257654 1.319808668
C 1.670379528 1.522964847 0.758310962
C 1.047050002 1.175635264 -1.989058822
C 1.005321089 -1.238160594 -2.787425799
N 0.369057654 -3.369873803 -2.367973685
H -1.228404978 -2.919022679 -0.707533681
H -2.419766486 2.296138770 1.076380820
H 3.062626085 0.199864956 1.482482113
H 2.153816390 3.446252507 1.284952273
H 0.379637985 2.733164222 -3.124608876

