10

O 2.929499510 5.532449980 1.527861826
C 2.698011121 3.554391669 0.631194150
C -3.181017559 -2.330568578 -0.495669928
C -1.033539141 -1.275540020 0.212448661
O 0.154893424 0.487691277 -1.261317846
C 2.481188651 1.301958013 -0.409739905
H -4.073982185 -1.844357618 -2.269537756
H -4.076457613 -3.702776555 0.720679277
H -0.080271560 -1.703187744 1.978596769
H 4.153930394 0.172024566 -0.733175961

