15

O 3.754222232 1.437601137 -0.963561770
C 1.415694827 0.276637442 -0.658108121
C 1.245135158 -2.236577097 0.718930298
C -1.286024031 -2.555753993 1.887558401
C -2.529326816 -0.038693654 1.635541293
C -0.983365476 1.682625521 -0.050845368
C -0.483103098 0.696230322 -2.681985091
H 4.358895229 1.968240088 0.662319092
H 2.502911960 -2.282309263 2.384141879
H 1.812019264 -3.895558062 -0.376852018
H -1.577993294 -0.890824832 -3.379324210
H -4.513733964 -0.276947811 1.095818958
H -2.637460309 0.633604383 3.603681150
H -0.971703693 3.709608217 0.224875122
H 0.019886174 2.089207995 -4.090711439

