10

C 0.071789770 1.438884695 -1.194688144
C 2.894895412 -1.193184716 0.006817981
N 1.284213541 -2.874667613 0.371524332
N -1.003396138 -3.079860237 0.051916503
C -1.934735281 -0.448247988 -0.393238684
C -1.048789949 1.745367433 1.004073076
H 0.877404356 2.481602501 -2.745983841
H 4.153545607 -0.554121916 1.494421290
H -3.840154995 -0.521566262 -1.140207283
H -1.459373805 3.010524087 2.545455458

