17

C 4.363233795 0.068621984 0.184676774
C 1.558510217 -0.239905305 0.116635729
C 0.210336174 -2.152103278 0.998060402
C -2.611911060 -1.920553472 0.798475693
C -3.142006620 0.421113902 -0.770737593
C 0.117277084 1.965418821 -0.950618903
O 0.026107908 4.099186861 0.372686911
H 4.848935795 1.776414329 1.236041418
H 5.136115490 0.276804891 -1.720355585
H 5.267036056 -1.549492766 1.081015260
H 1.062466124 -3.793806590 1.881042890
H -3.454213073 -1.779473342 2.680875973
H -3.440572501 -3.596813545 -0.079645229
H -3.418036855 0.078749876 -2.775477949
H -4.788477504 1.513488305 -0.116787493
H 0.297704770 2.158891533 -3.019333915
H -2.045151846 2.588395573 0.056258110

