13

N 3.021674227 -0.511191590 1.984977770
C 4.495650362 -1.936887736 2.783663449
C 1.213672427 1.180749694 0.971954100
C 0.702315032 1.039972581 -1.895473179
C -1.999237038 0.409143432 -1.160071404
C -2.067755730 -1.827915129 0.467287923
N -1.458700553 0.608747303 1.632439025
H 1.673752822 3.074384623 1.628651409
H 1.724074301 -0.400359512 -2.953451486
H 0.932715506 2.866634652 -2.808536742
H -3.675367646 1.252849813 -1.971899164
H -0.605630559 -3.258256241 0.315493953
H -3.895902030 -2.520824504 1.065329777

