17

C -2.793914400 -0.905861987 1.602173039
C -3.585385918 0.558058877 -0.547750761
C -0.642675257 0.133091124 0.107333666
C 1.131744882 2.064165401 1.278038842
C 3.648096441 1.348152368 0.241787585
C 3.397831375 -0.492101671 -1.498883538
C 0.801721033 -1.263252907 -1.677803110
H -1.756396876 -3.821872764 0.854948400
H -3.131243043 -0.053732189 3.447572576
H -4.482803796 2.401459424 -0.358775314
H -3.968298930 -0.373210270 -2.330627972
H 0.589079525 3.959286052 0.637329770
H 1.077444074 2.092535954 3.344846421
H 5.402427903 2.225015733 0.816568724
H 4.913357900 -1.302132283 -2.605354051
H 0.030592757 -2.258510827 -3.282222579
H -0.603690963 -4.502678027 -0.013251327

