16

C 4.042844128 0.165705889 -0.502789887
C 1.297448125 -0.563290168 -0.552026833
C 0.449309579 -2.361296848 1.481536211
C -4.200134821 2.324496453 0.622215192
N -3.019753075 1.260427275 -1.279514888
C -0.511281787 1.077320467 -1.815179282
O 0.314564850 -1.133848147 -3.042396775
H 5.235231965 -1.511437102 -0.673490322
H 4.502836197 1.100807646 1.279117744
H 4.464021808 1.452912813 -2.050702444
H 0.615995234 -1.475542982 3.341102344
H 1.627400032 -4.056294764 1.480306661
H -1.511003523 -2.924796095 1.207511750
H -3.107378957 3.016254758 2.197492401
H -6.196924116 2.686142639 0.459388018
H -4.121366671 0.673821175 -2.735321722

