12

O 6.575245888 0.706705433 3.102626504
C 5.053949745 1.750569641 1.318133218
C 2.709566456 1.133480179 0.858073762
C 0.395131093 0.535215206 0.408622188
C -2.279359665 0.700201260 0.851898175
H -3.375725755 0.219750903 2.504639528
C -2.975982237 0.590559256 -1.830220047
H -2.305764127 2.056358149 -3.100767940
H -4.775604746 -0.257571693 -2.322566344
N -1.120657329 -1.280288637 -0.894440653
H 6.031430236 3.214255744 0.270573519
H 5.654647476 -0.602355682 3.962899265

