14

C -3.866520020 1.286709548 -0.118916686
O -1.966426688 -0.312318117 -1.096978286
C -0.482298717 -1.395682023 0.750389476
C 2.076636687 -1.813096596 0.233348730
C 3.511260711 0.231171860 -1.015783992
O 3.540832355 1.367193097 1.374799358
H -5.111802463 0.257512450 1.177977239
H -3.038981454 2.901743949 0.875034583
H -4.969880195 1.957625137 -1.719746450
H -1.460533663 -2.586584894 2.111134223
H 0.987362549 0.358650989 1.845865789
H 3.138693779 -3.161458611 1.344247154
H 2.465600735 1.244585909 -2.479279328
H 5.385014738 -0.309982019 -1.695825465

