10

C 3.631250742 -0.399548385 0.245406638
O 1.662327235 -1.897578504 1.243638155
C 0.223348601 -3.109380272 -0.484626916
C -1.619728746 -4.676062497 0.152544381
H -2.052184235 -5.070723747 2.111957218
H -2.722255060 -5.583016028 -1.305624762
H 0.673532274 -2.702037806 -2.450612391
H 2.893244358 1.079656301 -0.998932775
H 4.994494917 -1.552166955 -0.799824844
H 4.578906536 0.480141425 1.843822372

