15

O 4.521889928 -1.625067694 1.981306391
C 2.301349387 -0.529197411 1.308325181
C 2.075068460 1.979719248 1.196309472
H 3.665584553 3.174025025 1.672752363
C -0.292131136 3.089069930 0.307000957
H -0.298847185 5.078838572 -0.181160088
C -2.399491312 1.725812055 0.109897212
H -4.152618319 2.575117866 -0.519470953
C -2.399177882 -1.000695474 0.913988906
H -2.879017971 -1.096402619 2.931586958
H -3.853900070 -2.071118932 -0.081769508
C 0.177749623 -2.231616169 0.494205315
H 0.268210114 -4.030154674 1.512884878
H 0.449887117 -2.668130034 -1.516262499
H 4.315485102 -3.423654917 2.046754939

