17

O 4.503915344 -1.512408818 0.030792029
C 2.138194837 -0.489979622 0.149335872
C 0.006780526 -2.308941400 0.728089385
C -2.591956573 -1.019974044 0.427067295
C -2.324787244 1.677706941 -0.521265550
C -0.404835234 3.171192231 0.463567676
C 1.929726052 2.035961201 0.844079168
H 4.374992048 -3.288719420 -0.306993511
H 0.883247049 -0.031060389 -2.611540938
H 0.257906874 -2.975169674 2.667564761
H 0.170073386 -3.963092357 -0.503613354
H -3.556111301 -0.974168160 2.252326849
H -3.797407633 -2.102718082 -0.848202305
H -0.671195571 0.709511487 -2.735835879
H -4.060419810 2.569708071 -1.153621032
H -0.568017129 5.212127248 0.464283221
H 3.627978549 3.130524361 1.159984004

