16

C 3.062326923 2.484982219 0.135860159
C 1.149815728 0.397041077 -0.075145054
C -0.748695771 -0.271970933 2.093370363
C -2.084495321 -1.634395987 -0.103364920
C -1.251035979 0.582077353 -1.793946528
C 2.122381873 -2.263438609 -0.785655734
N -0.053991762 -3.447992832 -0.764037891
H 4.049989693 2.735422388 -1.657778872
H 4.476856205 2.022723084 1.564119510
H 2.177355688 4.277826432 0.650918942
H -1.766143478 1.383805018 2.780326967
H -0.075710158 -1.437654200 3.653737312
H -0.311940096 -5.293690473 -1.135365125
H -3.983567067 -2.418357544 -0.029768213
H -1.037537405 0.200921918 -3.807912186
H -2.316707531 2.316268076 -1.468948953

