10

C -4.088288168 0.070406093 0.968935509
C -1.382703365 0.115175255 0.063103001
C -0.227612466 -2.404515905 -0.615431302
H 1.790507623 -2.191118639 -0.940788114
H -0.568434494 -3.793634077 0.871996054
H -1.121948107 -3.125233959 -2.332508779
O -0.206958742 2.058190050 -0.107374106
H -4.167046435 -0.832249936 2.825535207
H -4.819357594 1.985853242 1.112885944
H -5.269433098 -1.051270479 -0.297995977

