14

C -3.443829368 0.117734114 1.161088209
C -0.828576970 -0.022205208 0.056037088
C 0.230091655 -2.240988114 -1.009262755
O 3.753971749 -0.425140398 0.379914338
C 3.196484136 1.733947194 -0.655287497
O 0.232175021 2.155207247 -0.650744690
H -4.031037951 -1.697005127 1.940734292
H -3.496452761 1.548209774 2.638167142
H -4.779733212 0.655534427 -0.312831196
H 0.627676576 -0.893279057 1.593781955
H -0.337919106 -4.042946627 -0.215266696
H 1.462319869 -2.280244000 -2.631973640
H 3.811099549 3.406345838 0.402927423
H 3.628765885 1.948826874 -2.684743751

