13

O 3.403768554 1.197529310 1.505575304
C 1.907629673 1.117640325 -0.564435569
C 0.910815640 -1.226348351 -1.380672155
C -3.281822222 -1.358183696 0.690380864
C -2.567505236 1.039259040 1.351720171
N -1.502487019 2.961887148 1.639853800
H 2.758437363 2.548163115 2.546690678
H 3.123739356 -0.484828947 -2.179910900
H 1.678296819 2.804586175 -1.699384349
H 1.309898755 -2.914431325 -0.310594328
H -0.065529296 -1.329135412 -3.166444804
H -3.197134108 -2.791741215 2.149198334
H -4.796319300 -1.554939958 -0.673373631

