11

C -3.663732262 0.263297355 -0.426449770
C -1.076992751 -0.871850035 -0.313707992
O -0.510327645 -2.973897718 -0.915079788
O 0.610240054 0.856823368 0.601848385
C 3.081775871 0.140432994 0.863618048
N 4.612823832 1.740227245 1.686991393
H -4.254678496 0.803968465 1.472712702
H -3.623214588 1.976691264 -1.569487561
H -4.979284492 -1.098996533 -1.217271203
H 3.436904297 -1.808100444 0.307794793
H 6.366486180 0.971404058 1.793059037

