11

C -2.598470175 0.629336247 -0.596719763
C -0.550537654 -1.313279060 -0.554044966
O -0.404278143 -3.244279448 -1.631025850
O 0.441716962 -1.428098422 2.658490693
C 2.384112758 -0.125325484 2.104795571
N 2.456775657 0.496792028 -0.241145494
H -4.349650972 -0.294293569 -0.026668136
H -2.195363908 2.201606808 0.656184796
H -2.797769253 1.300829147 -2.533955322
H 3.767522616 0.365282548 3.552838806
H 3.869178165 1.496669100 -1.037237524

