14

C 1.436795679 -2.238589012 -0.724958506
C -2.643222329 -0.560170268 -0.790087954
C -1.931717956 1.448972885 0.840645895
O -0.776364744 0.844951711 3.165368189
C 1.006301422 1.821304716 1.439574408
C 2.545793455 0.185849179 -0.052559331
H 2.397838935 -3.317474305 -2.179487072
H 0.452526422 -3.358647696 0.662910180
H -3.594340290 -0.023993966 -2.528108321
H -3.289591566 -2.315362084 0.026267552
H -2.871861427 3.273598209 0.768793953
H 1.682428554 3.703141121 1.892426033
H 1.038788819 -0.148494679 -1.911629638
H 4.374348124 0.765575258 -0.749267243

