12

C -2.842017965 -2.480146750 -1.634573848
C -0.949482592 -0.428597104 -2.084255382
C 1.375001219 -0.381771883 -1.153357490
C 3.267394238 1.669804012 -1.603388322
H 3.876957563 2.523896669 0.176274390
H 2.491135451 3.159883429 -2.798684013
H 4.963072910 0.926964729 -2.520646302
H 1.988505567 -1.944254607 0.037176147
H -1.562984579 1.133868821 -3.274831085
H -3.451381999 -3.334201726 -3.414341005
H -4.537881206 -1.737251985 -0.717673460
H -2.066213902 -3.970328572 -0.439114809

