23

C     3.67727  -0.70668  -0.22171
N     2.23334  -0.63445  -0.17679
C     1.58404   0.49489  -0.52244
O     2.11459   1.52874  -0.93778
N     0.22433   0.32182  -0.36104
N    -0.65097   1.16814  -0.46465
N    -1.70431   1.64380  -0.41142
C    -2.56837  -0.67187   0.60263
C    -3.29728  -0.95628  -0.69470
C    -1.43443  -1.20236   0.96706
C    -0.69380  -0.94073   2.26269
H     4.03129  -0.39323  -1.21288
H     3.99641  -1.73514  -0.03645
H     4.13336  -0.04695   0.53217
H     1.70633  -1.42285   0.25257
H    -3.00559   0.10478   1.26312
H    -3.85213  -0.10690  -1.12089
H    -2.61694  -1.34523  -1.47336
H    -4.00160  -1.73075  -0.42264
H    -0.91257  -1.90784   0.26054
H    -0.93584   0.04358   2.68232
H    -1.04671  -1.71509   2.93354
H     0.41387  -1.02456   2.20157
23

C     3.67612  -0.70642  -0.22172
N     2.23192  -0.63737  -0.17534
C     1.57902   0.49073  -0.51896
O     2.10876   1.52403  -0.93599
N     0.21748   0.31796  -0.35265
N    -0.65137   1.17443  -0.46758
N    -1.71407   1.61900  -0.40191
C    -2.55710  -0.65037   0.59124
C    -3.29423  -0.95396  -0.69388
C    -1.41791  -1.18941   0.95675
C    -0.69213  -0.93961   2.25965
H     4.03062  -0.39304  -1.21297
H     3.99666  -1.73489  -0.03650
H     4.13295  -0.04665   0.53203
H     1.70680  -1.42400   0.25330
H    -3.00423   0.10352   1.26379
H    -3.85438  -0.10841  -1.12032
H    -2.61709  -1.34417  -1.47413
H    -3.99753  -1.73128  -0.41854
H    -0.91168  -1.90730   0.25967
H    -0.93458   0.04384   2.68192
H    -1.05072  -1.71490   2.92973
H     0.41402  -1.02718   2.20385
23

C     3.67497  -0.70615  -0.22172
N     2.23051  -0.64029  -0.17389
C     1.57401   0.48657  -0.51548
O     2.10293   1.51932  -0.93420
N     0.21064   0.31410  -0.34427
N    -0.65178   1.18072  -0.47050
N    -1.72382   1.59419  -0.39239
C    -2.54582  -0.62888   0.57985
C    -3.29118  -0.95164  -0.69305
C    -1.40139  -1.17645   0.94644
C    -0.69047  -0.93849   2.25660
H     4.02996  -0.39284  -1.21306
H     3.99691  -1.73464  -0.03655
H     4.13253  -0.04634   0.53189
H     1.70728  -1.42514   0.25403
H    -3.00287   0.10226   1.26446
H    -3.85664  -0.10992  -1.11975
H    -2.61723  -1.34310  -1.47491
H    -3.99346  -1.73181  -0.41445
H    -0.91080  -1.90676   0.25880
H    -0.93332   0.04410   2.68152
H    -1.05473  -1.71472   2.92591
H     0.41417  -1.02981   2.20613
23

C     3.67382  -0.70589  -0.22173
N     2.22909  -0.64322  -0.17243
C     1.56899   0.48241  -0.51200
O     2.09710   1.51461  -0.93241
N     0.20380   0.31024  -0.33588
N    -0.65219   1.18701  -0.47343
N    -1.73358   1.56939  -0.38288
C    -2.53454  -0.60739   0.56846
C    -3.28813  -0.94932  -0.69223
C    -1.38488  -1.16350   0.93613
C    -0.68880  -0.93737   2.25356
H     4.02929  -0.39265  -1.21315
H     3.99717  -1.73439  -0.03660
H     4.13212  -0.04603   0.53175
H     1.70775  -1.42628   0.25476
H    -3.00150   0.10100   1.26513
H    -3.85889  -0.11143  -1.11919
H    -2.61737  -1.34204  -1.47568
H    -3.98939  -1.73233  -0.41036
H    -0.90991  -1.90622   0.25793
H    -0.93205   0.04435   2.68112
H    -1.05873  -1.71454   2.92210
H     0.41432  -1.03243   2.20842
23

C     3.67267  -0.70563  -0.22173
N     2.22767  -0.64614  -0.17098
C     1.56397   0.47826  -0.50851
O     2.09127   1.50990  -0.93062
N     0.19696   0.30638  -0.32749
N    -0.65259   1.19330  -0.47635
N    -1.74334   1.54458  -0.37337
C    -2.52327  -0.58589   0.55707
C    -3.28509  -0.94701  -0.69140
C    -1.36836  -1.15054   0.92581
C    -0.68714  -0.93624   2.25052
H     4.02862  -0.39246  -1.21324
H     3.99742  -1.73415  -0.03665
H     4.13171  -0.04572   0.53161
H     1.70823  -1.42742   0.25549
H    -3.00014   0.09974   1.26581
H    -3.86114  -0.11294  -1.11862
H    -2.61752  -1.34098  -1.47645
H    -3.98531  -1.73286  -0.40627
H    -0.90903  -1.90568   0.25706
H    -0.93079   0.04461   2.68071
H    -1.06274  -1.71435   2.91829
H     0.41447  -1.03506   2.21070
23

C     3.67152  -0.70537  -0.22174
N     2.22626  -0.64906  -0.16953
C     1.55896   0.47410  -0.50503
O     2.08544   1.50519  -0.92883
N     0.19011   0.30252  -0.31911
N    -0.65300   1.19959  -0.47928
N    -1.75309   1.51978  -0.36386
C    -2.51199  -0.56440   0.54568
C    -3.28204  -0.94469  -0.69057
C    -1.35184  -1.13759   0.91550
C    -0.68547  -0.93512   2.24747
H     4.02795  -0.39226  -1.21332
H     3.99767  -1.73390  -0.03670
H     4.13129  -0.04541   0.53148
H     1.70870  -1.42856   0.25621
H    -2.99878   0.09848   1.26648
H    -3.86340  -0.11444  -1.11805
H    -2.61766  -1.33991  -1.47723
H    -3.98124  -1.73339  -0.40218
H    -0.90814  -1.90513   0.25619
H    -0.92953   0.04487   2.68031
H    -1.06675  -1.71417   2.91447
H     0.41462  -1.03768   2.21299
23

C     3.67038  -0.70510  -0.22174
N     2.22484  -0.65198  -0.16808
C     1.55394   0.46994  -0.50155
O     2.07962   1.50048  -0.92704
N     0.18327   0.29865  -0.31072
N    -0.65340   1.20588  -0.48220
N    -1.76285   1.49497  -0.35435
C    -2.50072  -0.54291   0.53429
C    -3.27899  -0.94237  -0.68975
C    -1.33533  -1.12464   0.90519
C    -0.68381  -0.93400   2.24443
H     4.02729  -0.39207  -1.21341
H     3.99793  -1.73365  -0.03675
H     4.13088  -0.04510   0.53134
H     1.70918  -1.42970   0.25694
H    -2.99742   0.09722   1.26715
H    -3.86565  -0.11595  -1.11748
H    -2.61781  -1.33885  -1.47800
H    -3.97717  -1.73391  -0.39808
H    -0.90725  -1.90459   0.25532
H    -0.92827   0.04512   2.67991
H    -1.07076  -1.71398   2.91066
H     0.41477  -1.04030   2.21527
23

C     3.66923  -0.70484  -0.22175
N     2.22342  -0.65490  -0.16662
C     1.54893   0.46578  -0.49807
O     2.07379   1.49577  -0.92525
N     0.17643   0.29479  -0.30233
N    -0.65381   1.21217  -0.48513
N    -1.77261   1.47017  -0.34484
C    -2.48944  -0.52141   0.52290
C    -3.27595  -0.94005  -0.68892
C    -1.31881  -1.11168   0.89488
C    -0.68214  -0.93287   2.24138
H     4.02662  -0.39188  -1.21350
H     3.99818  -1.73340  -0.03680
H     4.13047  -0.04479   0.53120
H     1.70965  -1.43084   0.25767
H    -2.99606   0.09596   1.26782
H    -3.86791  -0.11746  -1.11691
H    -2.61795  -1.33779  -1.47878
H    -3.97310  -1.73444  -0.39399
H    -0.90637  -1.90405   0.25445
H    -0.92700   0.04538   2.67951
H    -1.07477  -1.71380   2.90685
H     0.41492  -1.04293   2.21755
23

C     3.66808  -0.70458  -0.22176
N     2.22201  -0.65783  -0.16517
C     1.54391   0.46162  -0.49458
O     2.06796   1.49106  -0.92346
N     0.16958   0.29093  -0.29395
N    -0.65422   1.21846  -0.48805
N    -1.78236   1.44536  -0.33533
C    -2.47816  -0.49992   0.51151
C    -3.27290  -0.93774  -0.68809
C    -1.30229  -1.09873   0.88456
C    -0.68048  -0.93175   2.23834
H     4.02595  -0.39169  -1.21359
H     3.99843  -1.73316  -0.03685
H     4.13005  -0.04448   0.53106
H     1.71013  -1.43198   0.25840
H    -2.99470   0.09470   1.26849
H    -3.87016  -0.11897  -1.11635
H    -2.61809  -1.33673  -1.47955
H    -3.96903  -1.73497  -0.38990
H    -0.90548  -1.90351   0.25358
H    -0.92574   0.04564   2.67911
H    -1.07878  -1.71361   2.90304
H     0.41507  -1.04555   2.21984
23

C     3.66693  -0.70432  -0.22176
N     2.22059  -0.66075  -0.16372
C     1.53889   0.45746  -0.49110
O     2.06213   1.48635  -0.92167
N     0.16274   0.28707  -0.28556
N    -0.65462   1.22475  -0.49098
N    -1.79212   1.42056  -0.32582
C    -2.46689  -0.47843   0.50012
C    -3.26985  -0.93542  -0.68727
C    -1.28578  -1.08578   0.87425
C    -0.67882  -0.93063   2.23530
H     4.02528  -0.39149  -1.21368
H     3.99868  -1.73291  -0.03689
H     4.12964  -0.04417   0.53092
H     1.71060  -1.43312   0.25913
H    -2.99334   0.09343   1.26916
H    -3.87241  -0.12048  -1.11578
H    -2.61824  -1.33566  -1.48032
H    -3.96496  -1.73550  -0.38581
H    -0.90460  -1.90297   0.25271
H    -0.92448   0.04589   2.67870
H    -1.08279  -1.71343   2.89922
H     0.41522  -1.04818   2.22212
23

C     3.66578  -0.70405  -0.22177
N     2.21917  -0.66367  -0.16226
C     1.53388   0.45331  -0.48762
O     2.05630   1.48164  -0.91988
N     0.15590   0.28321  -0.27717
N    -0.65503   1.23104  -0.49390
N    -1.80188   1.39575  -0.31630
C    -2.45561  -0.45694   0.48873
C    -3.26680  -0.93310  -0.68644
C    -1.26926  -1.07282   0.86394
C    -0.67715  -0.92951   2.23225
H     4.02462  -0.39130  -1.21377
H     3.99894  -1.73266  -0.03694
H     4.12922  -0.04387   0.53079
H     1.71108  -1.43426   0.25986
H    -2.99197   0.09217   1.26983
H    -3.87467  -0.12198  -1.11521
H    -2.61838  -1.33460  -1.48110
H    -3.96089  -1.73602  -0.38171
H    -0.90371  -1.90243   0.25184
H    -0.92322   0.04615   2.67830
H    -1.08679  -1.71325   2.89541
H     0.41537  -1.05080   2.22440
23

C     3.66463  -0.70379  -0.22177
N     2.21776  -0.66659  -0.16081
C     1.52886   0.44915  -0.48414
O     2.05047   1.47693  -0.91809
N     0.14906   0.27935  -0.26879
N    -0.65543   1.23733  -0.49683
N    -1.81163   1.37095  -0.30679
C    -2.44434  -0.43544   0.47734
C    -3.26376  -0.93078  -0.68561
C    -1.25274  -1.05987   0.85363
C    -0.67549  -0.92838   2.22921
H     4.02395  -0.39111  -1.21386
H     3.99919  -1.73241  -0.03699
H     4.12881  -0.04356   0.53065
H     1.71155  -1.43540   0.26058
H    -2.99061   0.09091   1.27050
H    -3.87692  -0.12349  -1.11464
H    -2.61852  -1.33354  -1.48187
H    -3.95682  -1.73655  -0.37762
H    -0.90282  -1.90189   0.25097
H    -0.92195   0.04641   2.67790
H    -1.09080  -1.71306   2.89160
H     0.41552  -1.05343   2.22669
23

C     3.66348  -0.70353  -0.22178
N     2.21634  -0.66951  -0.15936
C     1.52385   0.44499  -0.48066
O     2.04464   1.47222  -0.91630
N     0.14221   0.27548  -0.26040
N    -0.65584   1.24362  -0.49975
N    -1.82139   1.34614  -0.29728
C    -2.43306  -0.41395   0.46595
C    -3.26071  -0.92847  -0.68479
C    -1.23623  -1.04691   0.84331
C    -0.67382  -0.92726   2.22616
H     4.02328  -0.39091  -1.21395
H     3.99944  -1.73216  -0.03704
H     4.12840  -0.04325   0.53051
H     1.71203  -1.43654   0.26131
H    -2.98925   0.08965   1.27118
H    -3.87918  -0.12500  -1.11408
H    -2.61867  -1.33247  -1.48264
H    -3.95275  -1.73708  -0.37353
H    -0.90194  -1.90135   0.25010
H    -0.92069   0.04667   2.67750
H    -1.09481  -1.71288   2.88778
H     0.41567  -1.05605   2.22897
23

C     3.66234  -0.70327  -0.22178
N     2.21492  -0.67244  -0.15791
C     1.51883   0.44083  -0.47717
O     2.03881   1.46751  -0.91451
N     0.13537   0.27162  -0.25202
N    -0.65625   1.24991  -0.50268
N    -1.83115   1.32134  -0.28777
C    -2.42178  -0.39246   0.45456
C    -3.25766  -0.92615  -0.68396
C    -1.21971  -1.03396   0.83300
C    -0.67216  -0.92614   2.22312
H     4.02262  -0.39072  -1.21403
H     3.99969  -1.73192  -0.03709
H     4.12798  -0.04294   0.53037
H     1.71250  -1.43768   0.26204
H    -2.98789   0.08839   1.27185
H    -3.88143  -0.12651  -1.11351
H    -2.61881  -1.33141  -1.48342
H    -3.94868  -1.73760  -0.36944
H    -0.90105  -1.90080   0.24923
H    -0.91943   0.04692   2.67709
H    -1.09882  -1.71269   2.88397
H     0.41582  -1.05868   2.23125
23

C     3.66119  -0.70300  -0.22179
N     2.21351  -0.67536  -0.15645
C     1.51381   0.43667  -0.47369
O     2.03298   1.46280  -0.91272
N     0.12853   0.26776  -0.24363
N    -0.65665   1.25620  -0.50560
N    -1.84090   1.29653  -0.27826
C    -2.41051  -0.37096   0.44317
C    -3.25461  -0.92383  -0.68314
C    -1.20319  -1.02101   0.82269
C    -0.67049  -0.92501   2.22007
H     4.02195  -0.39053  -1.21412
H     3.99995  -1.73167  -0.03714
H     4.12757  -0.04263   0.53023
H     1.71298  -1.43882   0.26277
H    -2.98653   0.08713   1.27252
H    -3.88368  -0.12801  -1.11294
H    -2.61895  -1.33035  -1.48419
H    -3.94461  -1.73813  -0.36534
H    -0.90017  -1.90026   0.24836
H    -0.91817   0.04718   2.67669
H    -1.10283  -1.71251   2.88016
H     0.41597  -1.06130   2.23354
23

C     3.66004  -0.70274  -0.22179
N     2.21209  -0.67828  -0.15500
C     1.50880   0.43251  -0.47021
O     2.02716   1.45809  -0.91093
N     0.12169   0.26390  -0.23524
N    -0.65706   1.26249  -0.50853
N    -1.85066   1.27173  -0.26875
C    -2.39923  -0.34947   0.43178
C    -3.25157  -0.92152  -0.68231
C    -1.18668  -1.00805   0.81238
C    -0.66883  -0.92389   2.21703
H     4.02128  -0.39034  -1.21421
H     4.00020  -1.73142  -0.03719
H     4.12716  -0.04232   0.53009
H     1.71345  -1.43996   0.26350
H    -2.98517   0.08587   1.27319
H    -3.88594  -0.12952  -1.11237
H    -2.61910  -1.32929  -1.48496
H    -3.94054  -1.73866  -0.36125
H    -0.89928  -1.89972   0.24749
H    -0.91690   0.04744   2.67629
H    -1.10684  -1.71232   2.87634
H     0.41612  -1.06393   2.23582
23

C     3.65889  -0.70248  -0.22180
N     2.21067  -0.68120  -0.15355
C     1.50378   0.42836  -0.46673
O     2.02133   1.45338  -0.90914
N     0.11484   0.26004  -0.22686
N    -0.65746   1.26878  -0.51145
N    -1.86042   1.24692  -0.25924
C    -2.38796  -0.32798   0.42039
C    -3.24852  -0.91920  -0.68148
C    -1.17016  -0.99510   0.80206
C    -0.66716  -0.92277   2.21399
H     4.02061  -0.39014  -1.21430
H     4.00045  -1.73117  -0.03724
H     4.12674  -0.04201   0.52996
H     1.71393  -1.44110   0.26422
H    -2.98380   0.08461   1.27386
H    -3.88819  -0.13103  -1.11181
H    -2.61924  -1.32822  -1.48574
H    -3.93647  -1.73919  -0.35716
H    -0.89840  -1.89918   0.24662
H    -0.91564   0.04769   2.67589
H    -1.11085  -1.71214   2.87253
H     0.41628  -1.06655   2.23810
23

C     3.65774  -0.70222  -0.22180
N     2.20926  -0.68412  -0.15210
C     1.49877   0.42420  -0.46324
O     2.01550   1.44867  -0.90735
N     0.10800   0.25618  -0.21847
N    -0.65787   1.27507  -0.51438
N    -1.87017   1.22212  -0.24973
C    -2.37668  -0.30648   0.40900
C    -3.24547  -0.91688  -0.68066
C    -1.15364  -0.98215   0.79175
C    -0.66550  -0.92164   2.21094
H     4.01995  -0.38995  -1.21439
H     4.00071  -1.73093  -0.03729
H     4.12633  -0.04170   0.52982
H     1.71440  -1.44224   0.26495
H    -2.98244   0.08335   1.27453
H    -3.89044  -0.13254  -1.11124
H    -2.61939  -1.32716  -1.48651
H    -3.93240  -1.73971  -0.35307
H    -0.89751  -1.89864   0.24575
H    -0.91438   0.04795   2.67549
H    -1.11485  -1.71196   2.86872
H     0.41643  -1.06918   2.24039
23

C     3.65659  -0.70195  -0.22181
N     2.20784  -0.68705  -0.15064
C     1.49375   0.42004  -0.45976
O     2.00967   1.44396  -0.90556
N     0.10116   0.25231  -0.21008
N    -0.65827   1.28137  -0.51730
N    -1.87993   1.19731  -0.24022
C    -2.36540  -0.28499   0.39761
C    -3.24243  -0.91456  -0.67983
C    -1.13712  -0.96919   0.78144
C    -0.66383  -0.92052   2.20790
H     4.01928  -0.38976  -1.21448
H     4.00096  -1.73068  -0.03734
H     4.12592  -0.04140   0.52968
H     1.71488  -1.44338   0.26568
H    -2.98108   0.08209   1.27520
H    -3.89270  -0.13405  -1.11067
H    -2.61953  -1.32610  -1.48728
H    -3.92833  -1.74024  -0.34898
H    -0.89662  -1.89810   0.24488
H    -0.91312   0.04821   2.67508
H    -1.11886  -1.71177   2.86490
H     0.41658  -1.07180   2.24267
23

C     3.65544  -0.70169  -0.22181
N     2.20642  -0.68997  -0.14919
C     1.48873   0.41588  -0.45628
O     2.00384   1.43925  -0.90377
N     0.09432   0.24845  -0.20170
N    -0.65868   1.28766  -0.52023
N    -1.88969   1.17251  -0.23070
C    -2.35413  -0.26350   0.38622
C    -3.23938  -0.91225  -0.67900
C    -1.12061  -0.95624   0.77113
C    -0.66217  -0.91940   2.20485
H     4.01861  -0.38956  -1.21457
H     4.00121  -1.73043  -0.03739
H     4.12550  -0.04109   0.52954
H     1.71535  -1.44452   0.26641
H    -2.97972   0.08083   1.27587
H    -3.89495  -0.13555  -1.11010
H    -2.61967  -1.32504  -1.48806
H    -3.92426  -1.74077  -0.34488
H    -0.89574  -1.89756   0.24401
H    -0.91185   0.04846   2.67468
H    -1.12287  -1.71159   2.86109
H     0.41673  -1.07442   2.24496
23

C     3.65430  -0.70143  -0.22182
N     2.20501  -0.69289  -0.14774
C     1.48372   0.41172  -0.45280
O     1.99801   1.43454  -0.90198
N     0.08747   0.24459  -0.19331
N    -0.65909   1.29395  -0.52315
N    -1.89944   1.14770  -0.22119
C    -2.34285  -0.24200   0.37483
C    -3.23633  -0.90993  -0.67818
C    -1.10409  -0.94329   0.76081
C    -0.66050  -0.91828   2.20181
H     4.01794  -0.38937  -1.21466
H     4.00146  -1.73018  -0.03744
H     4.12509  -0.04078   0.52940
H     1.71582  -1.44566   0.26714
H    -2.97836   0.07957   1.27655
H    -3.89721  -0.13706  -1.10954
H    -2.61982  -1.32397  -1.48883
H    -3.92019  -1.74129  -0.34079
H    -0.89485  -1.89701   0.24314
H    -0.91059   0.04872   2.67428
H    -1.12688  -1.71140   2.85728
H     0.41688  -1.07705   2.24724
23

C     3.65544  -0.70169  -0.22181
N     2.20642  -0.68997  -0.14919
C     1.48873   0.41588  -0.45628
O     2.00384   1.43925  -0.90377
N     0.09432   0.24845  -0.20170
N    -0.65868   1.28766  -0.52023
N    -1.88969   1.17251  -0.23070
C    -2.35413  -0.26350   0.38622
C    -3.23938  -0.91225  -0.67900
C    -1.12061  -0.95624   0.77113
C    -0.66217  -0.91940   2.20485
H     4.01861  -0.38956  -1.21457
H     4.00121  -1.73043  -0.03739
H     4.12550  -0.04109   0.52954
H     1.71535  -1.44452   0.26641
H    -2.97972   0.08083   1.27587
H    -3.89495  -0.13555  -1.11010
H    -2.61967  -1.32504  -1.48806
H    -3.92426  -1.74077  -0.34488
H    -0.89574  -1.89756   0.24401
H    -0.91185   0.04846   2.67468
H    -1.12287  -1.71159   2.86109
H     0.41673  -1.07442   2.24496
23

C     3.65659  -0.70195  -0.22181
N     2.20784  -0.68705  -0.15064
C     1.49375   0.42004  -0.45976
O     2.00967   1.44396  -0.90556
N     0.10116   0.25231  -0.21008
N    -0.65827   1.28137  -0.51730
N    -1.87993   1.19731  -0.24022
C    -2.36540  -0.28499   0.39761
C    -3.24243  -0.91456  -0.67983
C    -1.13712  -0.96919   0.78144
C    -0.66383  -0.92052   2.20790
H     4.01928  -0.38976  -1.21448
H     4.00096  -1.73068  -0.03734
H     4.12592  -0.04140   0.52968
H     1.71488  -1.44338   0.26568
H    -2.98108   0.08209   1.27520
H    -3.89270  -0.13405  -1.11067
H    -2.61953  -1.32610  -1.48728
H    -3.92833  -1.74024  -0.34898
H    -0.89662  -1.89810   0.24488
H    -0.91312   0.04821   2.67508
H    -1.11886  -1.71177   2.86490
H     0.41658  -1.07180   2.24267
23

C     3.65774  -0.70222  -0.22180
N     2.20926  -0.68412  -0.15210
C     1.49877   0.42420  -0.46324
O     2.01550   1.44867  -0.90735
N     0.10800   0.25618  -0.21847
N    -0.65787   1.27507  -0.51438
N    -1.87017   1.22212  -0.24973
C    -2.37668  -0.30648   0.40900
C    -3.24547  -0.91688  -0.68066
C    -1.15364  -0.98215   0.79175
C    -0.66550  -0.92164   2.21094
H     4.01995  -0.38995  -1.21439
H     4.00071  -1.73093  -0.03729
H     4.12633  -0.04170   0.52982
H     1.71440  -1.44224   0.26495
H    -2.98244   0.08335   1.27453
H    -3.89044  -0.13254  -1.11124
H    -2.61939  -1.32716  -1.48651
H    -3.93240  -1.73971  -0.35307
H    -0.89751  -1.89864   0.24575
H    -0.91438   0.04795   2.67549
H    -1.11485  -1.71196   2.86872
H     0.41643  -1.06918   2.24039
23

C     3.65889  -0.70248  -0.22180
N     2.21067  -0.68120  -0.15355
C     1.50378   0.42836  -0.46673
O     2.02133   1.45338  -0.90914
N     0.11484   0.26004  -0.22686
N    -0.65746   1.26878  -0.51145
N    -1.86042   1.24692  -0.25924
C    -2.38796  -0.32798   0.42039
C    -3.24852  -0.91920  -0.68148
C    -1.17016  -0.99510   0.80206
C    -0.66716  -0.92277   2.21399
H     4.02061  -0.39014  -1.21430
H     4.00045  -1.73117  -0.03724
H     4.12674  -0.04201   0.52996
H     1.71393  -1.44110   0.26422
H    -2.98380   0.08461   1.27386
H    -3.88819  -0.13103  -1.11181
H    -2.61924  -1.32822  -1.48574
H    -3.93647  -1.73919  -0.35716
H    -0.89840  -1.89918   0.24662
H    -0.91564   0.04769   2.67589
H    -1.11085  -1.71214   2.87253
H     0.41628  -1.06655   2.23810
23

C     3.66004  -0.70274  -0.22179
N     2.21209  -0.67828  -0.15500
C     1.50880   0.43251  -0.47021
O     2.02716   1.45809  -0.91093
N     0.12169   0.26390  -0.23524
N    -0.65706   1.26249  -0.50853
N    -1.85066   1.27173  -0.26875
C    -2.39923  -0.34947   0.43178
C    -3.25157  -0.92152  -0.68231
C    -1.18668  -1.00805   0.81238
C    -0.66883  -0.92389   2.21703
H     4.02128  -0.39034  -1.21421
H     4.00020  -1.73142  -0.03719
H     4.12716  -0.04232   0.53009
H     1.71345  -1.43996   0.26350
H    -2.98517   0.08587   1.27319
H    -3.88594  -0.12952  -1.11237
H    -2.61910  -1.32929  -1.48496
H    -3.94054  -1.73866  -0.36125
H    -0.89928  -1.89972   0.24749
H    -0.91690   0.04744   2.67629
H    -1.10684  -1.71232   2.87634
H     0.41612  -1.06393   2.23582
23

C     3.66119  -0.70300  -0.22179
N     2.21351  -0.67536  -0.15645
C     1.51381   0.43667  -0.47369
O     2.03298   1.46280  -0.91272
N     0.12853   0.26776  -0.24363
N    -0.65665   1.25620  -0.50560
N    -1.84090   1.29653  -0.27826
C    -2.41051  -0.37096   0.44317
C    -3.25461  -0.92383  -0.68314
C    -1.20319  -1.02101   0.82269
C    -0.67049  -0.92501   2.22007
H     4.02195  -0.39053  -1.21412
H     3.99995  -1.73167  -0.03714
H     4.12757  -0.04263   0.53023
H     1.71298  -1.43882   0.26277
H    -2.98653   0.08713   1.27252
H    -3.88368  -0.12801  -1.11294
H    -2.61895  -1.33035  -1.48419
H    -3.94461  -1.73813  -0.36534
H    -0.90017  -1.90026   0.24836
H    -0.91817   0.04718   2.67669
H    -1.10283  -1.71251   2.88016
H     0.41597  -1.06130   2.23354
23

C     3.66234  -0.70327  -0.22178
N     2.21492  -0.67244  -0.15791
C     1.51883   0.44083  -0.47717
O     2.03881   1.46751  -0.91451
N     0.13537   0.27162  -0.25202
N    -0.65625   1.24991  -0.50268
N    -1.83115   1.32134  -0.28777
C    -2.42178  -0.39246   0.45456
C    -3.25766  -0.92615  -0.68396
C    -1.21971  -1.03396   0.83300
C    -0.67216  -0.92614   2.22312
H     4.02262  -0.39072  -1.21403
H     3.99969  -1.73192  -0.03709
H     4.12798  -0.04294   0.53037
H     1.71250  -1.43768   0.26204
H    -2.98789   0.08839   1.27185
H    -3.88143  -0.12651  -1.11351
H    -2.61881  -1.33141  -1.48342
H    -3.94868  -1.73760  -0.36944
H    -0.90105  -1.90080   0.24923
H    -0.91943   0.04692   2.67709
H    -1.09882  -1.71269   2.88397
H     0.41582  -1.05868   2.23125
23

C     3.66348  -0.70353  -0.22178
N     2.21634  -0.66951  -0.15936
C     1.52385   0.44499  -0.48066
O     2.04464   1.47222  -0.91630
N     0.14221   0.27548  -0.26040
N    -0.65584   1.24362  -0.49975
N    -1.82139   1.34614  -0.29728
C    -2.43306  -0.41395   0.46595
C    -3.26071  -0.92847  -0.68479
C    -1.23623  -1.04691   0.84331
C    -0.67382  -0.92726   2.22616
H     4.02328  -0.39091  -1.21395
H     3.99944  -1.73216  -0.03704
H     4.12840  -0.04325   0.53051
H     1.71203  -1.43654   0.26131
H    -2.98925   0.08965   1.27118
H    -3.87918  -0.12500  -1.11408
H    -2.61867  -1.33247  -1.48264
H    -3.95275  -1.73708  -0.37353
H    -0.90194  -1.90135   0.25010
H    -0.92069   0.04667   2.67750
H    -1.09481  -1.71288   2.88778
H     0.41567  -1.05605   2.22897
23

C     3.66463  -0.70379  -0.22177
N     2.21776  -0.66659  -0.16081
C     1.52886   0.44915  -0.48414
O     2.05047   1.47693  -0.91809
N     0.14906   0.27935  -0.26879
N    -0.65543   1.23733  -0.49683
N    -1.81163   1.37095  -0.30679
C    -2.44434  -0.43544   0.47734
C    -3.26376  -0.93078  -0.68561
C    -1.25274  -1.05987   0.85363
C    -0.67549  -0.92838   2.22921
H     4.02395  -0.39111  -1.21386
H     3.99919  -1.73241  -0.03699
H     4.12881  -0.04356   0.53065
H     1.71155  -1.43540   0.26058
H    -2.99061   0.09091   1.27050
H    -3.87692  -0.12349  -1.11464
H    -2.61852  -1.33354  -1.48187
H    -3.95682  -1.73655  -0.37762
H    -0.90282  -1.90189   0.25097
H    -0.92195   0.04641   2.67790
H    -1.09080  -1.71306   2.89160
H     0.41552  -1.05343   2.22669
23

C     3.66578  -0.70405  -0.22177
N     2.21917  -0.66367  -0.16226
C     1.53388   0.45331  -0.48762
O     2.05630   1.48164  -0.91988
N     0.15590   0.28321  -0.27717
N    -0.65503   1.23104  -0.49390
N    -1.80188   1.39575  -0.31630
C    -2.45561  -0.45694   0.48873
C    -3.26680  -0.93310  -0.68644
C    -1.26926  -1.07282   0.86394
C    -0.67715  -0.92951   2.23225
H     4.02462  -0.39130  -1.21377
H     3.99894  -1.73266  -0.03694
H     4.12922  -0.04387   0.53079
H     1.71108  -1.43426   0.25986
H    -2.99197   0.09217   1.26983
H    -3.87467  -0.12198  -1.11521
H    -2.61838  -1.33460  -1.48110
H    -3.96089  -1.73602  -0.38171
H    -0.90371  -1.90243   0.25184
H    -0.92322   0.04615   2.67830
H    -1.08679  -1.71325   2.89541
H     0.41537  -1.05080   2.22440
23

C     3.66693  -0.70432  -0.22176
N     2.22059  -0.66075  -0.16372
C     1.53889   0.45746  -0.49110
O     2.06213   1.48635  -0.92167
N     0.16274   0.28707  -0.28556
N    -0.65462   1.22475  -0.49098
N    -1.79212   1.42056  -0.32582
C    -2.46689  -0.47843   0.50012
C    -3.26985  -0.93542  -0.68727
C    -1.28578  -1.08578   0.87425
C    -0.67882  -0.93063   2.23530
H     4.02528  -0.39149  -1.21368
H     3.99868  -1.73291  -0.03689
H     4.12964  -0.04417   0.53092
H     1.71060  -1.43312   0.25913
H    -2.99334   0.09343   1.26916
H    -3.87241  -0.12048  -1.11578
H    -2.61824  -1.33566  -1.48032
H    -3.96496  -1.73550  -0.38581
H    -0.90460  -1.90297   0.25271
H    -0.92448   0.04589   2.67870
H    -1.08279  -1.71343   2.89922
H     0.41522  -1.04818   2.22212
23

C     3.66808  -0.70458  -0.22176
N     2.22201  -0.65783  -0.16517
C     1.54391   0.46162  -0.49458
O     2.06796   1.49106  -0.92346
N     0.16958   0.29093  -0.29395
N    -0.65422   1.21846  -0.48805
N    -1.78236   1.44536  -0.33533
C    -2.47816  -0.49992   0.51151
C    -3.27290  -0.93774  -0.68809
C    -1.30229  -1.09873   0.88456
C    -0.68048  -0.93175   2.23834
H     4.02595  -0.39169  -1.21359
H     3.99843  -1.73316  -0.03685
H     4.13005  -0.04448   0.53106
H     1.71013  -1.43198   0.25840
H    -2.99470   0.09470   1.26849
H    -3.87016  -0.11897  -1.11635
H    -2.61809  -1.33673  -1.47955
H    -3.96903  -1.73497  -0.38990
H    -0.90548  -1.90351   0.25358
H    -0.92574   0.04564   2.67911
H    -1.07878  -1.71361   2.90304
H     0.41507  -1.04555   2.21984
23

C     3.66923  -0.70484  -0.22175
N     2.22342  -0.65490  -0.16662
C     1.54893   0.46578  -0.49807
O     2.07379   1.49577  -0.92525
N     0.17643   0.29479  -0.30233
N    -0.65381   1.21217  -0.48513
N    -1.77261   1.47017  -0.34484
C    -2.48944  -0.52141   0.52290
C    -3.27595  -0.94005  -0.68892
C    -1.31881  -1.11168   0.89488
C    -0.68214  -0.93287   2.24138
H     4.02662  -0.39188  -1.21350
H     3.99818  -1.73340  -0.03680
H     4.13047  -0.04479   0.53120
H     1.70965  -1.43084   0.25767
H    -2.99606   0.09596   1.26782
H    -3.86791  -0.11746  -1.11691
H    -2.61795  -1.33779  -1.47878
H    -3.97310  -1.73444  -0.39399
H    -0.90637  -1.90405   0.25445
H    -0.92700   0.04538   2.67951
H    -1.07477  -1.71380   2.90685
H     0.41492  -1.04293   2.21755
23

C     3.67038  -0.70510  -0.22174
N     2.22484  -0.65198  -0.16808
C     1.55394   0.46994  -0.50155
O     2.07962   1.50048  -0.92704
N     0.18327   0.29865  -0.31072
N    -0.65340   1.20588  -0.48220
N    -1.76285   1.49497  -0.35435
C    -2.50072  -0.54291   0.53429
C    -3.27899  -0.94237  -0.68975
C    -1.33533  -1.12464   0.90519
C    -0.68381  -0.93400   2.24443
H     4.02729  -0.39207  -1.21341
H     3.99793  -1.73365  -0.03675
H     4.13088  -0.04510   0.53134
H     1.70918  -1.42970   0.25694
H    -2.99742   0.09722   1.26715
H    -3.86565  -0.11595  -1.11748
H    -2.61781  -1.33885  -1.47800
H    -3.97717  -1.73391  -0.39808
H    -0.90725  -1.90459   0.25532
H    -0.92827   0.04512   2.67991
H    -1.07076  -1.71398   2.91066
H     0.41477  -1.04030   2.21527
23

C     3.67152  -0.70537  -0.22174
N     2.22626  -0.64906  -0.16953
C     1.55896   0.47410  -0.50503
O     2.08544   1.50519  -0.92883
N     0.19011   0.30252  -0.31911
N    -0.65300   1.19959  -0.47928
N    -1.75309   1.51978  -0.36386
C    -2.51199  -0.56440   0.54568
C    -3.28204  -0.94469  -0.69057
C    -1.35184  -1.13759   0.91550
C    -0.68547  -0.93512   2.24747
H     4.02795  -0.39226  -1.21332
H     3.99767  -1.73390  -0.03670
H     4.13129  -0.04541   0.53148
H     1.70870  -1.42856   0.25621
H    -2.99878   0.09848   1.26648
H    -3.86340  -0.11444  -1.11805
H    -2.61766  -1.33991  -1.47723
H    -3.98124  -1.73339  -0.40218
H    -0.90814  -1.90513   0.25619
H    -0.92953   0.04487   2.68031
H    -1.06675  -1.71417   2.91447
H     0.41462  -1.03768   2.21299
23

C     3.67267  -0.70563  -0.22173
N     2.22767  -0.64614  -0.17098
C     1.56397   0.47826  -0.50851
O     2.09127   1.50990  -0.93062
N     0.19696   0.30638  -0.32749
N    -0.65259   1.19330  -0.47635
N    -1.74334   1.54458  -0.37337
C    -2.52327  -0.58589   0.55707
C    -3.28509  -0.94701  -0.69140
C    -1.36836  -1.15054   0.92581
C    -0.68714  -0.93624   2.25052
H     4.02862  -0.39246  -1.21324
H     3.99742  -1.73415  -0.03665
H     4.13171  -0.04572   0.53161
H     1.70823  -1.42742   0.25549
H    -3.00014   0.09974   1.26581
H    -3.86114  -0.11294  -1.11862
H    -2.61752  -1.34098  -1.47645
H    -3.98531  -1.73286  -0.40627
H    -0.90903  -1.90568   0.25706
H    -0.93079   0.04461   2.68071
H    -1.06274  -1.71435   2.91829
H     0.41447  -1.03506   2.21070
23

C     3.67382  -0.70589  -0.22173
N     2.22909  -0.64322  -0.17243
C     1.56899   0.48241  -0.51200
O     2.09710   1.51461  -0.93241
N     0.20380   0.31024  -0.33588
N    -0.65219   1.18701  -0.47343
N    -1.73358   1.56939  -0.38288
C    -2.53454  -0.60739   0.56846
C    -3.28813  -0.94932  -0.69223
C    -1.38488  -1.16350   0.93613
C    -0.68880  -0.93737   2.25356
H     4.02929  -0.39265  -1.21315
H     3.99717  -1.73439  -0.03660
H     4.13212  -0.04603   0.53175
H     1.70775  -1.42628   0.25476
H    -3.00150   0.10100   1.26513
H    -3.85889  -0.11143  -1.11919
H    -2.61737  -1.34204  -1.47568
H    -3.98939  -1.73233  -0.41036
H    -0.90991  -1.90622   0.25793
H    -0.93205   0.04435   2.68112
H    -1.05873  -1.71454   2.92210
H     0.41432  -1.03243   2.20842
23

C     3.67497  -0.70615  -0.22172
N     2.23051  -0.64029  -0.17389
C     1.57401   0.48657  -0.51548
O     2.10293   1.51932  -0.93420
N     0.21064   0.31410  -0.34427
N    -0.65178   1.18072  -0.47050
N    -1.72382   1.59419  -0.39239
C    -2.54582  -0.62888   0.57985
C    -3.29118  -0.95164  -0.69305
C    -1.40139  -1.17645   0.94644
C    -0.69047  -0.93849   2.25660
H     4.02996  -0.39284  -1.21306
H     3.99691  -1.73464  -0.03655
H     4.13253  -0.04634   0.53189
H     1.70728  -1.42514   0.25403
H    -3.00287   0.10226   1.26446
H    -3.85664  -0.10992  -1.11975
H    -2.61723  -1.34310  -1.47491
H    -3.99346  -1.73181  -0.41445
H    -0.91080  -1.90676   0.25880
H    -0.93332   0.04410   2.68152
H    -1.05473  -1.71472   2.92591
H     0.41417  -1.02981   2.20613
23

C     3.67612  -0.70642  -0.22172
N     2.23192  -0.63737  -0.17534
C     1.57902   0.49073  -0.51896
O     2.10876   1.52403  -0.93599
N     0.21748   0.31796  -0.35265
N    -0.65137   1.17443  -0.46758
N    -1.71407   1.61900  -0.40191
C    -2.55710  -0.65037   0.59124
C    -3.29423  -0.95396  -0.69388
C    -1.41791  -1.18941   0.95675
C    -0.69213  -0.93961   2.25965
H     4.03062  -0.39304  -1.21297
H     3.99666  -1.73489  -0.03650
H     4.13295  -0.04665   0.53203
H     1.70680  -1.42400   0.25330
H    -3.00423   0.10352   1.26379
H    -3.85438  -0.10841  -1.12032
H    -2.61709  -1.34417  -1.47413
H    -3.99753  -1.73128  -0.41854
H    -0.91168  -1.90730   0.25967
H    -0.93458   0.04384   2.68192
H    -1.05072  -1.71490   2.92973
H     0.41402  -1.02718   2.20385
