14

O 2.837386719 -3.692538246 0.950329190
C 1.362337786 -2.432800078 2.646303547
C -0.123677983 3.989633069 -0.428044529
C -1.220837891 2.091196044 -1.632164391
C -1.412538096 -0.593765139 -0.715504187
C -0.577204769 -1.010098014 1.953576852
H 4.150043321 -4.577450257 1.822730571
H 1.863197185 -2.674258208 4.621647512
H -0.062086290 5.864775969 -1.246072141
H -2.066520888 2.440559860 -3.472693196
H 0.763269774 3.734731805 1.401672190
H -3.383009157 -1.200820645 -0.919703948
H -0.322396499 -1.805422608 -1.985756091
H -1.625791686 -0.087477407 3.451666063

