19

C -6.169465734 0.427748484 -1.465254746
C -4.172178761 -0.618491959 0.323174764
C -1.497287721 -0.375502508 -0.715798134
C 0.517135478 -1.417772637 1.092105476
C 3.144471125 -1.246339461 0.119905957
O 4.484583805 0.674301770 0.776498953
C 6.753031529 1.355030272 0.111279225
H 7.802852362 0.198713281 -1.205597174
H 7.451166242 3.031915542 1.020335454
H 3.948629262 -2.546466953 -1.248882163
H 0.081519648 -3.398590043 1.509542557
H 0.414528320 -0.402961760 2.891136728
H -1.366329285 -1.365580556 -2.529450158
H -1.079048187 1.612363462 -1.110451127
H -4.284985943 0.362881254 2.141948040
H -4.570720129 -2.610409975 0.721567789
H -8.065219178 0.242273472 -0.673645506
H -6.143191114 -0.567988348 -3.274154242
H -5.843235208 2.429875028 -1.851785432

