13

C -2.176953516 -0.098477578 -1.140575364
C -2.417693853 -1.125628878 1.537254049
C 0.388775472 -1.189138888 2.099596292
C 1.117098144 0.331364005 0.176964461
C 3.463070919 0.803873941 -1.314921818
H -0.510853405 1.796319740 -0.435876556
H -3.461959533 1.330008956 -1.915727698
H -1.755341709 -1.510278964 -2.564059774
H -3.300625828 -2.990894822 1.592913948
H -3.478903970 0.090811809 2.820930511
H 5.030693131 0.212995019 -0.113152095
H 3.536496851 -0.329600286 -3.038934721
H 3.731421685 2.786481295 -1.814151725

