17

C 4.051407611 0.274687377 -0.029982962
O 1.991781086 0.580160585 1.624867988
C -0.412176914 0.011677752 0.613939042
C -1.104692999 1.661757426 -1.653903630
C -2.275524579 0.385865577 2.787432016
C -0.556396579 -2.751403594 -0.110354015
O -2.601563128 -3.504783769 -1.237562798
H 3.987715280 -1.553962006 -0.999596372
H 5.755174651 0.345688772 1.122254507
H 4.146600543 1.787383093 -1.441175403
H 0.170491582 1.357583122 -3.244520540
H -1.016466580 3.646722308 -1.104892970
H -3.014946765 1.221846645 -2.285197331
H -2.168893910 2.343567588 3.420287236
H -4.197327859 -0.034951826 2.178942396
H -1.783170043 -0.838324555 4.370571866
H -1.043667922 -4.978423835 -0.739919392

