12

O -2.628763694 3.543108285 -0.901058889
C -1.379349006 1.863699116 -0.005260166
N 2.644605306 -0.546801646 -0.268507538
C 0.814869029 -2.465480983 -0.927410024
C 0.308261631 0.231504886 -1.539190357
O -1.843164218 -0.544573300 3.842035745
C -1.611717006 1.478092714 2.856886122
H 4.109038646 -0.496287094 -1.496717326
H -0.136043481 -3.335528011 0.657913385
H 1.192869698 -3.683771938 -2.531125722
H 0.381628622 0.795850712 -3.508236715
H -1.760837014 3.275725115 3.916202790

