12

C -2.578678582 -2.774359288 0.281053562
C -0.611795790 -1.613760121 1.929619623
N 1.560877005 -0.936515537 1.084497571
C 3.889280316 0.064190349 1.255079841
H 5.209239179 -0.533648453 2.696737294
C 3.170254133 -1.311432060 -1.095681896
H 2.733314625 -0.227453578 -2.785577439
H 3.624982748 -3.295951231 -1.435127901
H -0.989423938 -1.225222547 3.905665243
H -1.914737160 -2.897714524 -1.666138189
H -3.065130086 -4.681148052 0.910265919
H -4.321736958 -1.664146947 0.302402025

