15

C 3.663794529 -0.635479388 -1.303750513
C 1.033763773 -1.022156640 -0.419649081
C -0.312235252 -2.927924801 0.531982848
C -2.708900214 -1.410356955 0.875870824
C -1.193064113 0.753255057 -0.377747711
O -0.862798587 2.946639042 1.230069921
C -1.315288273 5.219995160 0.498106919
H 3.697286712 -0.081908497 -3.293269389
H 4.778396079 -2.354264685 -1.086939683
H 4.573824194 0.875700862 -0.231574938
H 0.123321089 -4.894915969 0.897319367
H -4.383707069 -2.032301709 -0.156780051
H -3.220652826 -0.996180881 2.828947580
H -1.894614430 1.423347178 -2.205469597
H -1.988009193 5.097903508 -1.519716786

