15

C 3.354669576 -0.037575843 -1.454141966
C 0.842345439 -0.384487173 -0.218762312
C -0.176967693 -2.434625553 0.846138629
C -2.860549281 -1.538619149 0.913204726
C -1.986871049 0.854567488 -0.471434587
O -2.355636664 3.097243109 0.926630607
C 0.248964633 3.298697646 0.852005341
H 3.125693559 0.482312361 -3.438956426
H 4.392074492 -1.817455760 -1.382925653
H 4.468127163 1.426079099 -0.527734631
H 0.649806063 -4.256375036 1.279746248
H -4.163331309 -2.641219843 -0.251089120
H -3.712981133 -1.190318833 2.755421095
H -2.546974515 1.103322947 -2.440487541
H 0.702909200 4.029565287 -1.091677907

