12

N 4.038973024 0.226248462 -0.011294080
C 1.471797243 -0.110637965 -0.012343597
C -0.324109044 2.007174077 0.204460657
C -2.616494723 0.968017442 0.248380745
C -2.289400876 -1.836538932 0.069503843
N 0.403277400 -2.285834887 -0.101350755
H 5.047612794 -1.302267871 -0.521516733
H 4.698789855 1.881323212 -0.662394171
H 0.163020418 3.988586520 0.321163074
H -4.410952951 1.934571310 0.398177842
H -3.257934232 -2.622339967 -1.583750363
H -3.085292538 -2.797297709 1.723262607

