16

C -0.958545586 2.783017503 -2.008549080
C -0.364515319 0.911782632 0.017261533
C -2.453565069 -2.288696896 -0.447742203
C 1.808281971 -0.840237449 -0.014703827
C 3.650318362 -0.223196308 1.847008280
O 0.742184134 -3.035784359 0.938181029
H -0.069275999 4.611712541 -1.651501070
H -2.995965996 3.117027275 -2.084750188
H -0.335366162 2.110700323 -3.856514581
H -0.962083003 1.411440808 1.921571449
H -4.000387122 -1.066571591 0.168522544
H -2.850340772 -4.160943507 0.308929857
H -2.333504910 -2.376568669 -2.497102280
H 2.598960767 -1.022872790 -1.931336231
H 5.638826821 0.061394670 1.448056973
H 3.005459262 -0.056641989 3.781549996

