12

N 4.037425622 -0.634133090 0.316515217
C 1.518687716 0.154218810 0.076847168
C 0.539014141 2.484113644 0.103396006
N -2.272490019 1.821280055 0.020458610
C -2.658126448 -1.011188235 -0.062819825
O -4.698389535 -1.993350069 -0.110355622
N -0.299166133 -1.871616350 -0.054248406
H 4.749061294 -1.311845419 -1.325598241
H 5.097946216 0.855213926 0.866665609
H -3.098789963 2.622124350 -1.520809028
H -3.190812482 2.530011974 1.555982104
H 0.109356920 -3.718184947 0.119069697

