16

C -2.563219697 -2.127714038 0.166888045
C -0.466045863 -0.197962418 0.194166166
C -1.510102672 2.444666368 -0.220663679
C 1.840190261 -0.669413880 1.852441431
C 3.416595013 0.445532376 -0.239526774
O 1.493972612 -0.806998584 -1.988815577
H -3.876668000 -1.827841903 -1.396912196
H -3.612405373 -1.952508326 1.935989152
H -1.803066308 -4.039506381 0.090037003
H -2.500445527 2.603283875 -2.023094358
H -0.084704838 3.921338499 -0.107312066
H -2.884145365 2.790764303 1.279262232
H 1.864063285 -2.431034412 -0.741558842
H 1.932506217 -0.011704945 3.798096117
H 5.308810531 -0.276307156 -0.612264934
H 3.322988148 2.458716084 -0.709798386

