14

C -1.949611432 -2.189938278 0.107964419
C -0.246859308 0.063065452 -0.156757317
C 2.490848553 -0.566630183 -0.552036169
O 3.940465343 1.638172624 -0.936399036
C -1.013365540 2.452094371 -0.086172437
O -3.417322917 3.299750734 0.231284223
H -3.856048556 -1.706593767 0.732320425
H -1.201287219 -3.522258974 1.499724825
H -2.131730121 -3.213673803 -1.679204719
H -4.552940074 1.890913251 0.358962926
H 3.184724049 -1.617385485 1.103678273
H 2.654198161 -1.843517899 -2.186675042
H 5.681649054 1.168237629 -1.072567069
H 0.306152810 3.997143710 -0.295005372

