14

C -2.105832974 -2.183435409 -0.077922384
C -0.382202721 0.121410973 0.153756999
C 2.362785385 -0.486566569 -0.247286197
O 3.780092054 1.781907649 -0.077956626
C -1.308082861 2.447056380 -0.786294990
O -3.088515333 3.292198953 0.603850437
H -4.099552126 -1.677092478 0.028246511
H -1.723592024 -3.526765272 1.440579534
H -1.800739280 -3.175087202 -1.873570572
H -2.149300719 1.545159283 1.903249723
H 2.964967779 -1.859112580 1.187989991
H 2.657423508 -1.381286920 -2.106798605
H 5.505340366 1.429954095 -0.496913613
H -0.643423513 3.592075189 -2.368464069

