12

N 4.763528678 -3.124544360 1.124043227
C 3.166787789 -1.889094295 0.336320379
C 1.133179316 -0.314898481 -0.650031243
C -1.282897404 -1.600882885 -1.481252147
N -3.148213634 -0.058471566 -1.125752711
C -2.484830059 2.067596861 0.077444208
N 0.078718224 1.425507608 1.293635980
H 1.854787318 0.934146274 -2.156662733
H -1.346170272 -3.289497155 -2.619991813
H -0.137745652 0.443472933 2.958633833
H -3.778182070 2.909502617 1.420639824
H 1.187360807 2.960103776 1.588552290

