12

N 5.128781860 -2.670601286 0.916394300
C 3.362780281 -1.622182347 0.227095418
C 1.159257215 -0.253308244 -0.694994573
C -1.301816737 -1.723403675 -0.909227816
N -3.154662589 0.105493715 -1.051804705
C -2.324625730 2.074917773 0.121661173
N 0.011174102 1.346335377 1.299665718
H 1.641272077 0.908174634 -2.352156469
H -1.463372409 -3.391675970 -2.077099292
H -0.724013775 -0.743803251 2.080383144
H -3.393874383 3.678298743 0.781970125
H 1.079053667 2.632126368 2.237880951

