15

C -2.179742487 2.216749259 -1.581459845
C -0.332722472 0.751961728 0.068785388
C -1.434941310 -1.328191607 1.591428528
C 1.920232068 -0.440608864 -1.306837097
C 3.109607814 -1.581970241 1.024869833
O 5.180854019 -2.086451509 1.621968525
O 0.731209493 2.025580652 2.038233502
H -1.178341994 3.838950654 -2.367138161
H -2.946478302 1.081506834 -3.126890833
H -3.730316309 2.929846464 -0.428728402
H -1.584310308 -3.308130290 1.046205276
H 1.352411811 -2.137414795 2.406545527
H -2.537333775 -0.732353004 3.209565274
H 1.504109878 -1.887272920 -2.731114871
H 3.178690815 0.987445244 -2.095091223

