12

C -3.798368634 -0.382983764 -0.133594113
N -1.411450408 -1.068187081 -1.311767770
C 0.635243833 -1.370759521 0.334778419
C 2.842071350 -0.289602929 0.126665659
N 5.035303080 0.386367526 -0.330491802
C 6.016047336 2.520549076 0.641422350
N 7.031375621 4.303106224 1.362541064
H -4.294058159 -1.811488005 1.269176594
H -5.274648856 -0.370268553 -1.568649675
H -3.756340407 1.463073473 0.807300468
H -0.990339170 0.032934411 -2.808427006
H 0.361847366 -2.633353537 1.927962314

