10

N 3.486867824 0.177113220 -0.466861412
C 1.228748228 -0.749224479 0.289352918
N -0.799123207 0.400610884 -1.123891104
C -2.762425422 1.574076439 0.538939138
C -3.299248482 -0.615191893 -0.251119487
O 0.941126941 -2.354217971 1.887597461
H 3.557850019 1.283605975 -2.003179669
H 5.070445240 -0.619779940 0.203014185
H -3.006146612 3.342063195 1.499737373
H -4.404488481 -2.282482172 -0.565486256

