10

C -2.418566264 0.364130061 0.260681974
C -0.479153816 -1.644323701 -0.324527184
C 2.555718448 -0.050817778 -0.222384992
O 1.415479001 -1.621771294 1.566509768
H -3.882996939 -0.664863722 1.298525136
H -3.299016613 1.078162605 -1.460216963
H -1.766380809 1.918879270 1.461152397
H 1.291969034 -0.576712382 -2.063701190
H 4.398085371 -0.740556929 -0.821950589
H 2.422471081 1.959505566 0.177243952

