9

O 3.626038821 -0.391187235 0.300173017
C 1.091861947 -0.121240916 0.095342144
C -0.046731812 2.332872457 -0.332780430
O -2.338842857 2.507239414 -0.456433582
C -2.831653970 -2.033976252 -0.372933029
N -0.544785384 -1.912220366 0.143739788
H 4.071824004 -2.138168286 0.095002183
H 1.214204442 3.958697950 -0.600585160
H -4.218484496 -2.255856971 1.141578450

