16

C 4.874983270 -0.290165594 -0.666161246
C 2.111183394 -0.284958964 -0.094543546
C 0.269373580 -2.013263134 -0.475495835
C -2.075047748 -0.777551001 0.600458227
C -4.461937365 -0.883913820 -1.015513459
C -1.307841089 1.794067602 1.440970481
N 1.089338520 1.978171033 1.051874076
H 6.039780520 -0.114662572 1.034909778
H 5.326524313 -2.087093014 -1.556785313
H 5.419402066 1.222116744 -1.969532811
H -2.441171319 -1.803692620 2.382158120
H -4.164101372 0.091880355 -2.806696149
H -6.088084301 -0.036841930 -0.065619606
H -4.885293861 -2.851792876 -1.440840411
H -2.385091372 3.314465181 2.287012866
H 2.108149079 3.528538628 1.521099215

