17

C -4.157598541 -1.165473413 0.426331851
C -2.127588805 -2.322497785 -1.162673916
O -0.491514534 4.041752245 0.081283621
C 1.683127337 3.751166356 -0.493403863
C 3.254344867 1.474923001 0.166589241
C 1.749542064 -0.759949355 1.196576321
C 0.355746045 -2.150014866 -0.846393913
H -5.391573090 0.006370286 -0.742558942
H -3.413476927 0.032252731 1.922160798
H -5.340090449 -2.632749826 1.274196783
H -2.788568573 -3.426001465 -2.765196233
H 2.701768539 5.251893208 -1.549629865
H 4.657541234 2.137172910 1.543122990
H 4.347009494 0.949311818 -1.512070670
H 0.457358017 -0.091349739 2.654413760
H 3.064311476 -2.065269682 2.112985588
H 1.555592764 -3.110895473 -2.212787391

