12

C -3.846559901 0.042812350 -0.493404014
C -1.233432972 -0.434058412 -1.294198986
C 0.802439601 0.292590472 -2.559741372
C 1.705409589 -0.741565324 -0.192174980
O 0.208760728 -2.498635056 0.699261537
C 3.744976861 0.316341060 1.425253364
H -4.656396627 1.470646154 -1.735077345
H -4.956536404 -1.689723030 -0.589643740
H -3.875644279 0.725812492 1.451842623
H 4.519928732 2.038387288 0.621615072
H 3.038317858 0.633088317 3.334461223
H 5.235461397 -1.109356087 1.540208617

