12

C -3.774614531 -0.792541405 -0.030407526
C -1.292015011 -0.506249106 -0.028126003
C 0.285475351 1.867685361 0.213773284
C 2.917886576 0.809874332 0.041136050
C 2.736383522 -1.667128481 -0.228423253
O 0.304473240 -2.557690377 -0.276554124
H -0.072531657 2.827896230 2.007297250
H -4.623386494 -2.640579283 -0.223633213
H -4.990814259 0.835804983 0.162815571
H -0.139816641 3.211516586 -1.295653603
H 4.647333708 1.882186609 0.122473698
H 4.170378740 -3.104419079 -0.421638849

