12

C -3.737410227 -0.493148504 0.084609161
C -1.105934284 -0.316827249 -0.248943525
C 0.518170557 1.850655583 -0.336360951
C 3.048559607 0.872410925 -0.280657400
C 2.875510545 -1.646587895 -0.141605512
O 0.377059661 -2.407825401 -0.097272726
H -1.363316192 0.850316512 1.751543851
H -4.563280164 -2.291066575 0.565848366
H -4.904137209 1.129736141 -0.310293502
H -0.115216035 3.767432268 -0.593539449
H 4.770141397 1.958607662 -0.336047672
H 4.243051484 -3.145905050 -0.015498797

