13

O 4.110784582 1.924668956 -0.937624429
C 1.763028246 1.124160768 -0.444135018
C 1.272091855 -1.667732778 -0.357765973
C -1.407240967 -1.699690352 0.742386089
C -2.340200626 1.034144855 0.308488322
N -0.091030413 2.584803846 -0.092060219
H 1.373399090 -2.437108843 -2.273098000
H 2.673094723 -2.663316486 0.777546541
H -2.627429529 -3.108981426 -0.132048166
H -1.334289205 -2.107963943 2.762435966
H -3.555745658 1.176893708 -1.359202201
H -3.424025813 1.760219093 1.905364081
H 4.054643540 3.746006931 -0.972574705

