13

O 4.109158492 2.171595141 -0.879675108
C 2.084243193 0.929986817 -0.453906773
C 1.365517383 -1.798146576 -0.387788884
C -1.345356065 -1.623575755 0.682030429
C -2.173633173 1.159292931 0.252972175
N 0.220416786 2.469546955 -0.067009103
H 1.426807267 -2.553289488 -2.308453926
H 2.650239279 -2.921891831 0.761636124
H -2.638562699 -2.967945232 -0.190804532
H -1.313108304 -2.023478729 2.704261881
H -3.349348864 1.361324817 -1.436398591
H -3.239901955 1.903918043 1.851659406
H 2.239616778 3.865082373 -0.533075469

