11

C -3.022991385 -0.365602838 -0.449579300
N -0.473357724 -0.211650932 0.491232700
C 1.272635133 -1.895136089 0.642138669
H 1.219295402 -3.766043471 -0.192332224
C 3.068472274 0.400393168 1.692191220
O 5.173711478 0.412970826 2.479093322
C 0.938577531 2.019320008 1.218129913
H 0.109751571 3.420440776 2.454584879
H -3.462635053 -2.306315209 -0.967979817
H -4.320071203 0.276902495 1.015838076
H -3.194569485 0.880233635 -2.080059756

