13

C -3.147625815 -0.285152586 -0.215444312
N -0.533430020 -0.020094100 0.486470628
C 0.967053587 2.064831983 0.289435007
C 3.143099657 0.327324753 1.062083190
O 5.199880122 0.531146739 1.917753560
C 1.326070843 -1.795828808 0.356381768
H -3.275695692 -0.392182573 -2.276549472
H -3.917184125 -2.007147659 0.605760043
H -4.216704506 1.337746440 0.456124933
H 1.999518759 1.013803144 -2.663898125
H 0.418363897 3.989418377 0.678268060
H 1.135571445 -3.781280389 0.784981706
H 2.159747144 -0.644951697 -2.649092971

