13

C 3.618370029 0.049815240 -0.165647798
C 0.814136212 0.068428155 0.003747988
C -0.844964977 1.852091775 0.611958949
C -3.432579111 0.706771819 0.431877744
C -3.073044901 -2.009704345 -0.372627914
N -0.593459457 -2.171205366 -0.560510853
H 4.430212265 -1.347086298 1.121428243
H 4.241919708 -0.421740875 -2.077632950
H 4.380685548 1.896187684 0.324865558
H -0.395596325 3.772153541 1.135129306
H -4.667357265 1.652356171 -0.934084027
H -4.477362405 0.734944688 2.219102138
H 0.277391670 -3.786552026 -1.075109998

