13

C 3.591824271 -0.002989944 -0.088601075
C 0.777563341 0.065667510 -0.102580022
C -0.850704264 2.011883974 0.274242006
C -3.344391847 0.945790049 0.046610152
C -3.203672787 -1.704847490 -0.577827755
N -0.631997492 -2.077699185 -0.503377497
H 4.298179954 -1.206617569 1.432489390
H 4.318051558 -0.747698676 -1.871399561
H 4.358404864 1.886786750 0.178735210
H -0.353738022 3.948662333 0.667781081
H -5.104055568 1.983844615 -0.006935446
H -3.865257739 -0.773631633 1.669321055
H 0.138115566 -3.795724492 -0.750416367

