12

O -5.693682358 0.468607103 -0.653377683
C -4.007145917 -0.405121565 0.579354862
C -1.585825490 -1.444918629 -0.517573063
C 0.690366729 -0.657846470 0.998342274
C 2.512109654 0.731818722 0.107401224
C 4.334059881 2.105892973 -0.797998820
H 4.270088948 4.149884906 -0.682772637
H -4.160303948 -0.511851124 2.671501608
H -1.437749140 -0.859014524 -2.485189976
H -1.758764400 -3.511252774 -0.476652367
H 0.799924810 -1.276714352 2.954270134
H 5.966128312 1.246080380 -1.687683108

