12

O -2.466134488 2.348832687 -0.744043832
C -2.117860552 0.238159141 0.766440318
C -1.497383435 -2.177318120 -0.518017243
C 0.505309289 -0.869838044 1.056010403
C 2.588963738 0.391637198 -0.142070290
C 4.300790346 1.514471378 -1.111497411
H -1.239252346 3.608226981 -0.291535268
H -3.310505316 0.169930693 2.436373493
H -1.265627782 -2.072090648 -2.545689199
H -2.276676480 -3.923001912 0.204319475
H 0.940251091 -1.701034703 2.875186098
H 5.838125936 2.472025350 -1.985476506

