12

O 3.813617439 1.654336906 -0.025027193
C 2.627090644 -0.704765761 -0.330667603
C -0.092986185 -0.406003822 -1.213219309
C -3.582037229 0.341376757 1.369320079
N -1.457356882 1.096550320 0.625645196
H 2.651182536 2.702193708 0.902342335
H 2.657232778 -1.790429237 1.439452294
H 3.709594838 -1.757980013 -1.735928383
H -0.968423090 -2.262755265 -1.533276874
H -4.466518911 -1.401390299 0.676334246
H -4.620543193 1.445666299 2.759303254
H -0.090850681 0.640499937 -2.995767821

