15

O 4.217354345 1.360087028 -0.401800617
C 1.775305116 0.535817745 -0.069284219
C 1.123966127 -2.221656537 0.431699070
C -1.555635528 -1.477888586 -0.465009745
C -2.370418272 0.391078538 1.580521898
C -0.224924387 2.280294739 0.916173732
C -0.321002221 0.678394274 -2.027697070
H 4.316347100 3.015989100 0.337981694
H 1.329699287 -2.953433912 2.351353714
H 2.082899976 -3.455317429 -0.910200855
H -2.845824327 -2.881408493 -1.232331470
H -4.231295970 1.223113990 1.277710710
H -2.249270349 -0.307391355 3.518535401
H -1.187386942 2.832241486 -1.362546676
H 0.048511688 1.013778936 -4.013572252

