10

O -2.045374834 -1.077025726 -2.338961494
C -0.126668947 -0.152564658 -1.589013099
C 1.295731535 -0.946791717 0.741470498
H 3.244322156 -1.450856564 0.268559921
C 0.947160289 0.760352830 3.016089255
H 1.372257412 2.691393716 3.479492336
C -0.119356841 -1.235398684 4.111482855
H -0.970214532 -1.768523400 5.890442853
O 0.103010502 -2.949551772 2.171059706
H 0.781289597 1.459410031 -2.584161301

