10

C 0.928434823 -1.194506598 -2.034231686
C -0.690658672 -0.253906834 -4.126885068
H -0.182802430 -1.273338054 -5.849309373
H -0.636039692 1.797063310 -4.492341509
H -2.636088708 -0.821313486 -3.721701822
N 2.126654619 0.676353068 -0.899648719
C 3.808661500 0.383789581 1.173273654
O 4.368684029 -1.561108364 2.136282963
H 4.550259611 2.235036516 1.796538287
H 1.914381041 2.517614199 -1.458401787

