13

C -2.309091009 1.438566938 0.028592520
C -1.939795193 -1.370786034 0.299807790
C -0.065361923 1.739899529 -1.663650913
N 1.769535272 -0.152837307 -1.551463996
C 2.885829319 -0.459589104 0.981670997
C 0.665085028 -2.077315004 -0.061906407
H -2.254443626 2.583283939 1.799699534
H -4.087239653 1.963657936 -0.898903090
H -3.375454013 -2.682896487 0.923444264
H 0.497560731 3.503176463 -2.546054313
H 2.431420691 0.972611555 2.376347477
H 4.763159463 -1.288118528 1.076020279
H 1.167043945 -3.997078458 -0.574306496

