17

C 5.126717391 0.881432081 -0.035536697
C 2.433719713 0.171686399 0.278956476
C 0.457029167 1.271709110 -1.188760924
C -2.157631709 0.910107824 0.434656567
O -4.292290433 0.476117650 -1.172742906
C -4.499333098 -2.070910306 -0.218222304
C -2.282625357 -1.603445297 1.456969809
H 6.256434181 0.472055872 1.639007372
H 5.281268774 2.897567995 -0.478865708
H 5.998990914 -0.111851963 -1.633569912
H 1.935190686 -1.176648157 1.727952151
H 0.924872783 3.194312520 -1.827200813
H -0.208783537 0.242069287 -2.852821586
H -2.353869374 2.636699127 1.551649718
H -4.261778537 -3.483053128 -1.722435341
H -6.333022324 -2.376458536 0.698610224
H -1.623751387 -2.477857498 3.173971734

