14

C -2.435352248 0.457179911 -1.980919678
C -1.141876138 -2.079561303 1.149161184
O -0.212469656 -0.397315692 2.663219260
C 1.331208460 1.380621661 1.518343314
C 3.704880746 0.484170340 0.461930493
O 5.365280971 1.832428419 -0.335375327
H -2.976820633 2.407773717 -2.408299533
H -4.196438158 -0.512612702 -1.543406468
H -1.613926228 -0.379042154 -3.673174127
H -2.660163459 -3.193074579 1.959575240
H 0.027106402 -2.923610027 -0.306907699
H 1.429188473 3.083963285 2.652924089
H -0.544235927 1.274240795 -0.611044454
H 3.913677417 -1.613428966 0.399912403

