11

O -2.604540977 1.496638108 -2.924813745
C -2.030585611 0.642625614 -0.461183938
C -0.096194014 -1.421898023 -0.513620531
C 2.006150639 -1.503243533 0.862564923
C 2.688351880 0.441622608 2.617213518
N 3.268219482 1.993938076 4.020454767
H -1.162176068 2.376796929 -3.581658131
H -1.426029871 2.190880325 0.771406311
H -3.795611316 -0.107565913 0.304534959
H -0.471162183 -2.953296680 -1.825909525
H 3.313593072 -3.070779554 0.717080351

