11

O -3.177386432 1.912635577 -2.135305256
C -0.939760991 1.233621019 -1.298027968
C -0.473556617 -1.362652161 -0.529623639
C 1.763458915 -1.930876083 0.981627117
C 2.630867243 -0.071063623 2.617936301
N 3.214832338 1.603810411 3.918367604
H -3.357466144 3.722126651 -2.156594854
H 0.381160254 2.726456979 -0.783252456
H -2.138788173 -1.463310577 0.768152240
H -0.926890387 -2.729355385 -2.010835988
H 2.861332912 -3.610263350 0.635656285

