13

O 3.043397045 0.601268051 1.501334909
C 2.340907137 -0.619829054 -0.710992088
N 0.678057279 0.659304809 -2.457638846
C -1.198254076 2.102637977 -0.906431343
C -2.177957698 -0.298579373 0.406090012
C -0.182791961 -1.717115687 -1.090812469
H 3.900535184 -1.526922085 -1.694179098
H -0.340994730 3.540218912 0.290563476
H -2.570083635 2.974064827 -2.165461374
H -2.023400910 -0.399692949 2.459817738
H -4.095039252 -0.790852367 -0.151753039
H -0.464974615 -3.490037972 -2.077953240
H 3.262892230 -0.637053794 2.806097522

