16

C 4.868147469 1.553210462 1.349686882
C 3.622843918 0.002078510 -0.090485246
C 2.398088568 -1.556416325 -1.543464123
C -0.380704679 -2.122694490 -1.362860522
N -1.601380828 -0.744715195 0.653765644
C -4.287165175 -0.319982374 0.362698367
C -2.462245772 1.775484376 0.025670134
H 5.072645164 3.530386743 0.854813739
H 3.436408282 -2.542986890 -3.015086567
H 5.724979416 0.909517493 3.095138200
H -1.257890771 -1.731636512 -3.216399261
H -0.634939569 -4.144969898 -1.007837486
H -5.401220425 -0.459352396 2.074701003
H -5.194658582 -1.055689282 -1.326955008
H -2.135829315 2.437743110 -1.891069758
H -2.215742148 3.189806940 1.484280793

