16

C 4.158560771 -0.150673401 -0.649683514
C 1.549277677 -0.301481086 0.367481377
C -0.097367609 1.351283399 1.329005323
C -4.060081265 1.988340065 -2.809156497
C -2.136298610 -0.607481224 1.791179912
C -0.211650006 -2.534277161 0.680325915
H 4.218281918 -0.802354091 -2.609407022
H 4.884888402 1.776760073 -0.579184560
H 5.432203543 -1.367425042 0.429767978
H -0.004619341 3.366502550 1.689630981
H -2.167330199 2.615569891 -3.442860562
H -4.643609682 3.550289149 -1.537940756
H -2.655307789 -0.921731889 3.764097998
H -3.876631869 -0.436093704 0.678499664
H -0.815188128 -3.451018642 -1.067487372
H 0.422523259 -3.979260249 2.011874487

