15

C 3.640947891 0.546224013 -0.435084817
C 0.849669035 0.639799377 -0.051635746
O -0.433062697 2.124491639 -1.984317878
C -2.635978442 1.297061449 -2.670595579
C -3.137542312 -1.087749488 -1.165722403
C -0.925414152 -1.429991323 0.612700138
C -0.463557680 0.719590077 2.434966536
H 4.447684030 2.441772838 -0.351571565
H 4.516942436 -0.591579859 1.042466528
H 4.104884933 -0.283180694 -2.264948519
H -1.945843507 2.106583517 2.705243896
H -4.977070225 -0.915489367 -0.239824783
H -3.329420303 -2.628631810 -2.532604527
H -0.238833849 -3.298406949 1.075831042
H 0.667761182 0.330208267 4.094697363

