8

O 3.813205177 -0.838930401 1.205403250
C 1.470345536 -1.053937525 0.542923153
N -0.374229929 -2.348746156 0.467490597
O -2.679265151 -2.093629180 0.100032426
C -2.381883902 1.936943766 -0.684828471
N -0.256401518 2.434675745 -0.455118125
H 4.780945603 -0.117533501 -0.160532669
H -4.370463263 2.036219602 -1.014999794

