15

C -4.438809007 -1.054976496 -0.255761222
C -1.622054280 -0.606700446 -0.157214102
O -1.238996326 1.717670699 1.209568169
C 0.781591878 3.203065467 1.141771806
N 2.954294814 2.214208862 0.313836909
C 3.899619518 -0.359951234 -0.086982260
H -5.213216977 -1.201998795 1.648187189
H -5.384285795 0.501482253 -1.218892739
H -4.847212403 -2.805691325 -1.267722279
H -0.674093371 -2.173347616 0.792213159
H -0.846989592 -0.406806370 -2.059630815
H 4.322520817 3.529826250 0.335803709
H 3.233511884 -1.191525480 -1.847951574
H 3.386526579 -1.588649705 1.482471701
H 5.954079531 -0.269236840 -0.164128988

