15

C 3.105920694 1.195528789 -0.529166174
C 0.368085352 -0.529077413 1.019898380
O 1.262639615 -1.491842853 3.133019196
C -1.963978604 1.269380212 0.997597986
C -3.182526487 -0.652485770 -0.765135028
O -1.708711508 -0.716477037 -3.001104067
C -0.892671000 -2.221980493 -0.945740481
H 2.182017056 1.252428102 -2.360850268
H 3.341524188 3.088069056 0.238535140
H 4.923793932 0.226582055 -0.747002747
H 2.791213850 -0.186493160 1.546149651
H -2.747569434 1.312911073 2.899532819
H -1.778126251 3.164862480 0.220885022
H -5.138132451 -1.232626153 -0.892250536
H -0.625883377 -4.230663498 -1.212500192

