11

N -2.375956738 1.734702725 0.700299035
C -1.011742152 -0.397464508 0.898547935
O -1.596698729 -1.899281336 2.646494862
C 1.044950233 -0.961775015 -0.850377096
C 2.412736364 0.821780910 -1.958260217
O 0.075663084 -3.927997478 3.023349564
H -2.401584429 2.666365767 -0.949515058
H -3.827313626 1.986664804 1.900854457
H 1.398399694 -2.963515374 -1.076429669
H 3.911516799 0.336988661 -3.262434066
H 2.144632396 2.813970725 -1.555957556

