15

O 1.704805746 -1.295316722 -2.625455067
C 2.795000067 -0.592694609 0.598944387
C 0.413458111 -0.381650335 1.752428527
C -1.113350533 2.013245654 1.310499462
C -2.120514918 1.289784794 -1.331231571
C -1.081596294 -1.400657369 -1.278605439
O -2.136009217 -3.382688338 -1.591205408
H 1.999802293 -3.049243801 -3.033293209
H 3.855614864 1.053861331 -0.007442044
H 3.950135525 -2.233782513 1.009390558
H -0.055249942 -1.660325429 3.276790920
H -2.628656887 2.217656270 2.686980166
H 0.004140995 3.747843348 1.335190207
H -1.312120847 2.366873845 -2.891288926
H -4.171801836 1.260653853 -1.514494509

