14

C -2.398113683 -1.983576689 0.648722551
N -0.514084213 -0.152552658 -0.115558094
C -1.288880768 2.454020550 -0.333913378
C 1.938536805 -0.781095787 -0.189397423
O 2.744866332 -3.071826633 0.080000516
N 3.954533201 0.630981518 -0.575561086
H -1.538960660 -3.846746889 0.698784438
H -3.148923150 -1.536341916 2.524076401
H -3.962789755 -1.994133417 -0.698721699
H -0.012441201 3.472851234 -1.586095627
H -3.175681200 2.531385276 -1.160994460
H -1.341284555 3.411032945 1.501097749
H 4.728670903 -1.714955314 -0.231819847
H 3.996335020 2.530392489 -0.559996432

