18

C 5.395368321 0.591057955 0.693156229
N 2.562310927 0.450537731 -2.097433161
C 0.917966647 0.075649648 -0.335954717
O 1.821191352 -0.061567202 1.868691696
C -1.906977472 -0.180876610 -0.741899541
C -2.805865841 -2.766821492 0.171973883
C -3.292081772 1.958076479 0.615208182
H 5.309116043 2.588344890 1.099821134
H 6.565745384 0.110613248 -0.905493529
H 5.729381193 -0.597472139 2.320208060
H 1.992109880 0.607066335 -3.917486576
H -2.273956786 -0.027565340 -2.769685617
H -2.443843297 -2.978426957 2.190518688
H -1.834593988 -4.295205657 -0.815418183
H -4.832301764 -2.976405290 -0.155823509
H -5.325097910 1.807036320 0.296526583
H -2.938492263 1.862912064 2.644073802
H -2.670493950 3.805478710 -0.059661980

