13

O 2.710261781 1.243124281 -1.828126590
C 4.069676085 -0.033513783 -0.013323117
C 1.683976750 -0.889116897 0.992045801
C -0.597829921 -1.221861801 1.430900470
C -3.304328009 -0.812105815 1.954432615
C -2.495280414 0.110652592 -0.542700525
O -1.942011861 2.518707935 -1.007644016
H -0.097391344 2.487758340 -1.512168086
H 5.162204085 1.131822398 1.315283020
H 5.272831771 -1.562722436 -0.732445393
H -3.652157916 0.585533303 3.411805805
H -4.485079707 -2.483178192 2.023648124
H -2.801018051 -1.146227308 -2.144063967

