11

C -3.452446293 0.199012690 -0.564886986
C -0.672510518 -0.249804314 -0.508630615
O -0.146935882 -2.785444818 -0.299051427
H 1.649142503 -3.036304052 -0.282646374
C 1.135951166 1.488679168 -0.640813329
O 0.835718283 4.047355037 -0.866362157
H -0.925434486 4.447651810 -1.018857424
H 3.119433861 0.979024530 -0.570630752
H -4.329465901 -0.631476532 1.107705052
H -3.938914237 2.201196170 -0.601469458
H -4.291887600 -0.694570972 -2.224896322

