13

C -2.453739944 0.086997322 1.111007178
C 0.095229649 -0.555858310 0.060976681
O 0.458692353 -0.372404661 -2.639203732
C 1.770331093 1.337751599 -1.125450582
O 1.202293763 3.847414322 -1.302643435
C 1.375193669 -2.827085292 1.161941874
O 0.775347731 -3.791213357 3.121989791
H -2.340175265 0.192852031 3.164476465
H -3.164146085 1.881836102 0.394686573
H -3.814242428 -1.381921358 0.624024529
H 3.809427482 1.102723696 -1.059594420
H -0.574717436 4.046408057 -1.621749694
H 2.965950305 -3.555543873 0.006961732

