10

C -2.743667584 0.238817125 2.442857767
C -3.529476386 -1.301836541 0.165321877
H -5.033290446 -2.654271747 0.574346389
C -3.372439673 -0.269920826 -2.469140003
H -4.153839252 1.033718930 -3.820431262
C -1.709047426 -1.953249873 -1.905991697
H -0.099882325 -3.072324935 -2.448437562
H -4.336279932 1.317668591 3.196437214
H -2.044493806 -0.977437103 3.959560685
H -1.246359417 1.570302921 1.948815933

