9

N 0.154402435 1.559256376 -0.244469409
H 1.546644495 2.774891680 -0.743065653
C 1.177359658 -0.967347969 0.191108778
C 3.873772014 -1.353319484 0.023810965
N 6.022276648 -1.621231116 -0.107544257
H 0.264170125 -2.027904297 1.684228934
C -0.225627271 -0.362203372 -2.162197798
H 0.854861227 -0.266020432 -3.899077450
H -2.146472744 -1.041424666 -2.351207562

