12

N 0.877711758 1.454166382 1.627606504
C 1.211660266 -0.996920595 0.450899406
C -0.988273851 -0.735277355 -1.226264920
O -3.651288945 1.480167917 0.610685576
C 3.573256144 -1.382422306 -0.942312310
N 5.405197202 -1.631770591 -2.075433045
H 1.875247289 2.760459143 0.632711166
H -1.902306655 1.874011540 1.508868038
H 0.999248114 -2.524135285 1.824299894
H -0.783918187 0.502589500 -2.836893084
H -2.519222885 -2.083530597 -1.292036894
H -4.747825772 0.595901739 1.764519467

