12

C -2.045845716 0.861564861 1.529691762
C -1.329443002 -0.608531232 -0.776083666
N -2.372797022 -0.718027085 -2.892577190
N 3.499206999 1.068964533 -0.501486864
C 3.041237088 -1.248953992 -0.263701190
O 0.710360031 -2.237098680 -0.398439135
H -3.729647591 1.989737026 1.180331706
H -0.493925238 2.103378806 2.067142344
H -2.409450357 -0.439328367 3.088507132
H -3.904604899 0.436685113 -2.945591832
H 5.377738972 1.406600085 -0.352881750
H 4.404576316 -2.759417167 0.061850547

