12

C -1.925206281 0.923422211 1.547591248
C -0.838875448 -0.230084209 -0.792956653
N -1.766394094 -0.614727530 -2.912516466
N 2.535457409 0.721038628 -0.812513655
C 3.018156994 -1.502240126 0.020890412
O 1.013437236 -2.786254226 0.322776182
H -2.418538013 2.887084531 1.160056853
H -0.609656186 0.862340102 3.122733115
H -3.631514114 -0.111261537 2.065351677
H -3.572093414 -0.000486510 -3.063910835
H 3.843384689 2.033874377 -1.256222011
H 4.865289220 -2.293114868 0.471815575

