8

O 4.363202009 0.832928423 0.301392665
C 2.201323235 -0.615278348 -0.403751608
C -0.280405650 0.600099104 0.303379013
O 0.122931673 2.751712262 1.384732023
H 1.955711619 3.089140568 1.486377784
H 2.133987361 -0.992331357 -2.435692965
H 2.252103805 -2.450239661 0.552625820
H 5.349293964 1.239004017 -1.158380288

