13

C 3.378259198 -2.033402418 0.645045408
C 2.184051063 -2.849644654 -1.391898488
O -0.380548096 -2.995507700 -1.695972335
C -1.904076837 -1.487944745 -0.244206359
N -3.786192657 -2.315601739 0.932919502
H -3.919709177 -4.227516404 0.797728684
C -1.340393549 1.292687583 -0.336398670
N -2.459280659 2.907019120 1.002767672
H -3.734339460 2.014491853 2.150971218
H 0.089686855 1.894120834 -1.689598119
H 3.139584691 -3.567319890 -3.051731984
H 2.400183915 -1.375315594 2.317406106
H 5.419496703 -2.020552204 0.660443539

