15

C 3.364716929 0.119447226 0.643145478
C 1.768197119 -1.255774221 -0.839167581
O -0.014125892 -2.914995087 0.271686945
C -2.248851529 -1.700379951 -0.055626318
N -4.383289269 -2.406368346 0.680080175
C -1.656253731 0.736900875 -1.389612128
N -1.802115473 2.939226762 -0.268674363
H 3.358791617 -0.168110338 2.670803298
H 2.168175153 2.840870636 1.005117282
H 5.085895716 0.857849886 -0.176097474
H 2.197716617 -1.681855174 -2.793910338
H -4.298470178 -4.103025518 1.582508719
H -1.606868347 0.712697944 -3.443160367
H 0.741239857 3.521945090 0.515091191
H -2.387314219 2.711624595 1.554196804

