13

O 2.195746238 4.765989498 0.187925799
C 1.775081259 2.503446922 0.618526938
C 3.517976061 0.707369861 1.546406351
O -1.749187590 -4.125819980 -3.087116123
C -2.494073144 -2.194031217 -2.194181242
C -1.599672307 -1.222227236 0.379320946
C -0.668322903 1.393735227 0.177787002
H 3.060155760 -1.262182472 1.806098298
H 5.433122460 1.299942903 1.970213680
H -3.896946235 -0.994356690 -3.180138497
H -0.267124580 -2.577056744 1.151879347
H -3.302703412 -1.199610068 1.572015995
H -2.045842881 2.760791546 -0.521707652

