15

C -3.134504672 1.886569054 -0.084218253
C -3.457632155 -0.980448854 -0.248706723
C -0.991885987 0.161872712 0.300527492
N 1.235202606 -0.018773976 -0.840587597
C 3.190491456 -1.950562304 -0.807716982
C 3.557890365 0.778659665 -0.356269499
H -3.233149037 2.944857201 -1.835318661
H -3.917889579 2.845934649 1.545026889
H -4.449184718 -1.914435390 1.279528249
H -3.783723030 -1.790853840 -2.101494314
H 1.004544487 0.669473936 3.265763688
H 3.224785090 -3.183216048 0.844441637
H 3.519866203 -2.875156372 -2.611748430
H 4.656780430 2.341229203 -1.055985988
H 2.502314957 1.008645250 2.928311893

