18

C 3.977824586 0.336934502 -0.075730340
C 1.635748729 -1.313619021 0.132964191
C -0.898301930 0.053665822 0.328949899
C -3.082313460 -1.719027013 0.852093553
C -1.419733720 1.659492438 -2.001844048
C -0.456891727 1.343642631 3.605588602
N -1.139423368 3.105964554 2.424881653
H 3.940494180 1.530126455 -1.756236740
H 5.659937726 -0.848121992 -0.194073097
H 4.170874509 1.553363699 1.575682140
H 1.819154170 -2.599099870 1.731905836
H 1.466192882 -2.483751195 -1.572397267
H -2.697339248 -2.951471866 2.452763031
H -4.813831184 -0.668010003 1.216310428
H -3.378212295 -2.881821644 -0.832966785
H -3.261381697 2.565993531 -1.900661781
H 0.002125224 3.113122591 -2.289824760
H -1.396941695 0.384358918 -3.631373726

