16

C 5.438375332 -1.477078177 0.139359214
O 2.888661016 -1.433903453 1.043967500
C 1.119626446 -1.150766978 -0.629956380
C -2.928890564 3.108669111 -0.371272583
C -3.411353877 0.282214855 -0.619673076
C -1.379112450 -1.289717576 0.687132141
H 6.463410913 0.040629055 1.079454440
H 5.432517653 -1.218767998 -1.902128189
H 6.259641896 -3.293167552 0.655102247
H -1.112746086 3.616229196 -1.213792746
H -2.885961958 3.685464982 1.612388199
H -4.393549235 4.210248068 -1.317230817
H -3.465640134 -0.240942689 -2.617330511
H -5.259093424 -0.187734558 0.176536722
H -1.238278362 -0.851638035 2.710589044
H -1.865841668 -3.306347787 0.541260327

