15

C -2.211537659 2.413676635 0.467295520
C -0.700968451 0.027373552 1.008029445
C -2.215345721 -2.374262958 0.552306154
N 1.580219183 -0.003966724 -0.565665157
C 3.846585601 0.024292713 0.356257046
C 5.769806006 -0.019374682 -1.544458100
N 7.474272717 -0.050441382 -2.902890012
H -3.888028920 2.478479747 1.663921389
H -2.843741773 2.466218581 -1.499740906
H -1.081168346 4.096948537 0.834899824
H -2.844946492 -2.496641659 -1.412527192
H -1.088888690 -4.045431107 0.982092613
H -3.893987737 -2.393354880 1.747448966
H 1.235345129 -0.052438936 -2.460903253
H 0.008727851 0.061460394 2.942132518

