15

C -1.216543696 2.326377638 -0.024944517
C -0.434136080 -0.416156980 0.145830373
C -2.406777586 -2.292265889 1.014330585
N 0.936931712 -1.364082797 -2.106233464
C 2.916364213 -1.484008483 -0.252672200
C 4.564529330 0.708446853 -0.293128232
N 6.070669000 2.283305148 -0.301920825
H -2.004820480 2.972671399 1.765151316
H -2.668349772 2.536472702 -1.478028917
H 0.376854551 3.543406956 -0.507217950
H -3.890753603 -2.398898202 -0.413799188
H -1.558811459 -4.157734469 1.204233075
H -3.237379397 -1.727450259 2.814445387
H 1.175059861 0.122136458 -3.303983153
H 1.122638103 -0.584274991 1.739457068

