11

N 4.951900036 -0.595705075 2.648825443
C 3.394072124 -0.349764287 1.164007666
C 1.415249589 0.043346009 -0.784498144
O -0.195575127 -1.990052233 -1.010032271
C -2.677049504 -1.224577243 -0.124189059
C -2.625695800 1.538876568 0.372066211
N -0.281674923 2.141207551 -0.043626180
H 2.358649511 0.452493843 -2.580445571
H 0.411445439 3.902867258 0.183706702
H -4.063673124 -1.704187088 -1.573773384
H -3.156016842 -2.242970267 1.611242571

