15

C -1.968358347 -1.917487864 1.034390935
C -0.355919333 0.154539913 -0.045001503
C -1.317356975 1.753730151 -2.126806723
N -1.114836671 2.874375462 0.352234707
C 2.891536273 -1.007318700 -0.872793897
O 2.821297061 -2.699014131 -2.327656321
N 4.260582530 0.447582313 0.537672304
H -3.976219472 -1.468266479 0.836297578
H -1.615092246 -3.686077234 0.036659005
H -1.569003678 -2.213762981 3.036489567
H -0.026762679 2.500084967 -3.531170072
H -3.179854679 1.265644733 -2.833224597
H -2.804192829 2.883439930 1.261368793
H 1.749317036 0.851640227 1.062131321
H 6.164510815 0.207240387 0.487142331

