12

C 2.905206778 1.173202430 1.080679890
N 0.996520408 0.804970379 -0.873472686
C -1.402400660 -0.739328777 -0.444450678
N -2.008924512 -2.860004170 -1.871181014
C -1.341707627 1.867304959 -0.663583187
O -2.168376767 -0.058354384 1.885799104
H 4.435965215 -0.168270549 0.776634333
H 3.663110372 3.082497349 0.910137795
H 2.106396869 0.921762313 2.966589070
H -3.893169467 -3.173481332 -1.819453011
H -1.100618277 -4.409035238 -1.219225180
H -2.334092728 3.636886624 -0.798129740

