19

C 3.063653737 2.055667813 0.155078069
C 1.428033038 -0.312597173 0.170527884
C 2.934325946 -2.612792636 -0.753427381
C -0.754481300 -0.152129227 -1.665943491
C -3.033748387 -1.494514226 -0.732020544
C -3.597937838 1.161198040 0.188400895
O -3.554821733 1.367635255 2.807946940
H 2.023492618 3.688918891 0.878117350
H 4.739446915 1.814258948 1.337089703
H 3.667952739 2.498441510 -1.767668846
H 0.818312186 -0.705557821 2.117854750
H 4.580014313 -2.900513209 0.456347826
H 3.588060088 -2.327600423 -2.689777924
H 1.801693120 -4.336705952 -0.708083138
H -1.983712164 2.319206619 -0.809387784
H -4.343848379 -2.212649876 -2.139333510
H -2.822210593 -2.781704351 0.867491420
H -5.250322317 1.995511878 -0.720676235
H -3.370329699 3.111298193 3.267624445

