9

C -2.752122370 0.206136825 -1.620603141
C -2.749873426 2.981048498 -2.154025809
H -3.356027836 3.359969502 -4.092143814
H -4.004434084 3.997538965 -0.872517789
H -0.849605105 3.767545765 -1.958799413
C -4.086204329 -0.913393491 0.175564817
H -5.312068891 0.158863153 1.422138226
H -4.002632457 -2.937704531 0.467815932
H -1.549537571 -0.948175998 -2.823383678

