17

C 3.912612292 -0.137735788 0.367061272
C 1.273782461 -0.855121632 1.268109711
C -0.834066813 -0.382389105 -0.656701012
C -1.091009454 2.410672954 -1.329745018
C -3.341164214 -1.421556908 0.318323364
H 4.094709684 1.891911026 0.047650540
H 5.339386243 -0.669777539 1.758226131
H 4.377814808 -1.095186788 -1.403678833
H 0.828283949 0.177479846 3.008996074
H 1.258063266 -2.861127064 1.775045506
H -0.343437031 -1.415162604 -2.387404831
H -2.619375516 2.708465332 -2.684418189
H -1.521668211 3.529944131 0.355603390
H 0.633679443 3.170437833 -2.166186934
H -3.906826763 -0.455788127 2.056949199
H -4.851674878 -1.155960097 -1.063037331
H -3.209109283 -3.439105507 0.735206925

