11

C -3.291464020 0.167466868 -0.843565257
C -0.854484510 1.222757852 0.183712465
O -0.619826711 3.306610364 1.028505837
N 1.170440936 -0.497374612 0.055466070
C 3.544475010 -0.036681908 0.837297848
O 5.157694934 -1.865191772 0.557572291
H -3.074382128 -0.325732735 -2.835713952
H -4.765221287 1.581689919 -0.642260538
H -3.829018972 -1.541270416 0.180755120
H 0.867491042 -2.245176957 -0.683061596
H 5.778634183 0.124933876 1.470723444

