21

C -3.393835322 2.371174182 1.425115773
C -2.661088102 -0.230158305 0.485190017
C -2.450929638 -0.527035923 -2.163432753
C 0.466913134 -0.933334788 2.085847798
C 2.564618661 0.130532435 0.906495764
C 4.261397588 -1.181924877 -0.914427077
C 2.625750224 -0.355484942 -3.064342883
H -2.142806014 3.810529305 0.631587591
H -5.318892824 2.836749333 0.841403618
H -3.306525515 2.517051779 3.481579992
H -3.622601258 -1.754212579 1.469270981
H -2.963439331 1.061782099 -3.360473681
H 0.151063440 -0.294647458 -2.548379583
H -2.883297256 -2.360288414 -2.979178407
H -0.060681544 -0.055579170 3.861580030
H 0.438567809 -2.988028636 2.164442509
H 2.891327892 2.144576574 1.141758257
H 6.206344854 -0.504922726 -0.928327222
H 4.258034820 -3.224750660 -0.643876594
H 2.326789749 -1.727227630 -4.568905614
H 3.117803934 1.488152123 -3.819219211

