12

C 1.878983674 -1.770095652 -0.632738529
C -0.447309550 -0.881259360 0.954675031
C -1.217813157 1.874211360 1.058357330
O -0.736126617 3.183531916 -1.212987704
C -0.725089842 -2.432065315 -1.320344689
O -2.092227211 -3.488169997 -2.759090792
H 0.981634827 3.753972618 -1.216400304
H 2.803100473 -0.375772399 -1.817967536
H 3.121808131 -3.182936690 0.174581384
H -0.695445878 -1.884591814 2.729922661
H -0.276847277 2.793355911 2.658649505
H -3.252265790 1.988762003 1.381966031

