13

O 3.872830760 -1.877361212 0.332958594
C 2.688386198 0.311037128 1.226367758
C -0.087125747 0.520235347 0.510257045
C -1.267252191 -1.274205797 -0.713611966
C -2.388618508 -3.085728346 -1.925761595
C -1.357603531 2.782086189 1.276262556
C -2.312747969 4.714734287 1.971461183
H 2.898411833 -3.323218751 0.835528365
H 2.831559294 0.483495178 3.289754914
H 3.698096762 1.912738453 0.406521267
H -2.433643387 -3.113513878 -3.974407905
H -3.331575611 -4.607512020 -0.928154576
H -3.184673934 6.422217076 2.579030657

