13

O 3.777185371 -1.894337472 -0.138041356
C 2.661754193 0.264355564 0.900764584
C -0.186848088 0.325703047 0.603984721
C -1.484163743 -1.777845248 -0.308796045
C -3.057443247 -3.610180561 -0.488609798
C -1.458182541 2.603678393 1.182492437
C -2.493115657 4.553913132 1.711369993
H 3.046639040 -3.368872059 0.633430944
H 3.056121308 0.440374822 2.933969090
H 3.524250462 1.892916417 -0.025974418
H -0.212935322 -1.296687775 -2.051285444
H -3.772374469 -4.411628717 -2.231174029
H -3.432470300 6.268774432 2.185225395

