14

C 4.414079540 0.577557562 0.404627289
N 2.450386739 0.419049263 -1.492445562
C 0.001764985 -0.001051349 -0.658654271
N -1.914373992 0.564292006 -2.240103515
N -4.008695001 -0.058414250 -1.158019067
C -3.520522108 -1.104424147 1.330126327
C -0.761520171 -1.041943509 1.668870242
H 4.470730827 -1.177500896 1.477731644
H 6.226974409 0.832800565 -0.539002104
H 4.124273750 2.123527217 1.756401543
H 2.552181863 1.743973703 -2.853657790
H -5.650323575 0.242035650 -2.064817962
H -4.494895814 0.001477823 2.782547773
H -4.234656772 -3.044490459 1.449409242

