14

C 4.368939275 0.509184701 0.430847862
N 2.397316898 0.300804242 -1.453173463
C -0.077226549 0.087251509 -0.663860599
N -1.935479625 0.682667682 -2.233690427
N -4.085446209 0.279345193 -1.018213027
C -3.590785035 -0.802905400 1.352908412
C -0.884889939 -0.733732088 1.806451885
H 4.262946369 -1.095878144 1.713182373
H 6.195354150 0.474436587 -0.519982993
H 4.235863816 2.237030121 1.568842257
H 2.600640450 1.429568610 -2.970512217
H -5.703792071 0.272762370 -2.009640963
H -5.033791526 -0.680804828 2.800806666
H -3.022862846 -2.885774252 1.108995338

