8

O -0.413888742 0.990296311 -1.429901467
C -1.739283384 -0.360678306 0.310741613
N -0.795482555 -1.160540812 2.327988554
C 2.175752765 1.011029933 -1.304759570
O 3.360466217 2.371185463 -2.628993995
H -3.683429104 -0.572060897 -0.336438619
H -2.092991794 -2.122128725 3.356977008
H 2.931354975 -0.341150953 0.068500796

