8

O -0.774937056 0.455477230 -2.249018543
C -1.906480229 -0.392003275 -0.296634675
N -0.436345264 -0.399633838 1.634659150
C 1.986281227 0.696392725 -0.543695050
O 2.871505459 2.711266983 -0.270931036
H -3.864240141 -1.027660127 -0.391699351
H -0.897302851 -1.064492345 3.359253277
H 2.879912208 -1.096406417 -1.040885810

