11

N -3.020504733 0.038667822 -0.598892268
C -0.652017213 0.675732293 0.649086984
C 1.291644549 -1.429009875 0.521816443
N 3.430369529 -1.146593518 -0.471962482
N 1.048635823 4.944453306 -1.171791655
C 0.335035837 3.059973023 -0.381434642
H -3.885166420 -1.424715038 0.270982531
H -2.728034485 -0.418855566 -2.431864097
H 0.606746669 -3.214161579 1.327591902
H 4.451675868 -2.774683773 -0.426469121
H -1.077029676 1.026719157 2.644499973

