13

C -3.232398873 -0.836779270 0.753033789
C -0.893047169 -0.063727045 -0.697559480
C 2.375586257 2.844231590 0.192012898
C 3.325397719 0.245408546 0.296995046
O 5.537224864 -0.200997450 0.703508375
N 1.364970949 -1.388589124 0.007821482
H -3.666162261 -2.820128284 0.372179160
H -2.938675113 -0.612733624 2.779594698
H -4.860593119 0.288165187 0.181276608
H -1.206395942 -0.034293295 -2.739854306
H 2.728583583 3.659871741 -1.687526676
H -0.476210379 2.003751594 -0.117484084
H 1.521561536 -3.276435652 0.139757568

