15

C -2.333284115 1.278806222 -2.233314409
C -0.397388428 -0.423403834 -0.922083529
C -1.454620143 -1.602254070 1.491948753
C 1.920721299 1.085588057 -0.375233959
O 1.781541439 3.040232037 1.448077344
C 4.522046851 0.597537145 -0.695670869
C 4.010258825 1.561900178 1.697307804
H -2.920314496 2.810069858 -0.982156826
H -4.001131429 0.178436407 -2.739688539
H -1.564127050 2.107695772 -3.956853521
H 0.196151833 -1.914837599 -2.217557721
H -2.014977739 -0.145019397 2.838270732
H -3.112909317 -2.740940407 1.043226501
H -0.063362271 -2.829355345 2.393201094
H 4.512392580 0.948277552 3.588032063

