13

C 3.803174246 -0.208061945 0.648268544
C 1.655527906 -1.304092855 -0.863461503
N 0.312528878 0.492334335 -2.263895355
C -1.912713263 1.157924656 -1.735373578
C -3.493980923 0.313103638 0.450425803
O 1.210968664 -3.533877426 -1.000894141
H 4.832809874 -1.720813862 1.582235105
H 3.067021910 1.114755110 2.052340213
H 5.060069774 0.855233522 -0.591020009
H -4.079121994 1.953821251 1.558835912
H -2.794221594 2.515045211 -3.016988746
H -5.214832334 -0.578471755 -0.260594177
H -2.513392343 -1.030430523 1.660374090

