11

O 3.323564684 1.536636808 -1.367694612
C 1.149543702 0.524525895 -0.443650946
C -0.332030587 -1.937231685 -0.493767730
N -2.852038899 -0.789702658 -0.902480360
C -1.497883551 1.317189602 0.347687894
C 0.152772490 -0.438259368 1.900733949
H 4.542891626 1.662101281 -0.033181720
H 0.247552648 -3.843291034 -0.946571053
H -3.122558617 -0.404191688 -2.770017340
H -2.253586521 3.144182111 0.862384492
H 0.630890093 -0.770521163 3.847666695

