11

O 3.956591472 0.592008317 -1.382887896
C 1.513837545 0.557915598 -0.712857701
C -0.232991666 -1.736659291 -0.681702504
N -2.708182912 -1.093820478 -0.502233589
C -2.398522015 1.210819923 0.736843957
C 0.351833575 0.764670344 1.559501568
H 4.982369054 1.147029799 0.017701858
H 0.497111146 -3.651492752 -0.593387042
H -4.082989054 -1.570325125 -1.723108046
H -2.958657549 2.953546105 -0.212388209
H 1.077028485 0.825232306 3.493786282

