15

O -3.276341355 0.315942026 2.632047472
C -1.866629949 0.650277531 0.441530881
C 0.138654799 -1.396850761 0.377040859
C 2.291172380 -0.844893961 2.267199636
C 3.761422504 0.525852860 0.241362737
O -0.757468655 3.080736635 0.533228461
C 2.152359732 -0.878350977 -1.662321037
H -4.331887471 1.775931844 2.849598715
H -3.075015470 0.520889457 -1.249021644
H -0.592244041 3.754483903 -1.140574646
H -0.778981089 -3.243379561 0.419905705
H 1.932283267 0.140414682 4.038487573
H 3.345291017 -2.577412333 2.694184369
H 1.703370348 0.034289345 -3.459738065
H 3.196212696 -2.614200974 -2.102440084

