15

O -3.074471361 2.089775121 1.111206261
C -2.871053645 -0.427847695 0.228314518
C -0.106664533 -1.134584384 0.100377263
C 1.508564831 -0.719204781 2.512965813
C 3.483330162 0.527141710 0.829908943
O 5.661642410 1.044778703 1.101936040
C 1.674455875 0.644092533 -1.405775163
H -4.820886987 2.554172330 1.191237599
H -3.860110560 -1.732786014 1.502180033
H -3.718068559 -0.613426586 -1.656394005
H 0.045609579 -3.079126286 -0.570866647
H 0.657639771 0.666142537 3.784601488
H 2.124955245 -2.363755589 3.587658030
H 0.884377257 2.541048712 -1.601777746
H 2.410680494 0.003579689 -3.218777273

