11

C -2.627405586 -1.678564953 1.082732038
C -1.651544118 0.940533038 0.347376732
C 1.085717578 0.997292210 0.017778695
C 3.333804770 0.994986989 -0.240803926
C 8.004920115 1.010003471 -0.779678927
N 5.806832601 1.003285854 -0.526990438
H -1.793589124 -2.302333160 2.860412408
H -2.160419168 -3.069113818 -0.363894582
H -4.675513210 -1.638016211 1.306063103
H -2.164762704 2.327360825 1.789723027
H -2.535174177 1.568410247 -1.411058989

