15

C -3.912690867 -0.062557569 -0.993492311
N -1.442748467 0.510374057 0.017862750
C -0.431622385 -0.513676259 2.333235492
N 1.670593842 0.670844762 2.961600023
C 2.540954452 1.286462882 0.593597161
C 4.220908070 -0.483019421 -0.404835858
C 0.433518990 1.684891472 -1.057705110
H -5.376699225 0.905899669 0.085724799
H -4.015458671 0.524310126 -2.962082073
H -4.215817053 -2.097042800 -0.888858440
H -1.790874438 -1.292985234 3.657240939
H 5.416156763 -1.528133305 0.883621990
H 1.249243120 -2.536399022 0.522486597
H 4.802664358 -0.412713200 -2.370437075
H 0.380932844 2.335780953 -2.992051882

