10

C -3.172688913 0.417023438 0.131394037
C -0.448620566 0.067074789 0.755173922
N 0.457735509 -2.398106388 0.665524767
O 2.728220018 -2.542515498 1.278998370
C 4.562117113 0.126725166 0.258152198
O 6.312735755 0.961063004 1.167952658
O 1.084515448 1.804773298 0.933021906
H -3.360162613 1.133806611 -1.793372977
H -4.170425681 -1.375862858 0.281435494
H -3.993426070 1.806018495 1.409514308

