9

O -2.987509359 0.063979720 -1.689533906
C -1.622079092 1.752113849 -1.024415373
C 1.173382975 1.729957491 -1.199849043
C 2.408337762 -0.193067044 -2.142253590
C 3.589840342 -2.114835441 -3.081906867
H 4.181713733 -3.667165838 -1.884974200
H 3.993828336 -2.220980204 -5.086542531
H 2.190179294 3.374258818 -0.517572761
H -2.416593428 3.506420046 -0.202476879

