9

C -3.623324078 0.605003189 -0.149122106
C -3.422237773 0.669043343 -2.967181764
C -2.373779566 -1.112339398 -4.376504944
H -1.561202302 -2.799973297 -3.540904429
H -2.288037929 -0.953108334 -6.415604395
H -4.212946767 2.325669973 -3.891986706
H -2.681769227 2.238702131 0.694094459
H -2.776390082 -1.105673899 0.628945320
H -5.599352559 0.679645745 0.449022568

