10

C 2.649651763 -3.415961218 1.557809034
C 3.021217481 -1.446006374 0.061541558
O 2.796934410 0.965522947 0.874152742
C 3.087591579 2.836951042 -1.005540505
H 4.948735936 2.718561968 -1.901617547
H 2.911110698 4.657634322 -0.066898724
H 1.620060563 2.676169402 -2.454563695
H 3.543073268 -1.667073282 -1.916437195
H 2.873163694 -5.303447205 0.814560040
H 2.128498822 -3.178589035 3.520848577

