21

C -3.954735553 1.684552437 0.691736005
C -3.114227684 0.588275428 -1.807204317
C -2.714848921 -1.965923945 -2.083980484
C 1.449203772 -2.983694606 -1.826500084
C 2.868572434 -0.958219231 -1.062869429
O 3.237665615 -0.619941625 1.477562854
C 4.102409014 1.795695280 2.167993550
H -3.473578646 3.683667040 0.860899658
H -3.054781435 0.685389152 2.257155042
H -6.000324777 1.513479934 0.926797432
H -3.611790059 1.665462839 -3.484295586
H -0.471839915 1.678953839 -1.832810106
H -3.074289815 -3.206030976 -0.498352224
H -2.853520293 -2.832528478 -3.930072605
H 1.639016878 -3.622494961 -3.756494836
H 0.922306743 -4.379146895 -0.435215416
H 4.295594771 -0.126620608 -2.290099488
H 1.125426412 1.405972677 -1.694478128
H 5.824186939 2.306424492 1.136111982
H 4.514077025 1.740605946 4.182293198
H 2.653572794 3.230249819 1.798922895

