14

O 3.777567663 -2.004720268 -0.782784238
C 1.754017144 -0.483430417 -1.592818120
C 0.150770703 0.510967507 0.585713809
C -1.874427091 2.372911955 -0.297684399
C -1.060556177 -1.605575717 2.057936694
O -0.722683804 -3.820988958 1.669657577
H 3.049310433 -3.518130263 -0.087160122
H 0.532920304 -1.507086536 -2.922728470
H 2.579913235 1.110788632 -2.610156242
H 1.398971544 1.477839170 1.933507526
H -1.006286475 4.026260326 -1.168983938
H -3.036308777 3.029668922 1.275421383
H -2.355249592 -1.000948471 3.594880979
H -3.125654839 1.501620296 -1.689514801

