14

O 3.425588900 -2.439091789 -0.792497752
C 2.330928590 -0.102969362 -1.415701025
C 0.718501859 0.889182433 0.745943650
C -1.941459607 1.882699291 0.082123775
C -1.270491163 -0.820027131 1.631733136
O -2.032160414 -2.857062793 0.313096986
H 2.033144848 -3.602536203 -0.591649288
H 1.183810899 -0.261899751 -3.132764083
H 3.868515438 1.211333532 -1.814274047
H 1.708324265 1.948742593 2.192834548
H -2.243989755 1.943694643 -1.950945428
H -2.766458475 3.407293838 1.161189763
H -1.861392459 -0.617179790 3.603120563
H -3.118985807 -0.541094976 -0.054675862

