16

C -2.503990578 1.274374002 -1.214754428
C -0.528784657 0.565402390 0.679571630
C -0.879874058 1.684284247 3.238017898
C 1.564004048 -2.225971028 -2.538580257
C 1.453849191 -0.997968505 0.049908196
C 3.407882998 -1.161092139 1.860225912
H -3.307159140 3.127414457 -0.806908029
H -4.049476217 -0.099260794 -1.093579104
H -1.803415492 1.242986010 -3.149045963
H 0.395265869 0.829245328 4.600246873
H -0.502307062 3.716393071 3.167332182
H -2.858172988 1.474424076 3.803355452
H -0.248229510 -3.033297290 -3.110027730
H 2.133598418 -0.880352896 -4.001945013
H 2.948843483 -3.749619143 -2.531071487
H 5.108558200 -1.916476880 0.906318092

