15

O 4.332049251 0.222597908 -0.675086347
C 2.312090439 0.643287131 0.953368172
C 0.161184133 2.392931524 -0.026054486
C -1.654764665 0.122220154 -0.182587663
O -4.044578424 0.073368844 0.858824493
C 0.030749132 -2.765056336 -1.387488076
C 0.380673989 -1.541403339 1.065304795
H 3.693564386 -0.917169485 -1.963991586
H 3.069217053 1.230204016 2.774824123
H -0.498908200 3.698166587 1.423551590
H 0.533212739 3.406370064 -1.779193549
H -5.243272826 0.718972193 -0.338139108
H -1.525240266 -4.124554601 -1.179131201
H -1.613270247 -0.570327300 -2.283145485
H -0.136437886 -2.451681919 2.828252784

