12

C -3.083045710 1.046596827 0.290378774
C -0.747742007 -0.614252926 0.197560378
C 1.689504861 0.805021118 0.627903684
C 4.248466040 -3.181980942 0.283700690
C 4.072152987 -0.764198555 0.586042017
O 1.811710633 3.038773395 0.984284072
H -3.256480049 1.977713096 2.119372106
H -3.003221732 2.516958861 -1.149403692
H -4.775061223 -0.085440131 -0.026707178
H -0.569216311 -1.573046217 -1.627966742
H -0.827460066 -2.121914203 1.613598172
H 5.867060194 0.217524692 0.842641805

