12

C -2.995935988 0.997214920 0.084232747
C -1.001849398 -1.084758202 0.072168849
C 1.570520372 -0.132398086 -0.428874534
C 3.792316730 -0.505533883 -1.574958034
C 4.270375280 0.300541911 0.968886357
O 2.547400194 1.835733626 1.865966144
H -2.602790996 2.369345683 1.568243176
H -3.034929674 1.992742333 -1.719621577
H -4.861840735 0.188377783 0.414189322
H -1.382605836 -2.490693879 -1.388989028
H -0.971281226 -2.070944529 1.887909758
H 5.581737609 -0.624743570 2.269098093

