8

O 1.110558123 -1.563475567 -2.166453461
C -0.775196799 -0.584826281 -1.428863950
C -3.494679102 -0.199412329 -1.758864386
H -4.132863878 1.011265714 -3.282494322
H -4.772764544 -1.725369746 -1.277700203
C -1.980067978 1.064107313 0.437366189
H -1.652441530 3.082453224 0.322080593
H -2.279978626 0.345790741 2.331741437

