12

O 4.137510242 0.973795468 2.655502582
C 3.490199184 -0.422235851 1.062380311
O 2.075145126 0.910541686 -1.928831210
C 0.165075041 0.131089942 -0.658943985
C -2.359038908 -0.882526912 -1.300272850
C -2.030463364 1.372069876 0.528938934
H 4.389297615 -1.796099549 -0.171838390
H 1.184569133 -1.371761472 1.171623262
H -3.010742918 -0.517245215 -3.206840572
H -3.024558743 -2.634457326 -0.481657760
H -2.474993410 3.249221328 -0.152793409
H -2.480887145 1.031504454 2.495199609

