12

O -3.292135213 1.259688562 -0.738878814
C -1.845286758 -1.511620821 0.641693847
C 0.886918050 -1.128541494 0.072841270
O 1.330817986 -1.023033284 -2.537180480
C 1.987098061 1.194132735 1.342318783
O 3.056500463 2.823695634 0.178214931
H -2.157842999 1.612908100 -2.132944667
H -3.788236849 -0.651182180 -1.058376170
H -2.245595531 -1.133640901 2.634518307
H 1.810427131 -2.778372707 0.966893471
H 2.633441693 0.230671706 -2.796148265
H 1.711290020 1.317199070 3.410765945

