14

C -2.715951463 -0.654997178 0.390075358
C -1.144552708 0.923085480 -1.274478371
C 0.975572359 2.244181562 -0.331574823
O 2.995945606 1.120477900 0.764041179
C 3.091895241 -1.414593551 0.938031665
N 1.477901361 -2.961170129 0.136666505
C -0.836298429 -2.206404010 -0.867589119
H -1.694303782 1.246757809 2.778298649
H -4.621421462 -0.994199994 -0.313032906
H -1.996955289 1.776332371 -2.930390780
H -0.719477260 2.539521397 2.803031157
H 1.560093978 3.998829931 -1.213828160
H 4.863878691 -2.023406711 1.761579620
H -1.422296623 -3.469059858 -2.378664489

