15

C -1.485640677 -2.793872108 -0.862539014
C -0.424823925 -0.227195498 -0.414026522
C -2.029691336 2.067508403 -0.612879208
N -1.262772557 3.732645812 1.274943528
C 2.161219600 0.322437336 0.119477178
O 2.850411146 2.314423438 1.132690671
N 3.964231578 -1.410046058 -0.650858357
H -2.758398377 -2.824419040 -2.496172384
H 0.002173941 -4.189320334 -1.153795756
H -2.573909745 -3.465886214 0.765733202
H -2.069311277 2.953035916 -2.485264431
H -3.970177450 1.410180568 -0.200060108
H -1.375859948 2.798226529 2.957386217
H 3.626971609 -2.427980369 -2.218346210
H 5.742691989 -0.754834509 -0.496148388

