16

C -2.396632572 2.310202565 -0.117118857
C -0.668830370 0.382390768 1.136913717
C -1.137501403 -2.290252254 0.156448971
O -0.014386447 -4.182963598 1.640946137
N 1.926447604 1.383380624 0.911025872
C 3.232923347 0.899688668 -1.370648707
O 3.824831263 -0.632837796 0.691647377
H -1.940278094 4.216671550 0.517071227
H -4.364320803 1.924842603 0.356519529
H -2.211345832 2.254097050 -2.174239095
H -1.040406179 0.346942000 3.168616118
H -3.173289449 -2.623283130 0.226317097
H -0.584226481 -2.463275880 -1.838161791
H 1.774370798 -3.861309005 1.634191934
H 4.654326149 2.284178523 -1.899966796
H 2.277303000 -0.032163006 -2.934499631

