16

C -2.208666106 2.174237715 -0.484221287
C -0.746726998 0.388889819 1.242501503
C -1.230506826 -2.455307529 0.347987075
O -0.225896992 -4.262796514 1.938078339
N 1.889489380 0.504095782 1.282228441
C 3.230448146 1.008987592 -0.936523984
O 4.761867023 -0.846176159 -1.397196373
H -1.718629074 4.138705758 -0.101480693
H -4.225218554 1.939321779 -0.128019345
H -1.880987577 1.802774421 -2.486883889
H -1.436028752 0.460564807 3.188668191
H -3.282284562 -2.669983119 0.354594408
H -0.527840531 -2.608185106 -1.592954974
H 1.589041918 -4.189463065 1.816362610
H 4.058768945 2.915094468 -0.317970628
H 2.112158870 1.615549068 -2.620102551

