11

C -2.922675104 0.284875325 0.991951144
C -0.526359496 0.180879463 0.264046405
C 0.864670871 -1.884865636 -1.093871482
O 3.395697118 -0.941464087 -1.358235606
N 3.568081677 1.425697941 -0.308588005
C 1.437950131 2.087407275 0.595866892
H -3.656998053 1.930108627 1.960878074
H -4.225030300 -1.254389373 0.642992107
H 0.106481116 -2.258249515 -2.977309713
H 0.931197848 -3.648654364 -0.024059426
H 1.245239981 3.909627772 1.497135277

