11

C -2.793828853 -0.140421958 0.642520507
C -0.157167312 0.272168315 0.591545806
C 0.961576348 -1.696995641 -0.769998767
O 3.167706707 -0.760791001 -1.835520559
N 3.562691554 1.606851717 -0.850967579
C 1.743498172 2.182951280 0.692150536
H -3.984470148 0.334985193 2.248496393
H -3.757356116 -0.040406540 -1.158547699
H -1.615129133 -2.336060443 -1.111380210
H 1.240936659 -3.547141810 0.077531438
H 1.760937359 4.010993531 1.597030697

