11

O -2.800394536 3.463146678 2.877668480
C -1.834306618 2.513190596 1.178613057
C -1.809929982 -1.753259704 -1.473496560
N 0.313261903 -1.346368769 -0.276430423
C 2.435579922 0.282721264 -0.747587503
C 1.014764202 0.154640843 1.669973256
H -3.405793282 -2.463607773 -0.411063450
H -1.765136065 -1.932743113 -3.508435249
H 2.039400370 1.927922573 -1.931990662
H 4.225337134 -0.665839917 -1.057914170
H 1.559982238 -0.382048690 3.560172417

