14

C -1.172847143 -2.079035713 -0.492969509
C 0.719955966 -0.505967915 -2.076612007
C -1.367443221 2.127829197 -0.012522195
C -0.938620503 -0.193331304 1.654039955
O 1.664980638 -0.245495965 2.283480250
C 2.822572400 -0.209192720 -0.193445027
H -3.040554387 -2.200273436 -1.347897312
H -0.462488302 -3.967890617 -0.072321198
H -0.420185649 1.692057616 -2.174449553
H -3.311504566 2.343818544 -0.652904496
H -0.522145633 3.893968972 0.619363104
H -2.034225885 -0.326909278 3.394929511
H 4.079278974 -1.840158589 -0.400820227
H 3.933873355 1.511622446 -0.428233615

