15

O -2.903449862 -0.214469137 3.170787716
C -2.669786020 0.782967958 0.930090657
C -0.729454410 -0.699670077 -1.053784060
C 0.503362436 0.802038280 -3.094854949
C 2.367537876 -0.685051024 -1.618543245
C 2.135152888 -0.421307561 0.947416819
C 1.958300166 -0.435841917 3.361124106
H -0.221605877 -0.635414665 3.884232914
H -1.990617261 2.771472712 0.852200701
H -4.373573166 0.637981895 -0.275617047
H -1.407357110 -2.585313770 -1.474443294
H 0.280375453 0.179910884 -5.031524875
H 0.451862939 2.835901583 -2.834265949
H 3.161533954 -2.403885549 -2.397352595
H 3.443967299 0.124709528 4.643310878

