8

O 3.772525930 1.025198495 0.184800664
C 1.725837037 -0.153623925 0.448614821
N -0.256173919 1.340771948 0.113173392
C -2.258573395 -0.223473116 0.468682069
N -1.607490274 -2.526341710 0.985713877
O 1.094312828 -2.484813656 0.973064371
H 1.779894354 2.697534060 -0.189764049
H -4.223621282 0.308277032 0.351642713

