13

C -1.624564687 -3.194086716 0.849335328
C 0.746597249 -3.199254002 -0.745689576
H 1.319939815 -5.052829496 -1.420866251
C 1.049792222 -1.140913871 -2.627997732
C 2.914151872 -1.392689887 -0.545645474
C 3.130388131 0.796435261 1.279872084
H 1.314437178 1.724641653 1.572988278
H 4.441199000 2.210625318 0.550496080
H 3.812335109 0.149115662 3.116481352
H 4.706917321 -2.228027768 -1.099183956
H -3.176120410 -4.094037603 -0.167342316
H -2.217575447 -1.278686924 1.322233735
H -1.317798378 -4.211736776 2.617736670

