18

C -1.705355033 -2.739436299 1.183099323
C 0.054259990 -2.276588173 -1.011560417
C 0.185856567 -0.010716051 -2.708476103
C -2.245194115 2.930198614 -0.964585643
C 2.280443196 -0.501652914 -0.864837375
C 2.919402514 0.981318411 1.484630562
H -3.628048261 -3.100312081 0.521525992
H -1.778498489 -1.158922091 2.498156029
H -1.088939921 -4.395412977 2.248822163
H 0.342138657 -3.984949893 -2.121371058
H -1.250243428 1.809729407 -2.857742848
H -0.896069635 4.050635998 0.091175960
H -3.450474515 1.767180674 0.208977121
H -3.372371454 4.115066192 -2.220709331
H 3.974608801 -1.099603928 -1.867314483
H 1.268025051 1.425571802 2.629321617
H 3.838174789 2.763828505 0.993178049
H 4.223140309 -0.092341051 2.670601588

