29

C     4.24323  -0.51128  -0.04348
O     2.89126  -0.93876   0.17181
C     1.96564   0.02533   0.31261
O     2.21220   1.22531   0.20571
C     0.64545  -0.50173   0.61144
C     0.43962  -1.87956   0.79804
N     0.36223  -3.01959   1.05632
C    -0.02914  -0.82448  -2.07589
C    -1.14754  -0.21023  -2.15530
C    -1.66576   0.37318   0.41175
C    -2.48193  -0.86866   0.54887
C    -2.25778   1.69292   0.05606
C    -3.70279   1.75589  -0.34774
O    -1.54725   2.70166   0.10683
N    -0.35877   0.43055   0.53412
H     4.84489  -1.42911  -0.11003
H     4.33077   0.06586  -0.97280
H     4.59232   0.10186   0.80375
H     0.07635  -1.89704  -1.83661
H     0.94749  -0.28385  -2.14366
H    -2.12361  -0.72189  -2.01550
H    -1.22753   0.88731  -2.27957
H    -3.41668  -0.84125  -0.04046
H    -1.97035  -1.80018   0.33111
H    -2.75648  -0.84602   1.61269
H    -4.32865   1.39513   0.48301
H    -3.92259   1.11555  -1.21942
H    -3.97601   2.79956  -0.58248
H     0.01100   1.38283   0.48743
29

C     4.24398  -0.51141  -0.04314
O     2.89168  -0.93880   0.17121
C     1.96634   0.02464   0.30808
O     2.21211   1.22413   0.20667
C     0.64151  -0.50399   0.58918
C     0.44075  -1.88014   0.79546
N     0.36249  -3.01852   1.05787
C    -0.02318  -0.82214  -2.05348
C    -1.15239  -0.20375  -2.13015
C    -1.66302   0.36887   0.38826
C    -2.48279  -0.86715   0.54772
C    -2.25796   1.69220   0.05114
C    -3.70372   1.75654  -0.34844
O    -1.54860   2.70030   0.10819
N    -0.35848   0.42981   0.54170
H     4.84507  -1.42917  -0.10989
H     4.33093   0.06584  -0.97269
H     4.59233   0.10180   0.80393
H     0.07661  -1.89653  -1.83694
H     0.94685  -0.28391  -2.14547
H    -2.12240  -0.72231  -2.01743
H    -1.22723   0.88655  -2.27987
H    -3.41760  -0.84210  -0.03979
H    -1.97146  -1.80058   0.33227
H    -2.75501  -0.84265   1.61256
H    -4.32823   1.39520   0.48327
H    -3.92358   1.11582  -1.21949
H    -3.97648   2.79980  -0.58223
H     0.01132   1.38217   0.48892
29

C     4.24472  -0.51154  -0.04281
O     2.89210  -0.93884   0.17061
C     1.96705   0.02395   0.30354
O     2.21203   1.22295   0.20762
C     0.63757  -0.50625   0.56693
C     0.44189  -1.88073   0.79289
N     0.36276  -3.01744   1.05942
C    -0.01722  -0.81980  -2.03107
C    -1.15724  -0.19727  -2.10500
C    -1.66029   0.36456   0.36476
C    -2.48365  -0.86564   0.54657
C    -2.25815   1.69147   0.04622
C    -3.70466   1.75719  -0.34914
O    -1.54994   2.69894   0.10955
N    -0.35819   0.42906   0.54928
H     4.84525  -1.42922  -0.10975
H     4.33110   0.06582  -0.97257
H     4.59234   0.10174   0.80410
H     0.07687  -1.89603  -1.83727
H     0.94622  -0.28396  -2.14728
H    -2.12119  -0.72272  -2.01937
H    -1.22693   0.88578  -2.28017
H    -3.41851  -0.84296  -0.03912
H    -1.97258  -1.80098   0.33344
H    -2.75354  -0.83929   1.61243
H    -4.32781   1.39527   0.48352
H    -3.92456   1.11609  -1.21956
H    -3.97696   2.80004  -0.58197
H     0.01164   1.38151   0.49040
29

C     4.24546  -0.51167  -0.04247
O     2.89252  -0.93888   0.17002
C     1.96776   0.02326   0.29901
O     2.21194   1.22177   0.20858
C     0.63362  -0.50851   0.54467
C     0.44302  -1.88131   0.79031
N     0.36302  -3.01637   1.06097
C    -0.01125  -0.81745  -2.00866
C    -1.16209  -0.19079  -2.07985
C    -1.65756   0.36024   0.34126
C    -2.48451  -0.86412   0.54541
C    -2.25834   1.69075   0.04129
C    -3.70560   1.75784  -0.34984
O    -1.55129   2.69757   0.11091
N    -0.35790   0.42832   0.55686
H     4.84543  -1.42927  -0.10961
H     4.33126   0.06581  -0.97246
H     4.59236   0.10168   0.80427
H     0.07713  -1.89553  -1.83760
H     0.94559  -0.28402  -2.14910
H    -2.11999  -0.72314  -2.02131
H    -1.22662   0.88501  -2.28047
H    -3.41943  -0.84382  -0.03845
H    -1.97370  -1.80138   0.33460
H    -2.75208  -0.83593   1.61230
H    -4.32739   1.39533   0.48378
H    -3.92554   1.11636  -1.21963
H    -3.97743   2.80029  -0.58172
H     0.01196   1.38085   0.49188
29

C     4.24620  -0.51181  -0.04214
O     2.89294  -0.93891   0.16942
C     1.96847   0.02257   0.29447
O     2.21185   1.22059   0.20953
C     0.62968  -0.51077   0.52241
C     0.44415  -1.88189   0.78773
N     0.36329  -3.01530   1.06252
C    -0.00529  -0.81511  -1.98625
C    -1.16694  -0.18431  -2.05470
C    -1.65483   0.35593   0.31776
C    -2.48536  -0.86261   0.54426
C    -2.25853   1.69002   0.03637
C    -3.70654   1.75849  -0.35055
O    -1.55263   2.69621   0.11227
N    -0.35760   0.42757   0.56444
H     4.84561  -1.42932  -0.10947
H     4.33142   0.06579  -0.97234
H     4.59237   0.10162   0.80444
H     0.07738  -1.89503  -1.83792
H     0.94496  -0.28407  -2.15091
H    -2.11878  -0.72355  -2.02324
H    -1.22632   0.88424  -2.28078
H    -3.42035  -0.84467  -0.03778
H    -1.97482  -1.80178   0.33577
H    -2.75061  -0.83257   1.61217
H    -4.32697   1.39540   0.48404
H    -3.92653   1.11662  -1.21970
H    -3.97790   2.80053  -0.58147
H     0.01228   1.38019   0.49337
29

C     4.24694  -0.51194  -0.04180
O     2.89336  -0.93895   0.16882
C     1.96918   0.02188   0.28994
O     2.21176   1.21942   0.21049
C     0.62574  -0.51303   0.50016
C     0.44529  -1.88247   0.78516
N     0.36355  -3.01422   1.06407
C     0.00067  -0.81277  -1.96385
C    -1.17179  -0.17783  -2.02955
C    -1.65210   0.35162   0.29426
C    -2.48622  -0.86109   0.54311
C    -2.25871   1.68930   0.03145
C    -3.70748   1.75914  -0.35125
O    -1.55397   2.69485   0.11363
N    -0.35731   0.42683   0.57202
H     4.84579  -1.42937  -0.10933
H     4.33159   0.06578  -0.97223
H     4.59238   0.10156   0.80462
H     0.07764  -1.89452  -1.83825
H     0.94433  -0.28413  -2.15273
H    -2.11758  -0.72397  -2.02518
H    -1.22602   0.88347  -2.28108
H    -3.42126  -0.84553  -0.03711
H    -1.97593  -1.80218   0.33693
H    -2.74914  -0.82921   1.61205
H    -4.32655   1.39547   0.48430
H    -3.92751   1.11689  -1.21977
H    -3.97837   2.80078  -0.58122
H     0.01260   1.37953   0.49485
29

C     4.24769  -0.51207  -0.04147
O     2.89378  -0.93899   0.16823
C     1.96989   0.02119   0.28540
O     2.21168   1.21824   0.21144
C     0.62180  -0.51529   0.47790
C     0.44642  -1.88306   0.78258
N     0.36382  -3.01315   1.06563
C     0.00664  -0.81043  -1.94144
C    -1.17664  -0.17135  -2.00440
C    -1.64937   0.34730   0.27076
C    -2.48708  -0.85958   0.54195
C    -2.25890   1.68857   0.02653
C    -3.70841   1.75979  -0.35195
O    -1.55532   2.69349   0.11499
N    -0.35702   0.42609   0.57960
H     4.84597  -1.42942  -0.10919
H     4.33175   0.06576  -0.97212
H     4.59240   0.10149   0.80479
H     0.07790  -1.89402  -1.83858
H     0.94369  -0.28418  -2.15454
H    -2.11637  -0.72439  -2.02712
H    -1.22572   0.88270  -2.28138
H    -3.42218  -0.84638  -0.03644
H    -1.97705  -1.80258   0.33810
H    -2.74768  -0.82585   1.61192
H    -4.32612   1.39553   0.48455
H    -3.92849   1.11716  -1.21984
H    -3.97885   2.80102  -0.58096
H     0.01292   1.37887   0.49634
29

C     4.24843  -0.51221  -0.04113
O     2.89420  -0.93903   0.16763
C     1.97060   0.02050   0.28087
O     2.21159   1.21706   0.21240
C     0.61785  -0.51755   0.45564
C     0.44755  -1.88364   0.78001
N     0.36408  -3.01207   1.06718
C     0.01260  -0.80809  -1.91903
C    -1.18148  -0.16487  -1.97925
C    -1.64664   0.34299   0.24727
C    -2.48794  -0.85807   0.54080
C    -2.25909   1.68785   0.02160
C    -3.70935   1.76044  -0.35265
O    -1.55666   2.69213   0.11635
N    -0.35673   0.42534   0.58718
H     4.84614  -1.42947  -0.10905
H     4.33191   0.06575  -0.97200
H     4.59241   0.10143   0.80496
H     0.07815  -1.89352  -1.83890
H     0.94306  -0.28424  -2.15636
H    -2.11516  -0.72480  -2.02906
H    -1.22541   0.88194  -2.28168
H    -3.42310  -0.84724  -0.03577
H    -1.97817  -1.80299   0.33926
H    -2.74621  -0.82249   1.61179
H    -4.32570   1.39560   0.48481
H    -3.92948   1.11743  -1.21991
H    -3.97932   2.80127  -0.58071
H     0.01324   1.37820   0.49782
29

C     4.24917  -0.51234  -0.04080
O     2.89462  -0.93906   0.16704
C     1.97131   0.01981   0.27634
O     2.21150   1.21588   0.21335
C     0.61391  -0.51981   0.43339
C     0.44869  -1.88422   0.77743
N     0.36435  -3.01100   1.06873
C     0.01856  -0.80575  -1.89662
C    -1.18633  -0.15839  -1.95410
C    -1.64390   0.33868   0.22377
C    -2.48879  -0.85655   0.53965
C    -2.25928   1.68712   0.01668
C    -3.71029   1.76109  -0.35335
O    -1.55801   2.69077   0.11771
N    -0.35643   0.42460   0.59476
H     4.84632  -1.42952  -0.10891
H     4.33208   0.06573  -0.97189
H     4.59243   0.10137   0.80513
H     0.07841  -1.89301  -1.83923
H     0.94243  -0.28429  -2.15817
H    -2.11396  -0.72522  -2.03099
H    -1.22511   0.88117  -2.28198
H    -3.42401  -0.84810  -0.03510
H    -1.97928  -1.80339   0.34042
H    -2.74474  -0.81913   1.61166
H    -4.32528   1.39567   0.48507
H    -3.93046   1.11770  -1.21997
H    -3.97979   2.80151  -0.58046
H     0.01356   1.37754   0.49931
29

C     4.24991  -0.51247  -0.04046
O     2.89504  -0.93910   0.16644
C     1.97202   0.01912   0.27180
O     2.21142   1.21471   0.21431
C     0.60997  -0.52207   0.41113
C     0.44982  -1.88480   0.77486
N     0.36461  -3.00993   1.07028
C     0.02452  -0.80340  -1.87421
C    -1.19118  -0.15191  -1.92895
C    -1.64117   0.33436   0.20027
C    -2.48965  -0.85504   0.53850
C    -2.25946   1.68640   0.01176
C    -3.71123   1.76174  -0.35406
O    -1.55935   2.68941   0.11907
N    -0.35614   0.42386   0.60234
H     4.84650  -1.42957  -0.10877
H     4.33224   0.06571  -0.97177
H     4.59244   0.10131   0.80531
H     0.07867  -1.89251  -1.83956
H     0.94180  -0.28435  -2.15998
H    -2.11275  -0.72563  -2.03293
H    -1.22481   0.88040  -2.28229
H    -3.42493  -0.84895  -0.03444
H    -1.98040  -1.80379   0.34159
H    -2.74328  -0.81577   1.61153
H    -4.32486   1.39574   0.48533
H    -3.93144   1.11797  -1.22004
H    -3.98026   2.80176  -0.58021
H     0.01388   1.37688   0.50079
29

C     4.25066  -0.51260  -0.04012
O     2.89546  -0.93914   0.16584
C     1.97273   0.01844   0.26727
O     2.21133   1.21353   0.21526
C     0.60602  -0.52433   0.38887
C     0.45095  -1.88539   0.77228
N     0.36488  -3.00885   1.07183
C     0.03049  -0.80106  -1.85180
C    -1.19603  -0.14543  -1.90380
C    -1.63844   0.33005   0.17677
C    -2.49051  -0.85352   0.53734
C    -2.25965   1.68567   0.00683
C    -3.71217   1.76238  -0.35476
O    -1.56070   2.68805   0.12043
N    -0.35585   0.42311   0.60992
H     4.84668  -1.42962  -0.10863
H     4.33240   0.06570  -0.97166
H     4.59245   0.10125   0.80548
H     0.07892  -1.89201  -1.83988
H     0.94116  -0.28440  -2.16180
H    -2.11155  -0.72605  -2.03487
H    -1.22451   0.87963  -2.28259
H    -3.42585  -0.84981  -0.03377
H    -1.98152  -1.80419   0.34275
H    -2.74181  -0.81241   1.61140
H    -4.32444   1.39580   0.48559
H    -3.93243   1.11824  -1.22011
H    -3.98074   2.80200  -0.57995
H     0.01419   1.37622   0.50227
29

C     4.25140  -0.51274  -0.03979
O     2.89588  -0.93917   0.16525
C     1.97344   0.01775   0.26273
O     2.21124   1.21235   0.21622
C     0.60208  -0.52659   0.36661
C     0.45209  -1.88597   0.76970
N     0.36514  -3.00778   1.07338
C     0.03645  -0.79872  -1.82940
C    -1.20088  -0.13895  -1.87865
C    -1.63571   0.32574   0.15327
C    -2.49137  -0.85201   0.53619
C    -2.25984   1.68495   0.00191
C    -3.71311   1.76303  -0.35546
O    -1.56204   2.68669   0.12179
N    -0.35556   0.42237   0.61750
H     4.84686  -1.42967  -0.10849
H     4.33257   0.06568  -0.97154
H     4.59247   0.10118   0.80565
H     0.07918  -1.89151  -1.84021
H     0.94053  -0.28446  -2.16361
H    -2.11034  -0.72646  -2.03681
H    -1.22421   0.87886  -2.28289
H    -3.42676  -0.85066  -0.03310
H    -1.98264  -1.80459   0.34392
H    -2.74034  -0.80905   1.61127
H    -4.32402   1.39587   0.48584
H    -3.93341   1.11851  -1.22018
H    -3.98121   2.80225  -0.57970
H     0.01451   1.37556   0.50376
29

C     4.25214  -0.51287  -0.03945
O     2.89630  -0.93921   0.16465
C     1.97415   0.01706   0.25820
O     2.21116   1.21117   0.21717
C     0.59814  -0.52885   0.34436
C     0.45322  -1.88655   0.76713
N     0.36541  -3.00671   1.07493
C     0.04241  -0.79638  -1.80699
C    -1.20573  -0.13247  -1.85350
C    -1.63298   0.32142   0.12977
C    -2.49222  -0.85050   0.53504
C    -2.26003   1.68422  -0.00301
C    -3.71404   1.76368  -0.35616
O    -1.56338   2.68533   0.12315
N    -0.35527   0.42162   0.62508
H     4.84704  -1.42972  -0.10835
H     4.33273   0.06567  -0.97143
H     4.59248   0.10112   0.80583
H     0.07944  -1.89100  -1.84054
H     0.93990  -0.28451  -2.16543
H    -2.10913  -0.72688  -2.03874
H    -1.22390   0.87809  -2.28319
H    -3.42768  -0.85152  -0.03243
H    -1.98375  -1.80499   0.34508
H    -2.73888  -0.80569   1.61114
H    -4.32360   1.39594   0.48610
H    -3.93439   1.11878  -1.22025
H    -3.98168   2.80249  -0.57945
H     0.01483   1.37490   0.50524
29

C     4.25288  -0.51300  -0.03912
O     2.89672  -0.93925   0.16405
C     1.97486   0.01637   0.25367
O     2.21107   1.20999   0.21813
C     0.59420  -0.53111   0.32210
C     0.45436  -1.88713   0.76455
N     0.36567  -3.00563   1.07648
C     0.04838  -0.79404  -1.78458
C    -1.21057  -0.12599  -1.82835
C    -1.63025   0.31711   0.10628
C    -2.49308  -0.84898   0.53389
C    -2.26021   1.68350  -0.00793
C    -3.71498   1.76433  -0.35687
O    -1.56473   2.68397   0.12451
N    -0.35497   0.42088   0.63266
H     4.84722  -1.42977  -0.10821
H     4.33289   0.06565  -0.97132
H     4.59250   0.10106   0.80600
H     0.07970  -1.89050  -1.84087
H     0.93927  -0.28457  -2.16724
H    -2.10793  -0.72730  -2.04068
H    -1.22360   0.87733  -2.28349
H    -3.42860  -0.85238  -0.03176
H    -1.98487  -1.80539   0.34625
H    -2.73741  -0.80233   1.61101
H    -4.32318   1.39600   0.48636
H    -3.93538   1.11905  -1.22032
H    -3.98216   2.80273  -0.57920
H     0.01515   1.37424   0.50673
29

C     4.25363  -0.51314  -0.03878
O     2.89714  -0.93929   0.16346
C     1.97556   0.01568   0.24913
O     2.21098   1.20882   0.21908
C     0.59025  -0.53337   0.29984
C     0.45549  -1.88772   0.76198
N     0.36594  -3.00456   1.07803
C     0.05434  -0.79169  -1.76217
C    -1.21542  -0.11951  -1.80320
C    -1.62752   0.31280   0.08278
C    -2.49394  -0.84747   0.53273
C    -2.26040   1.68277  -0.01286
C    -3.71592   1.76498  -0.35757
O    -1.56607   2.68261   0.12586
N    -0.35468   0.42014   0.64024
H     4.84740  -1.42982  -0.10807
H     4.33306   0.06564  -0.97120
H     4.59251   0.10100   0.80617
H     0.07995  -1.89000  -1.84119
H     0.93864  -0.28462  -2.16905
H    -2.10672  -0.72771  -2.04262
H    -1.22330   0.87656  -2.28380
H    -3.42951  -0.85323  -0.03109
H    -1.98599  -1.80579   0.34741
H    -2.73594  -0.79897   1.61088
H    -4.32276   1.39607   0.48662
H    -3.93636   1.11932  -1.22039
H    -3.98263   2.80298  -0.57894
H     0.01547   1.37358   0.50821
29

C     4.25437  -0.51327  -0.03845
O     2.89756  -0.93932   0.16286
C     1.97627   0.01499   0.24460
O     2.21089   1.20764   0.22004
C     0.58631  -0.53564   0.27759
C     0.45662  -1.88830   0.75940
N     0.36620  -3.00349   1.07959
C     0.06030  -0.78935  -1.73976
C    -1.22027  -0.11303  -1.77805
C    -1.62478   0.30848   0.05928
C    -2.49480  -0.84595   0.53158
C    -2.26059   1.68205  -0.01778
C    -3.71686   1.76563  -0.35827
O    -1.56742   2.68125   0.12722
N    -0.35439   0.41939   0.64782
H     4.84757  -1.42987  -0.10793
H     4.33322   0.06562  -0.97109
H     4.59252   0.10094   0.80634
H     0.08021  -1.88950  -1.84152
H     0.93800  -0.28468  -2.17087
H    -2.10551  -0.72813  -2.04456
H    -1.22300   0.87579  -2.28410
H    -3.43043  -0.85409  -0.03042
H    -1.98711  -1.80620   0.34858
H    -2.73448  -0.79561   1.61075
H    -4.32234   1.39614   0.48687
H    -3.93734   1.11959  -1.22046
H    -3.98310   2.80322  -0.57869
H     0.01579   1.37292   0.50970
29

C     4.25511  -0.51340  -0.03811
O     2.89798  -0.93936   0.16226
C     1.97698   0.01430   0.24006
O     2.21081   1.20646   0.22099
C     0.58237  -0.53790   0.25533
C     0.45776  -1.88888   0.75683
N     0.36647  -3.00241   1.08114
C     0.06627  -0.78701  -1.71735
C    -1.22512  -0.10655  -1.75290
C    -1.62205   0.30417   0.03578
C    -2.49565  -0.84444   0.53043
C    -2.26077   1.68132  -0.02270
C    -3.71780   1.76628  -0.35897
O    -1.56876   2.67989   0.12858
N    -0.35410   0.41865   0.65540
H     4.84775  -1.42992  -0.10779
H     4.33338   0.06560  -0.97097
H     4.59254   0.10088   0.80652
H     0.08047  -1.88899  -1.84185
H     0.93737  -0.28473  -2.17268
H    -2.10431  -0.72854  -2.04649
H    -1.22270   0.87502  -2.28440
H    -3.43135  -0.85495  -0.02975
H    -1.98822  -1.80660   0.34974
H    -2.73301  -0.79225   1.61063
H    -4.32191   1.39621   0.48713
H    -3.93833   1.11985  -1.22053
H    -3.98357   2.80347  -0.57844
H     0.01611   1.37226   0.51118
29

C     4.25585  -0.51353  -0.03778
O     2.89840  -0.93940   0.16167
C     1.97769   0.01361   0.23553
O     2.21072   1.20528   0.22195
C     0.57842  -0.54016   0.23307
C     0.45889  -1.88946   0.75425
N     0.36673  -3.00134   1.08269
C     0.07223  -0.78467  -1.69495
C    -1.22997  -0.10007  -1.72775
C    -1.61932   0.29986   0.01228
C    -2.49651  -0.84293   0.52928
C    -2.26096   1.68060  -0.02763
C    -3.71873   1.76693  -0.35968
O    -1.57010   2.67852   0.12994
N    -0.35380   0.41791   0.66298
H     4.84793  -1.42997  -0.10765
H     4.33355   0.06559  -0.97086
H     4.59255   0.10081   0.80669
H     0.08072  -1.88849  -1.84217
H     0.93674  -0.28479  -2.17450
H    -2.10310  -0.72896  -2.04843
H    -1.22239   0.87425  -2.28470
H    -3.43226  -0.85580  -0.02908
H    -1.98934  -1.80700   0.35090
H    -2.73154  -0.78889   1.61050
H    -4.32149   1.39627   0.48739
H    -3.93931   1.12012  -1.22060
H    -3.98405   2.80371  -0.57819
H     0.01643   1.37160   0.51266
29

C     4.25660  -0.51367  -0.03744
O     2.89882  -0.93944   0.16107
C     1.97840   0.01292   0.23100
O     2.21063   1.20411   0.22290
C     0.57448  -0.54242   0.21081
C     0.46002  -1.89005   0.75167
N     0.36700  -3.00027   1.08424
C     0.07819  -0.78233  -1.67254
C    -1.23482  -0.09359  -1.70260
C    -1.61659   0.29554  -0.01122
C    -2.49737  -0.84141   0.52812
C    -2.26115   1.67987  -0.03255
C    -3.71967   1.76758  -0.36038
O    -1.57145   2.67716   0.13130
N    -0.35351   0.41716   0.67056
H     4.84811  -1.43003  -0.10751
H     4.33371   0.06557  -0.97075
H     4.59257   0.10075   0.80686
H     0.08098  -1.88799  -1.84250
H     0.93611  -0.28484  -2.17631
H    -2.10190  -0.72937  -2.05037
H    -1.22209   0.87348  -2.28500
H    -3.43318  -0.85666  -0.02841
H    -1.99046  -1.80740   0.35207
H    -2.73008  -0.78553   1.61037
H    -4.32107   1.39634   0.48765
H    -3.94029   1.12039  -1.22067
H    -3.98452   2.80396  -0.57793
H     0.01675   1.37094   0.51415
29

C     4.25734  -0.51380  -0.03711
O     2.89924  -0.93947   0.16047
C     1.97911   0.01223   0.22646
O     2.21055   1.20293   0.22386
C     0.57054  -0.54468   0.18856
C     0.46116  -1.89063   0.74910
N     0.36726  -2.99919   1.08579
C     0.08416  -0.77999  -1.65013
C    -1.23967  -0.08711  -1.67745
C    -1.61386   0.29123  -0.03471
C    -2.49822  -0.83990   0.52697
C    -2.26134   1.67915  -0.03747
C    -3.72061   1.76823  -0.36108
O    -1.57279   2.67580   0.13266
N    -0.35322   0.41642   0.67814
H     4.84829  -1.43008  -0.10737
H     4.33387   0.06556  -0.97063
H     4.59258   0.10069   0.80703
H     0.08124  -1.88749  -1.84283
H     0.93548  -0.28490  -2.17813
H    -2.10069  -0.72979  -2.05230
H    -1.22179   0.87272  -2.28531
H    -3.43410  -0.85751  -0.02774
H    -1.99157  -1.80780   0.35323
H    -2.72861  -0.78217   1.61024
H    -4.32065   1.39641   0.48790
H    -3.94128   1.12066  -1.22074
H    -3.98499   2.80420  -0.57768
H     0.01707   1.37028   0.51563
29

C     4.25808  -0.51393  -0.03677
O     2.89966  -0.93951   0.15988
C     1.97982   0.01154   0.22193
O     2.21046   1.20175   0.22481
C     0.56660  -0.54694   0.16630
C     0.46229  -1.89121   0.74652
N     0.36753  -2.99812   1.08734
C     0.09012  -0.77764  -1.62772
C    -1.24451  -0.08063  -1.65230
C    -1.61113   0.28692  -0.05821
C    -2.49908  -0.83838   0.52582
C    -2.26152   1.67842  -0.04239
C    -3.72155   1.76888  -0.36178
O    -1.57414   2.67444   0.13402
N    -0.35293   0.41567   0.68572
H     4.84847  -1.43013  -0.10723
H     4.33404   0.06554  -0.97052
H     4.59259   0.10063   0.80721
H     0.08149  -1.88698  -1.84315
H     0.93484  -0.28495  -2.17994
H    -2.09948  -0.73021  -2.05424
H    -1.22149   0.87195  -2.28561
H    -3.43501  -0.85837  -0.02707
H    -1.99269  -1.80820   0.35440
H    -2.72714  -0.77881   1.61011
H    -4.32023   1.39647   0.48816
H    -3.94226   1.12093  -1.22081
H    -3.98546   2.80445  -0.57743
H     0.01739   1.36962   0.51712
29

C     4.25734  -0.51380  -0.03711
O     2.89924  -0.93947   0.16047
C     1.97911   0.01223   0.22646
O     2.21055   1.20293   0.22386
C     0.57054  -0.54468   0.18856
C     0.46116  -1.89063   0.74910
N     0.36726  -2.99919   1.08579
C     0.08416  -0.77999  -1.65013
C    -1.23967  -0.08711  -1.67745
C    -1.61386   0.29123  -0.03471
C    -2.49822  -0.83990   0.52697
C    -2.26134   1.67915  -0.03747
C    -3.72061   1.76823  -0.36108
O    -1.57279   2.67580   0.13266
N    -0.35322   0.41642   0.67814
H     4.84829  -1.43008  -0.10737
H     4.33387   0.06556  -0.97063
H     4.59258   0.10069   0.80703
H     0.08124  -1.88749  -1.84283
H     0.93548  -0.28490  -2.17813
H    -2.10069  -0.72979  -2.05230
H    -1.22179   0.87272  -2.28531
H    -3.43410  -0.85751  -0.02774
H    -1.99157  -1.80780   0.35323
H    -2.72861  -0.78217   1.61024
H    -4.32065   1.39641   0.48790
H    -3.94128   1.12066  -1.22074
H    -3.98499   2.80420  -0.57768
H     0.01707   1.37028   0.51563
29

C     4.25660  -0.51367  -0.03744
O     2.89882  -0.93944   0.16107
C     1.97840   0.01292   0.23100
O     2.21063   1.20411   0.22290
C     0.57448  -0.54242   0.21081
C     0.46002  -1.89005   0.75167
N     0.36700  -3.00027   1.08424
C     0.07819  -0.78233  -1.67254
C    -1.23482  -0.09359  -1.70260
C    -1.61659   0.29554  -0.01122
C    -2.49737  -0.84141   0.52812
C    -2.26115   1.67987  -0.03255
C    -3.71967   1.76758  -0.36038
O    -1.57145   2.67716   0.13130
N    -0.35351   0.41716   0.67056
H     4.84811  -1.43003  -0.10751
H     4.33371   0.06557  -0.97075
H     4.59257   0.10075   0.80686
H     0.08098  -1.88799  -1.84250
H     0.93611  -0.28484  -2.17631
H    -2.10190  -0.72937  -2.05037
H    -1.22209   0.87348  -2.28500
H    -3.43318  -0.85666  -0.02841
H    -1.99046  -1.80740   0.35207
H    -2.73008  -0.78553   1.61037
H    -4.32107   1.39634   0.48765
H    -3.94029   1.12039  -1.22067
H    -3.98452   2.80396  -0.57793
H     0.01675   1.37094   0.51415
29

C     4.25585  -0.51353  -0.03778
O     2.89840  -0.93940   0.16167
C     1.97769   0.01361   0.23553
O     2.21072   1.20528   0.22195
C     0.57842  -0.54016   0.23307
C     0.45889  -1.88946   0.75425
N     0.36673  -3.00134   1.08269
C     0.07223  -0.78467  -1.69495
C    -1.22997  -0.10007  -1.72775
C    -1.61932   0.29986   0.01228
C    -2.49651  -0.84293   0.52928
C    -2.26096   1.68060  -0.02763
C    -3.71873   1.76693  -0.35968
O    -1.57010   2.67852   0.12994
N    -0.35380   0.41791   0.66298
H     4.84793  -1.42997  -0.10765
H     4.33355   0.06559  -0.97086
H     4.59255   0.10081   0.80669
H     0.08072  -1.88849  -1.84217
H     0.93674  -0.28479  -2.17450
H    -2.10310  -0.72896  -2.04843
H    -1.22239   0.87425  -2.28470
H    -3.43226  -0.85580  -0.02908
H    -1.98934  -1.80700   0.35090
H    -2.73154  -0.78889   1.61050
H    -4.32149   1.39627   0.48739
H    -3.93931   1.12012  -1.22060
H    -3.98405   2.80371  -0.57819
H     0.01643   1.37160   0.51266
29

C     4.25511  -0.51340  -0.03811
O     2.89798  -0.93936   0.16226
C     1.97698   0.01430   0.24006
O     2.21081   1.20646   0.22099
C     0.58237  -0.53790   0.25533
C     0.45776  -1.88888   0.75683
N     0.36647  -3.00241   1.08114
C     0.06627  -0.78701  -1.71735
C    -1.22512  -0.10655  -1.75290
C    -1.62205   0.30417   0.03578
C    -2.49565  -0.84444   0.53043
C    -2.26077   1.68132  -0.02270
C    -3.71780   1.76628  -0.35897
O    -1.56876   2.67989   0.12858
N    -0.35410   0.41865   0.65540
H     4.84775  -1.42992  -0.10779
H     4.33338   0.06560  -0.97097
H     4.59254   0.10088   0.80652
H     0.08047  -1.88899  -1.84185
H     0.93737  -0.28473  -2.17268
H    -2.10431  -0.72854  -2.04649
H    -1.22270   0.87502  -2.28440
H    -3.43135  -0.85495  -0.02975
H    -1.98822  -1.80660   0.34974
H    -2.73301  -0.79225   1.61063
H    -4.32191   1.39621   0.48713
H    -3.93833   1.11985  -1.22053
H    -3.98357   2.80347  -0.57844
H     0.01611   1.37226   0.51118
29

C     4.25437  -0.51327  -0.03845
O     2.89756  -0.93932   0.16286
C     1.97627   0.01499   0.24460
O     2.21089   1.20764   0.22004
C     0.58631  -0.53564   0.27759
C     0.45662  -1.88830   0.75940
N     0.36620  -3.00349   1.07959
C     0.06030  -0.78935  -1.73976
C    -1.22027  -0.11303  -1.77805
C    -1.62478   0.30848   0.05928
C    -2.49480  -0.84595   0.53158
C    -2.26059   1.68205  -0.01778
C    -3.71686   1.76563  -0.35827
O    -1.56742   2.68125   0.12722
N    -0.35439   0.41939   0.64782
H     4.84757  -1.42987  -0.10793
H     4.33322   0.06562  -0.97109
H     4.59252   0.10094   0.80634
H     0.08021  -1.88950  -1.84152
H     0.93800  -0.28468  -2.17087
H    -2.10551  -0.72813  -2.04456
H    -1.22300   0.87579  -2.28410
H    -3.43043  -0.85409  -0.03042
H    -1.98711  -1.80620   0.34858
H    -2.73448  -0.79561   1.61075
H    -4.32234   1.39614   0.48687
H    -3.93734   1.11959  -1.22046
H    -3.98310   2.80322  -0.57869
H     0.01579   1.37292   0.50970
29

C     4.25363  -0.51314  -0.03878
O     2.89714  -0.93929   0.16346
C     1.97556   0.01568   0.24913
O     2.21098   1.20882   0.21908
C     0.59025  -0.53337   0.29984
C     0.45549  -1.88772   0.76198
N     0.36594  -3.00456   1.07803
C     0.05434  -0.79169  -1.76217
C    -1.21542  -0.11951  -1.80320
C    -1.62752   0.31280   0.08278
C    -2.49394  -0.84747   0.53273
C    -2.26040   1.68277  -0.01286
C    -3.71592   1.76498  -0.35757
O    -1.56607   2.68261   0.12586
N    -0.35468   0.42014   0.64024
H     4.84740  -1.42982  -0.10807
H     4.33306   0.06564  -0.97120
H     4.59251   0.10100   0.80617
H     0.07995  -1.89000  -1.84119
H     0.93864  -0.28462  -2.16905
H    -2.10672  -0.72771  -2.04262
H    -1.22330   0.87656  -2.28380
H    -3.42951  -0.85323  -0.03109
H    -1.98599  -1.80579   0.34741
H    -2.73594  -0.79897   1.61088
H    -4.32276   1.39607   0.48662
H    -3.93636   1.11932  -1.22039
H    -3.98263   2.80298  -0.57894
H     0.01547   1.37358   0.50821
29

C     4.25288  -0.51300  -0.03912
O     2.89672  -0.93925   0.16405
C     1.97486   0.01637   0.25367
O     2.21107   1.20999   0.21813
C     0.59420  -0.53111   0.32210
C     0.45436  -1.88713   0.76455
N     0.36567  -3.00563   1.07648
C     0.04838  -0.79404  -1.78458
C    -1.21057  -0.12599  -1.82835
C    -1.63025   0.31711   0.10628
C    -2.49308  -0.84898   0.53389
C    -2.26021   1.68350  -0.00793
C    -3.71498   1.76433  -0.35687
O    -1.56473   2.68397   0.12451
N    -0.35497   0.42088   0.63266
H     4.84722  -1.42977  -0.10821
H     4.33289   0.06565  -0.97132
H     4.59250   0.10106   0.80600
H     0.07970  -1.89050  -1.84087
H     0.93927  -0.28457  -2.16724
H    -2.10793  -0.72730  -2.04068
H    -1.22360   0.87733  -2.28349
H    -3.42860  -0.85238  -0.03176
H    -1.98487  -1.80539   0.34625
H    -2.73741  -0.80233   1.61101
H    -4.32318   1.39600   0.48636
H    -3.93538   1.11905  -1.22032
H    -3.98216   2.80273  -0.57920
H     0.01515   1.37424   0.50673
29

C     4.25214  -0.51287  -0.03945
O     2.89630  -0.93921   0.16465
C     1.97415   0.01706   0.25820
O     2.21116   1.21117   0.21717
C     0.59814  -0.52885   0.34436
C     0.45322  -1.88655   0.76713
N     0.36541  -3.00671   1.07493
C     0.04241  -0.79638  -1.80699
C    -1.20573  -0.13247  -1.85350
C    -1.63298   0.32142   0.12977
C    -2.49222  -0.85050   0.53504
C    -2.26003   1.68422  -0.00301
C    -3.71404   1.76368  -0.35616
O    -1.56338   2.68533   0.12315
N    -0.35527   0.42162   0.62508
H     4.84704  -1.42972  -0.10835
H     4.33273   0.06567  -0.97143
H     4.59248   0.10112   0.80583
H     0.07944  -1.89100  -1.84054
H     0.93990  -0.28451  -2.16543
H    -2.10913  -0.72688  -2.03874
H    -1.22390   0.87809  -2.28319
H    -3.42768  -0.85152  -0.03243
H    -1.98375  -1.80499   0.34508
H    -2.73888  -0.80569   1.61114
H    -4.32360   1.39594   0.48610
H    -3.93439   1.11878  -1.22025
H    -3.98168   2.80249  -0.57945
H     0.01483   1.37490   0.50524
29

C     4.25140  -0.51274  -0.03979
O     2.89588  -0.93917   0.16525
C     1.97344   0.01775   0.26273
O     2.21124   1.21235   0.21622
C     0.60208  -0.52659   0.36661
C     0.45209  -1.88597   0.76970
N     0.36514  -3.00778   1.07338
C     0.03645  -0.79872  -1.82940
C    -1.20088  -0.13895  -1.87865
C    -1.63571   0.32574   0.15327
C    -2.49137  -0.85201   0.53619
C    -2.25984   1.68495   0.00191
C    -3.71311   1.76303  -0.35546
O    -1.56204   2.68669   0.12179
N    -0.35556   0.42237   0.61750
H     4.84686  -1.42967  -0.10849
H     4.33257   0.06568  -0.97154
H     4.59247   0.10118   0.80565
H     0.07918  -1.89151  -1.84021
H     0.94053  -0.28446  -2.16361
H    -2.11034  -0.72646  -2.03681
H    -1.22421   0.87886  -2.28289
H    -3.42676  -0.85066  -0.03310
H    -1.98264  -1.80459   0.34392
H    -2.74034  -0.80905   1.61127
H    -4.32402   1.39587   0.48584
H    -3.93341   1.11851  -1.22018
H    -3.98121   2.80225  -0.57970
H     0.01451   1.37556   0.50376
29

C     4.25066  -0.51260  -0.04012
O     2.89546  -0.93914   0.16584
C     1.97273   0.01844   0.26727
O     2.21133   1.21353   0.21526
C     0.60602  -0.52433   0.38887
C     0.45095  -1.88539   0.77228
N     0.36488  -3.00885   1.07183
C     0.03049  -0.80106  -1.85180
C    -1.19603  -0.14543  -1.90380
C    -1.63844   0.33005   0.17677
C    -2.49051  -0.85352   0.53734
C    -2.25965   1.68567   0.00683
C    -3.71217   1.76238  -0.35476
O    -1.56070   2.68805   0.12043
N    -0.35585   0.42311   0.60992
H     4.84668  -1.42962  -0.10863
H     4.33240   0.06570  -0.97166
H     4.59245   0.10125   0.80548
H     0.07892  -1.89201  -1.83988
H     0.94116  -0.28440  -2.16180
H    -2.11155  -0.72605  -2.03487
H    -1.22451   0.87963  -2.28259
H    -3.42585  -0.84981  -0.03377
H    -1.98152  -1.80419   0.34275
H    -2.74181  -0.81241   1.61140
H    -4.32444   1.39580   0.48559
H    -3.93243   1.11824  -1.22011
H    -3.98074   2.80200  -0.57995
H     0.01419   1.37622   0.50227
29

C     4.24991  -0.51247  -0.04046
O     2.89504  -0.93910   0.16644
C     1.97202   0.01912   0.27180
O     2.21142   1.21471   0.21431
C     0.60997  -0.52207   0.41113
C     0.44982  -1.88480   0.77486
N     0.36461  -3.00993   1.07028
C     0.02452  -0.80340  -1.87421
C    -1.19118  -0.15191  -1.92895
C    -1.64117   0.33436   0.20027
C    -2.48965  -0.85504   0.53850
C    -2.25946   1.68640   0.01176
C    -3.71123   1.76174  -0.35406
O    -1.55935   2.68941   0.11907
N    -0.35614   0.42386   0.60234
H     4.84650  -1.42957  -0.10877
H     4.33224   0.06571  -0.97177
H     4.59244   0.10131   0.80531
H     0.07867  -1.89251  -1.83956
H     0.94180  -0.28435  -2.15998
H    -2.11275  -0.72563  -2.03293
H    -1.22481   0.88040  -2.28229
H    -3.42493  -0.84895  -0.03444
H    -1.98040  -1.80379   0.34159
H    -2.74328  -0.81577   1.61153
H    -4.32486   1.39574   0.48533
H    -3.93144   1.11797  -1.22004
H    -3.98026   2.80176  -0.58021
H     0.01388   1.37688   0.50079
29

C     4.24917  -0.51234  -0.04080
O     2.89462  -0.93906   0.16704
C     1.97131   0.01981   0.27634
O     2.21150   1.21588   0.21335
C     0.61391  -0.51981   0.43339
C     0.44869  -1.88422   0.77743
N     0.36435  -3.01100   1.06873
C     0.01856  -0.80575  -1.89662
C    -1.18633  -0.15839  -1.95410
C    -1.64390   0.33868   0.22377
C    -2.48879  -0.85655   0.53965
C    -2.25928   1.68712   0.01668
C    -3.71029   1.76109  -0.35335
O    -1.55801   2.69077   0.11771
N    -0.35643   0.42460   0.59476
H     4.84632  -1.42952  -0.10891
H     4.33208   0.06573  -0.97189
H     4.59243   0.10137   0.80513
H     0.07841  -1.89301  -1.83923
H     0.94243  -0.28429  -2.15817
H    -2.11396  -0.72522  -2.03099
H    -1.22511   0.88117  -2.28198
H    -3.42401  -0.84810  -0.03510
H    -1.97928  -1.80339   0.34042
H    -2.74474  -0.81913   1.61166
H    -4.32528   1.39567   0.48507
H    -3.93046   1.11770  -1.21997
H    -3.97979   2.80151  -0.58046
H     0.01356   1.37754   0.49931
29

C     4.24843  -0.51221  -0.04113
O     2.89420  -0.93903   0.16763
C     1.97060   0.02050   0.28087
O     2.21159   1.21706   0.21240
C     0.61785  -0.51755   0.45564
C     0.44755  -1.88364   0.78001
N     0.36408  -3.01207   1.06718
C     0.01260  -0.80809  -1.91903
C    -1.18148  -0.16487  -1.97925
C    -1.64664   0.34299   0.24727
C    -2.48794  -0.85807   0.54080
C    -2.25909   1.68785   0.02160
C    -3.70935   1.76044  -0.35265
O    -1.55666   2.69213   0.11635
N    -0.35673   0.42534   0.58718
H     4.84614  -1.42947  -0.10905
H     4.33191   0.06575  -0.97200
H     4.59241   0.10143   0.80496
H     0.07815  -1.89352  -1.83890
H     0.94306  -0.28424  -2.15636
H    -2.11516  -0.72480  -2.02906
H    -1.22541   0.88194  -2.28168
H    -3.42310  -0.84724  -0.03577
H    -1.97817  -1.80299   0.33926
H    -2.74621  -0.82249   1.61179
H    -4.32570   1.39560   0.48481
H    -3.92948   1.11743  -1.21991
H    -3.97932   2.80127  -0.58071
H     0.01324   1.37820   0.49782
29

C     4.24769  -0.51207  -0.04147
O     2.89378  -0.93899   0.16823
C     1.96989   0.02119   0.28540
O     2.21168   1.21824   0.21144
C     0.62180  -0.51529   0.47790
C     0.44642  -1.88306   0.78258
N     0.36382  -3.01315   1.06563
C     0.00664  -0.81043  -1.94144
C    -1.17664  -0.17135  -2.00440
C    -1.64937   0.34730   0.27076
C    -2.48708  -0.85958   0.54195
C    -2.25890   1.68857   0.02653
C    -3.70841   1.75979  -0.35195
O    -1.55532   2.69349   0.11499
N    -0.35702   0.42609   0.57960
H     4.84597  -1.42942  -0.10919
H     4.33175   0.06576  -0.97212
H     4.59240   0.10149   0.80479
H     0.07790  -1.89402  -1.83858
H     0.94369  -0.28418  -2.15454
H    -2.11637  -0.72439  -2.02712
H    -1.22572   0.88270  -2.28138
H    -3.42218  -0.84638  -0.03644
H    -1.97705  -1.80258   0.33810
H    -2.74768  -0.82585   1.61192
H    -4.32612   1.39553   0.48455
H    -3.92849   1.11716  -1.21984
H    -3.97885   2.80102  -0.58096
H     0.01292   1.37887   0.49634
29

C     4.24694  -0.51194  -0.04180
O     2.89336  -0.93895   0.16882
C     1.96918   0.02188   0.28994
O     2.21176   1.21942   0.21049
C     0.62574  -0.51303   0.50016
C     0.44529  -1.88247   0.78516
N     0.36355  -3.01422   1.06407
C     0.00067  -0.81277  -1.96385
C    -1.17179  -0.17783  -2.02955
C    -1.65210   0.35162   0.29426
C    -2.48622  -0.86109   0.54311
C    -2.25871   1.68930   0.03145
C    -3.70748   1.75914  -0.35125
O    -1.55397   2.69485   0.11363
N    -0.35731   0.42683   0.57202
H     4.84579  -1.42937  -0.10933
H     4.33159   0.06578  -0.97223
H     4.59238   0.10156   0.80462
H     0.07764  -1.89452  -1.83825
H     0.94433  -0.28413  -2.15273
H    -2.11758  -0.72397  -2.02518
H    -1.22602   0.88347  -2.28108
H    -3.42126  -0.84553  -0.03711
H    -1.97593  -1.80218   0.33693
H    -2.74914  -0.82921   1.61205
H    -4.32655   1.39547   0.48430
H    -3.92751   1.11689  -1.21977
H    -3.97837   2.80078  -0.58122
H     0.01260   1.37953   0.49485
29

C     4.24620  -0.51181  -0.04214
O     2.89294  -0.93891   0.16942
C     1.96847   0.02257   0.29447
O     2.21185   1.22059   0.20953
C     0.62968  -0.51077   0.52241
C     0.44415  -1.88189   0.78773
N     0.36329  -3.01530   1.06252
C    -0.00529  -0.81511  -1.98625
C    -1.16694  -0.18431  -2.05470
C    -1.65483   0.35593   0.31776
C    -2.48536  -0.86261   0.54426
C    -2.25853   1.69002   0.03637
C    -3.70654   1.75849  -0.35055
O    -1.55263   2.69621   0.11227
N    -0.35760   0.42757   0.56444
H     4.84561  -1.42932  -0.10947
H     4.33142   0.06579  -0.97234
H     4.59237   0.10162   0.80444
H     0.07738  -1.89503  -1.83792
H     0.94496  -0.28407  -2.15091
H    -2.11878  -0.72355  -2.02324
H    -1.22632   0.88424  -2.28078
H    -3.42035  -0.84467  -0.03778
H    -1.97482  -1.80178   0.33577
H    -2.75061  -0.83257   1.61217
H    -4.32697   1.39540   0.48404
H    -3.92653   1.11662  -1.21970
H    -3.97790   2.80053  -0.58147
H     0.01228   1.38019   0.49337
29

C     4.24546  -0.51167  -0.04247
O     2.89252  -0.93888   0.17002
C     1.96776   0.02326   0.29901
O     2.21194   1.22177   0.20858
C     0.63362  -0.50851   0.54467
C     0.44302  -1.88131   0.79031
N     0.36302  -3.01637   1.06097
C    -0.01125  -0.81745  -2.00866
C    -1.16209  -0.19079  -2.07985
C    -1.65756   0.36024   0.34126
C    -2.48451  -0.86412   0.54541
C    -2.25834   1.69075   0.04129
C    -3.70560   1.75784  -0.34984
O    -1.55129   2.69757   0.11091
N    -0.35790   0.42832   0.55686
H     4.84543  -1.42927  -0.10961
H     4.33126   0.06581  -0.97246
H     4.59236   0.10168   0.80427
H     0.07713  -1.89553  -1.83760
H     0.94559  -0.28402  -2.14910
H    -2.11999  -0.72314  -2.02131
H    -1.22662   0.88501  -2.28047
H    -3.41943  -0.84382  -0.03845
H    -1.97370  -1.80138   0.33460
H    -2.75208  -0.83593   1.61230
H    -4.32739   1.39533   0.48378
H    -3.92554   1.11636  -1.21963
H    -3.97743   2.80029  -0.58172
H     0.01196   1.38085   0.49188
29

C     4.24472  -0.51154  -0.04281
O     2.89210  -0.93884   0.17061
C     1.96705   0.02395   0.30354
O     2.21203   1.22295   0.20762
C     0.63757  -0.50625   0.56693
C     0.44189  -1.88073   0.79289
N     0.36276  -3.01744   1.05942
C    -0.01722  -0.81980  -2.03107
C    -1.15724  -0.19727  -2.10500
C    -1.66029   0.36456   0.36476
C    -2.48365  -0.86564   0.54657
C    -2.25815   1.69147   0.04622
C    -3.70466   1.75719  -0.34914
O    -1.54994   2.69894   0.10955
N    -0.35819   0.42906   0.54928
H     4.84525  -1.42922  -0.10975
H     4.33110   0.06582  -0.97257
H     4.59234   0.10174   0.80410
H     0.07687  -1.89603  -1.83727
H     0.94622  -0.28396  -2.14728
H    -2.12119  -0.72272  -2.01937
H    -1.22693   0.88578  -2.28017
H    -3.41851  -0.84296  -0.03912
H    -1.97258  -1.80098   0.33344
H    -2.75354  -0.83929   1.61243
H    -4.32781   1.39527   0.48352
H    -3.92456   1.11609  -1.21956
H    -3.97696   2.80004  -0.58197
H     0.01164   1.38151   0.49040
29

C     4.24398  -0.51141  -0.04314
O     2.89168  -0.93880   0.17121
C     1.96634   0.02464   0.30808
O     2.21211   1.22413   0.20667
C     0.64151  -0.50399   0.58918
C     0.44075  -1.88014   0.79546
N     0.36249  -3.01852   1.05787
C    -0.02318  -0.82214  -2.05348
C    -1.15239  -0.20375  -2.13015
C    -1.66302   0.36887   0.38826
C    -2.48279  -0.86715   0.54772
C    -2.25796   1.69220   0.05114
C    -3.70372   1.75654  -0.34844
O    -1.54860   2.70030   0.10819
N    -0.35848   0.42981   0.54170
H     4.84507  -1.42917  -0.10989
H     4.33093   0.06584  -0.97269
H     4.59233   0.10180   0.80393
H     0.07661  -1.89653  -1.83694
H     0.94685  -0.28391  -2.14547
H    -2.12240  -0.72231  -2.01743
H    -1.22723   0.88655  -2.27987
H    -3.41760  -0.84210  -0.03979
H    -1.97146  -1.80058   0.33227
H    -2.75501  -0.84265   1.61256
H    -4.32823   1.39520   0.48327
H    -3.92358   1.11582  -1.21949
H    -3.97648   2.79980  -0.58223
H     0.01132   1.38217   0.48892
