11

C 5.555856733 -1.401618616 1.118201215
C 3.474907880 -0.581201370 0.752910201
C 1.024426220 0.442485986 0.335589905
C -0.907039022 -1.001225334 -0.385411854
N -3.353340948 -0.130121306 -0.833100464
N -4.560462167 4.382623292 -0.372843437
C -4.019742869 2.285936913 -0.590883703
H 7.402055397 -2.130970962 1.440561449
H -0.693100388 -3.012620323 -0.682351380
H -4.695411610 -1.365915000 -1.352117221
H 0.768163919 2.457061232 0.623646414

