11

C 5.621312121 -0.945324307 0.688430837
C 3.390560181 -0.928871255 0.151955542
C 0.951188599 -0.784716729 -0.590857039
C -1.323078027 -1.494754600 0.421285243
N -3.248460505 -0.041139489 0.789058998
N -3.697258668 4.627842204 -1.599209948
C -2.395246401 2.924968816 -1.144070129
H 7.575128988 -0.968107979 1.173761903
H -1.441429042 -3.543815855 0.681558848
H -4.963792347 -0.886842725 0.928587286
H -0.472613625 1.985194540 -1.446298545

