15

C -3.007664233 1.459656830 -1.432968624
C -0.601656257 1.649417685 0.088555646
O -1.089906232 3.085372190 2.280633661
C 0.390148944 -0.906140835 0.983888307
O 2.400416994 -0.901941524 2.390453621
C 3.341425941 -2.933365908 -0.279705034
O 3.423354696 -5.128180114 0.043737333
H -4.498802879 0.583730466 -0.309518374
H -2.713843813 0.337873847 -3.140280563
H -3.639178521 3.337895215 -1.991487593
H 0.899055572 2.546146947 -1.036654903
H 0.386196714 2.985242670 3.340961900
H 1.253190229 -1.970888350 -1.259262769
H -1.042710794 -2.377962890 1.324826704
H 4.684248374 -1.464131550 -0.790745749

