18

C 3.786631772 -0.977919153 -0.669689478
C 1.603263070 -1.036603067 1.209599746
C -0.766143083 0.276388527 0.276915402
C -0.520547511 3.084760353 -0.178269790
C -3.253371053 -0.676036425 1.245161009
C -2.477164252 -1.193712233 -1.441195188
H 3.221840047 -1.803735120 -2.476017944
H 5.403988042 -2.043936564 0.038591099
H 4.428205300 0.948501560 -1.034865256
H 1.140315035 -3.003260396 1.651154551
H 2.196401916 -0.170587826 2.994604808
H 0.079953708 4.059383862 1.542320423
H -2.321028352 3.898794747 -0.770519028
H 0.860855382 3.496877741 -1.655933630
H -3.242603866 -2.243518684 2.561177507
H -4.747658569 0.684167482 1.569197223
H -3.449539251 -0.189759438 -2.936068803
H -1.943398372 -3.109805385 -1.926162614

