11

C -2.855948459 -0.124975374 0.051514520
C -0.037897286 -0.039808687 0.004829120
C 1.641340485 -1.945510991 0.260327991
O 4.012151215 -1.089460956 0.112248277
N 3.956561237 1.471237903 -0.254567652
C 1.578973891 2.085923689 -0.317210126
H -3.528967993 -2.062880690 0.238116395
H -3.611558247 0.959015505 1.635182245
H -3.655805031 0.655359968 -1.681663083
H 1.428346883 -3.952909511 0.547787119
H 1.072803303 4.044009182 -0.596564825

