12

C 3.823943035 -0.091051956 -0.006639704
C 1.060274381 -0.526405851 0.180489159
N -0.028910089 -2.584774253 0.934205404
N -2.614982734 -2.224571818 0.830799042
C -2.963377216 0.047324317 0.014385105
O -5.161600223 1.215408670 -0.387273442
N -0.744979549 1.239073332 -0.434809276
H 4.388110225 0.351254166 -1.941485837
H 4.783584115 -1.809983065 0.584688160
H 4.427212154 1.457001349 1.216693948
H -6.477385683 0.034417128 0.044177602
H -0.510080790 3.006264116 -1.081176982

