16

C 3.662972535 -2.154781983 0.114180106
C 2.616285153 -0.065571871 -0.780206935
C -0.157139798 0.394073622 -1.234145059
C -1.843582509 -1.848985670 -0.624122531
C -0.920324156 2.783032148 0.175418779
C -2.309029990 2.784682238 2.522751079
N -3.689385162 3.314983381 0.686456980
H 5.688011894 -2.288353306 0.380295175
H -2.474342721 2.548321115 4.545978285
H 2.560061397 -3.808304418 0.608034158
H 3.841684615 1.521329667 -1.239353900
H -0.368402977 0.825928216 -3.253719027
H -3.814801390 -1.401557540 -1.021741524
H -1.315138626 -3.489219985 -1.754770502
H -1.709612926 -2.376277179 1.369828094
H 0.199489278 4.440106153 -0.307696357

