14

C 3.882049789 0.023733581 0.680499146
C 1.230245344 0.925464854 0.094019298
H 1.260181365 2.898234180 -0.507339780
C -0.180504107 -0.773169501 -1.815183610
H -1.091052408 0.322577780 -3.312072806
H 1.116176694 -2.096058649 -2.730581873
C -2.085106855 -2.061516327 -0.139506726
H -3.357875024 -3.548879319 -0.704945947
C -1.982694697 -1.011128444 2.129374918
H -3.091104372 -1.403612712 3.799800007
O -0.242761834 0.850666035 2.401796362
H 4.727361852 1.163121668 2.174599144
H 5.069688253 0.154816569 -1.002141379
H 3.839908462 -1.945103434 1.300153929

