12

C -3.512341143 0.104231926 0.474896830
C -0.733650943 0.251120527 -0.009590870
C 1.075879003 2.067353256 0.780732374
C 3.414329534 0.719312061 0.245826232
C 2.867295678 -1.641260682 -0.537686477
O 0.367872966 -2.035382945 -0.736696842
H -4.250811852 2.002197162 0.756210683
H -3.851358086 -0.987342329 2.189387517
H -4.503864208 -0.804274109 -1.085397156
H -0.283217601 1.947510945 -1.516385255
H 5.293521513 1.470651426 0.496208727
H 4.042290552 -3.221482870 -1.078963603

