8

N 5.009233836 1.052979472 0.699690789
C 2.850777129 0.596017144 0.316856521
C 0.235103095 -0.046229995 0.992662324
C -2.108577064 -0.939358422 -0.111221324
O -1.769209049 1.429093382 1.259441159
H 1.757292738 0.658174696 -1.635233835
H -2.530179460 -0.674605525 -2.098408694
H -3.176300425 -2.371359375 0.889442743

