9

C 2.389075085 2.242888102 -0.041249717
C 2.294900716 0.418329126 -1.644115000
C 2.168911352 -1.400688852 -3.296046511
H 0.493547879 -2.571258176 -3.464717985
H 3.734267953 -1.813472671 -4.554729909
C 2.089334248 4.771106896 0.879669023
H 3.467458164 6.206586059 0.384233874
H 0.234573896 5.434261549 1.450688152
O 3.081981643 2.709824536 2.394512299

