18

C 2.220831218 1.992741388 -0.920272812
C 2.369074318 -1.045167042 0.969248107
C 0.007099701 -1.961281644 -0.255856464
C -1.378055791 -3.672892596 1.333621168
C -1.147637762 0.620301561 -0.696849793
C -2.477385350 1.989487752 1.418363763
H 2.855463385 1.499044202 -2.811198232
H 1.234455692 3.826071830 -1.016792426
H 3.893746721 2.555176058 0.189209112
H 2.124190757 -0.407469909 2.906757166
H 4.176708925 -1.988730445 0.661183802
H 0.449846488 -2.801125312 -2.087874397
H -1.951809694 -3.077912704 3.206376002
H -1.943635438 -5.536879063 0.717003855
H -2.034984326 0.972261313 -2.532389552
H -4.428962645 1.356563898 1.591042306
H -2.530201721 4.015873825 1.025929705
H -1.555790353 1.704679399 3.241276315

