11

O 4.791145778 1.861976347 -0.978033708
C 3.651268006 -0.374924838 -0.060721417
C 0.844224734 -0.406557417 -0.516734800
C -0.819752497 -0.573792755 1.286799820
C -2.462051073 -0.756702730 3.104378961
H -3.206429538 0.913184827 4.027243362
H -3.139230669 -2.582638692 3.738273000
H 0.210754049 -0.241054712 -2.462804148
H 4.032915640 -0.654512445 1.954891478
H 4.550107299 -1.917681542 -1.094417292
H 3.999717290 3.272294468 -0.158149989

