16

C 3.011039019 2.406641469 -0.840126995
C 0.808917223 -0.536668424 1.825576423
C -1.494925865 -2.221835834 1.555502397
C -1.953624738 -2.481438454 -1.265061337
C -1.002464466 0.256566358 -1.417491163
C -1.739380629 0.625279496 1.447235301
N 1.723337327 -0.008593038 -0.737298738
H 4.854530745 2.246258466 0.071777335
H 3.322705067 2.929863868 -2.811117862
H 2.026900135 -0.569021953 3.466726840
H -2.087510681 -3.465142455 3.064576547
H -0.876832279 -3.876736144 -2.336223697
H -3.967237036 -2.621238975 -1.679437364
H -1.439184614 1.493719559 -2.998665999
H 1.953049373 3.938136558 0.097626124
H -2.899725854 1.919443410 2.516198284

