11

N 3.317421204 -1.180000909 -0.619961826
C 1.018424280 -0.216923797 -0.465473408
C -0.250720207 1.992517683 0.618704402
N -2.393966962 1.676787722 1.935919648
C -3.272884516 -0.497872177 1.133927081
N -2.223317739 -1.559954667 -0.912242591
N -0.641360404 0.222954612 -2.325869207
H 4.331575969 -1.516028343 0.948298244
H 3.847530804 -2.014999055 -2.247623113
H 0.696136573 3.798802156 0.457717084
H -4.808844008 -1.490071348 2.053625870

