14

C 4.257380710 0.040518109 0.090779004
C 1.458205992 0.119617925 0.052120895
C -0.242843734 -1.731070388 -0.289602475
C -2.749812879 -0.607540486 -0.146850258
N -4.969969692 -1.492285219 -0.331698846
C -2.250293201 2.172268488 0.320060363
O 0.445417197 2.430179746 0.417545929
H 5.014113468 1.253271903 -1.396054355
H 4.936435803 -1.879718418 -0.188330200
H 4.956745937 0.755499163 1.894482565
H 0.181073444 -3.698462707 -0.610593754
H -4.928121348 -3.388145338 -0.646185007
H -3.045928503 2.809894624 2.110486198
H -2.976560512 3.347894379 -1.208526722

