10

C -1.591440887 -1.380406988 0.178696527
C -0.509833614 1.215433879 -0.176379969
N 1.587889752 1.536784641 -1.299440728
C 3.439401683 1.801569626 -2.628846597
O -0.660395635 -2.656106954 2.345561646
H -3.657313599 -1.244031709 0.239848348
H -1.076575575 -2.566454549 -1.426108314
H -1.442323581 2.876778230 0.578646328
H -1.037918241 -1.659677386 3.811973850
H 5.280099960 1.724690182 -1.698780468

