10

O -4.262438864 0.286680864 -1.488428685
C -2.649299745 -1.271615644 -0.052697791
C -0.066325948 -0.372695849 0.189167670
C 2.089935370 0.372224400 0.428443734
C 4.967113314 0.278474785 -1.385042165
C 4.621240578 1.303776591 0.813045594
H -4.049869865 2.003231466 -0.945163113
H -2.630808189 -3.115235758 -0.981373724
H -3.384718641 -1.575606532 1.865645893
H 5.385991141 2.323338051 2.397094515

