11

C -0.599229225 0.765622823 2.019971284
H 1.163431639 -0.228772097 2.232478791
C -1.243347590 3.484260682 2.337655108
H -2.890461925 4.021342484 3.450426005
H 0.332872479 4.784764872 2.486333562
C -1.593519170 2.232546330 -0.156886839
H -0.772499253 2.616018172 -1.978477188
C -2.964041587 -0.046516157 0.705753654
O -2.822784616 -2.105996455 -0.923616002
H -3.187200384 -3.610493159 0.016147086
H -4.784008339 0.155799283 1.663082597

