16

C 3.034818936 -1.545347538 -1.185582026
C 0.348503235 0.049176400 1.290542329
C 0.050381308 2.856827295 0.984224621
C -1.995959138 2.081599504 -0.888682714
C -2.317996873 -0.422045159 0.329201780
O -2.635226822 -2.577556973 -1.269859616
H 2.645663421 -3.496236670 -0.709932745
H 3.153599939 -1.292380541 -3.233732717
H 4.651157021 -0.729530566 -0.231434456
H 1.393991379 -0.978046634 2.738009612
H -0.476406683 3.663745244 2.852258806
H 1.718525782 3.910700267 0.340842720
H -3.556124208 3.287425297 -1.458370228
H 1.189038562 -0.278675720 -1.180904614
H -3.616243671 -0.699737862 1.973958739
H -3.561026025 -3.845727684 -0.361354374

