14

O 1.895871967 -2.154464075 0.223189335
C 2.479127016 0.248877649 -1.316099287
C 1.236017078 2.339947799 -0.097759879
C -1.512599964 1.723827786 0.392403293
C -1.626113034 -0.846992086 1.441842306
O -3.077035398 -2.620944083 0.482571518
H 1.934794467 -3.651587030 -0.827579875
H 1.740059230 -0.216039575 -3.202791910
H 4.528302751 0.435379199 -1.396942375
H 2.220657269 3.143030663 1.516559204
H -2.729861567 1.821884749 -1.300185261
H -2.276573755 3.019477704 1.808888838
H -0.981484443 -1.253918076 3.336122179
H -3.823302229 -2.007283398 -1.066304894

