15

O 0.864722461 -2.902793201 2.551510292
C 0.059259298 -3.025145503 0.149065660
C -1.566157013 -4.301310984 -1.230352945
C -1.282431737 2.505216197 0.938436066
C 0.370017484 3.000647434 -1.299443033
C 1.388934170 1.575545229 0.941532099
C 1.950029836 -1.157538944 0.662220827
H -1.753906179 -3.889558030 -3.220202353
H -2.716465771 -5.770416463 -0.397414657
H -2.765847016 1.112564256 0.735643905
H -1.731087415 4.063017654 2.182186395
H 0.000298690 1.927685015 -3.001655244
H 1.059913897 4.898070715 -1.617823448
H 2.715296616 2.584790712 2.131679269
H 3.899770072 -1.632387926 0.222002361

