15

O 0.503006506 -3.809103280 2.866389063
C 0.314628855 -2.935468966 0.687639419
C -1.581516310 -3.175089035 -1.080384734
C -1.669081853 1.973890955 1.090524305
C -0.290938077 2.781896914 -1.098819125
C 2.126635098 1.451836009 -0.139339390
C 2.407932322 -1.033376247 0.288357656
H -1.266531525 -2.596859316 -3.017974767
H -3.235156739 -4.299650199 -0.645628143
H -3.121567872 0.544971031 1.000483258
H -1.166620344 2.757168941 2.914497636
H -1.000064684 2.054048242 -2.879227712
H 0.106784757 4.799451106 -1.165410768
H 3.652022026 2.747919714 0.310174336
H 4.287819587 -1.705583576 0.761681081

