12

N 6.052432841 0.087711733 -0.187558247
C 3.920349530 -0.149273700 0.118314978
C 1.198383692 -0.432346453 0.526626004
C -0.550267933 1.909039409 0.245629323
C -2.213274789 0.173534155 -1.381000797
N -0.259647651 -1.507982550 -1.529794336
H 0.856509976 -1.399343253 2.332179532
H -1.325145916 2.701158668 1.969835300
H 0.311705713 3.374093089 -0.914761917
H -4.308622259 -0.425750420 -0.626295470
H -4.047508936 -0.856638893 1.175545710
H -0.284636124 -3.309956256 -2.137152256

