12

O -4.771614249 0.976217379 -2.301581181
C -2.998499533 -0.388302228 -1.948905582
C -0.385271202 0.513188464 -1.273389757
C 0.431388248 -0.536834909 1.302875928
C 3.044247951 0.365740315 1.978493760
O 4.818259172 -0.997863909 2.330196321
H -0.874148887 0.137969698 2.760742715
H -3.214015466 -2.472309621 -2.088504242
H 0.919868486 -0.162205020 -2.731330488
H -0.377665942 2.575425305 -1.290965684
H 0.424394769 -2.599078025 1.320171061
H 3.258531461 2.449832331 2.118699439

