15

C 3.510516764 -0.261772365 1.569300289
C 1.019433772 0.074875957 0.312819329
C -0.151349129 -1.709406398 -1.628952518
C -1.535683063 -1.069340172 0.740008757
O -2.973822450 -2.190320229 2.397040129
C -2.399192565 2.266287257 0.038204839
O 0.244725561 2.596555996 -0.141974897
H 5.032182008 0.398382651 0.342030715
H 3.831067775 -2.253131759 1.987476593
H 3.571974418 0.799496919 3.334629277
H -0.681970676 -1.056401407 -3.496223537
H 0.561747036 -3.631265350 -1.538954349
H -3.349543184 0.225189497 1.643333069
H -3.395412355 2.382970948 -1.760556560
H -3.227420862 3.563880135 1.428359148

