10

N 3.430639722 -0.558755808 0.886461265
C 1.134275395 0.355609872 0.411002563
C -0.493604438 2.271207103 -0.172914173
O -2.936676671 1.214798969 -0.289268938
C -2.705590000 -1.194193867 0.207827922
N -0.381231270 -1.806145390 0.631543655
H 4.964495401 0.558843283 0.864963458
H 1.682628072 -2.745775914 1.081377161
H -0.364479660 4.257358808 -0.544567650
H -4.363590972 -2.378411115 0.219818347

