15

C 3.022687631 -0.876510119 0.287583699
C 0.620982373 0.485936705 1.046638647
C -0.322474639 2.477749217 -0.784483064
O -1.402915951 1.196450540 -2.847279586
C -3.308745320 0.915093318 -0.984797208
C -1.928451923 -0.968691583 0.851635427
O -1.865887551 -3.385873887 -0.211850752
H 4.660321002 0.365524131 0.470641753
H 2.935704312 -1.526444381 -1.666498560
H 3.325612599 -2.524724898 1.486722753
H 0.807270629 1.277076329 2.943156901
H 0.584659833 4.238988062 -1.326418722
H -2.274606455 3.230628294 0.186388582
H -2.898549311 -1.133391514 2.657615447
H -1.299647350 -3.232898119 -1.932518992

