14

O 0.895825444 2.705291064 3.558915617
C 2.154665085 2.817093498 1.325992684
C 1.339921212 1.985299382 -0.896818476
C -1.303285734 -1.585981072 -2.330308212
C -0.144209630 -3.026299861 -0.196645467
C -2.104720719 -1.028620770 0.232683112
N -1.100676027 0.968310009 -1.377058337
H 3.983054233 3.711590521 1.512927661
H 2.513135472 2.235263548 -2.551518059
H -2.425424420 -2.136622736 -3.935668254
H 1.798358282 -2.646331155 0.343492173
H -0.757479993 -4.970999725 0.032505160
H -0.715044983 1.908982755 3.292752057
H -3.987823184 -1.063097689 1.007388620

