14

O 0.783945777 3.017046553 3.300122462
C 2.085767541 2.941453936 1.338937062
C 1.212752716 2.102470925 -1.002730766
C -0.822002915 -1.222628954 -2.257927203
C -0.119503786 -2.777594197 -0.022957187
C -1.938149393 -0.706350335 0.915438345
N -1.311139285 1.202129413 -1.367975916
H 4.097855851 3.491102776 1.406924627
H 2.382917280 2.115056916 -2.673808340
H -2.014026602 -1.997820292 -3.754188463
H 1.774064058 -2.715093281 0.742641315
H -0.863978570 -4.691264039 -0.099427808
H -1.312641220 0.389386439 2.596270553
H -3.926557488 -1.192568967 0.869096610

