14

C -3.248277674 0.202100597 0.523669187
C -0.763360575 0.324544172 -0.921725860
C 1.158721157 1.878058256 0.215451115
C 3.211988394 2.347137848 1.191702736
N 2.862275980 -2.484807325 -0.188579266
C 0.575057606 -2.452328810 -1.064962187
O -0.878993578 -4.012570867 -1.999772719
H -4.298546693 1.974409136 0.434075722
H -2.920360889 -0.292160578 2.498193937
H -4.365193025 -1.295214072 -0.337475115
H -1.059786152 0.908269990 -2.878390223
H 1.309559871 4.124758106 0.851258937
H 4.948012341 2.949607122 2.035931249
H 3.579083719 -4.255140515 -0.341317400

