14

C -4.460517217 -1.961590198 -0.485361529
C -2.678827642 0.005186486 -1.489155379
C -0.489959440 0.526733454 -0.523443951
N 1.565509423 3.020459134 2.404640041
C 1.704971532 1.086681414 0.492326152
O 3.576152962 3.525048814 3.334547432
C 4.195610023 -0.079842270 -0.158036738
H -3.670697245 -2.911230734 1.159783580
H -6.250281062 -1.090321953 0.056393169
H -4.866812982 -3.371908773 -1.935370191
H -3.266565612 1.080568661 -3.139037804
H 5.031096134 -0.961554446 1.508121521
H 5.518392421 1.363089822 -0.805869341
H 3.957023067 -1.495574514 -1.629880071

