14

C -2.717761027 0.616442495 0.161314524
C -0.508476470 0.969700319 -1.577493234
C 1.895902014 1.916496873 -0.332606254
C 2.672450685 0.198903444 1.751119627
C 1.060102549 -2.081715590 1.442729343
C -1.040650143 -1.584708983 -0.447338028
H -2.617340092 1.428523724 2.042563583
H -4.587275510 0.641071579 -0.665954547
H -0.866127019 1.359443595 -3.553208984
H 1.867887316 3.887510342 0.294253337
H 3.541629460 1.823056965 -1.609154670
H 2.430396762 -3.495217749 0.756710440
H 0.458461410 -2.825260233 3.276702878
H -1.795493760 -3.117056680 -1.571948551

