14

C -2.751741968 0.764534813 0.103757208
C -0.492606946 0.876771770 -1.586006469
C 1.972640466 1.724067630 -0.352763982
C 2.580133388 -0.050241600 1.826845677
C 0.787012217 -2.003204462 1.597848665
C -1.217973028 -1.588554708 -0.350802635
H -2.640980831 1.642722593 1.951618642
H -4.597915953 0.846102762 -0.771187367
H -0.795956858 1.162926534 -3.588279580
H 1.845600925 3.632903213 0.432769014
H 3.553260876 1.785039115 -1.681294757
H 2.946042191 -2.375231064 0.772306765
H 0.653097663 -3.521901627 2.976845011
H -2.046906022 -3.158744888 -1.363966768

