8

N -5.707297513 0.967550075 -0.127391937
C -3.991503954 -0.867921786 0.237183324
O -4.420877358 -3.076647608 0.646271538
C -1.251725445 0.060919366 0.097390948
O -0.696560382 2.216473151 -0.312360598
H 0.150839413 -1.451778221 0.411982764
H -7.558455046 0.557314873 -0.073806202
H -5.117068411 2.742589911 -0.458054854

