13

N -3.908378776 1.487111621 -0.271436670
C -2.747340475 -0.458204350 0.881361273
O -3.557478253 -1.677134184 2.640937442
C -0.137640394 -0.997241319 -0.278750080
O 0.576456608 0.297101173 -2.262945919
C 3.271741686 0.800029520 0.167877505
N 5.299890135 -0.237805743 -0.046858707
H -5.695429088 1.926284445 0.188464446
H -3.082635545 2.199920095 -1.832483901
H 0.290276162 -3.034108266 -0.172305152
H 1.274801307 -0.336231127 1.573968876
H 2.581493688 2.710622076 0.304900942
H 5.695121290 -2.093459255 -0.067909954

