17

C 4.887947150 0.609132751 0.072539235
C 2.198912927 0.045303274 0.951035872
C 0.433449089 2.193917399 0.415718053
C -1.916891618 2.077565185 -0.485140015
C -3.410258629 -0.180130641 -1.070674149
C -3.499671191 -2.252423414 0.353584709
O -4.864166685 -4.361220783 -0.126412757
H 4.943031041 0.928038131 -1.965487418
H 5.634151620 2.301097865 0.991082645
H 6.159869629 -0.954920865 0.506968204
H 2.221737569 -0.344713389 2.985906361
H 1.502876246 -1.674535074 0.043787997
H 1.205953463 4.068132462 0.759551227
H -2.860064509 3.861594732 -0.868109833
H -4.592589968 -0.095182519 -2.752791277
H -2.480890528 -2.420377056 2.120996704
H -5.737875909 -4.171048308 -1.707337998

