15

C -2.982280449 1.303168175 0.666410935
C -1.576498275 -0.226911094 -1.271314724
N 0.723454435 0.835428777 -2.382365782
C 0.904932053 -1.436185071 -0.824891002
C 2.436307939 -1.132818303 1.584974584
O 2.826088462 1.413055163 2.227104712
H -4.235048248 0.081034839 1.760411164
H -1.688308626 2.233751956 1.967578457
H -4.139842353 2.741537636 -0.254632904
H -2.791936160 -1.243715633 -2.579919528
H 0.879263317 0.462102515 -4.248398086
H 1.222852773 -3.219393248 -1.790980791
H 4.256727980 -2.096091833 1.325635960
H 1.470002853 -2.057909369 3.162127725
H 2.694284335 2.342945490 0.658259261

