15

C -3.120202885 1.504301949 0.409684403
C -1.875405742 0.599726903 -1.984260014
N 0.749903986 1.320121078 -2.037351964
C 0.904574026 -1.265645678 -1.096835990
C 1.818169150 -1.524429611 1.601455793
O 3.957994518 -0.006812406 2.020092604
H -1.856378260 2.082733094 1.942506459
H -4.158906912 3.186900749 -0.196417321
H -4.530542114 0.164632316 1.093515061
H -1.261092478 -1.966218100 -1.497356186
H 1.379377352 1.353629815 -3.842672621
H 1.798951921 -2.527191463 -2.451976565
H 2.373215596 -3.481129349 1.943020767
H 0.304640689 -1.066994569 2.937353854
H 3.597223918 1.596368310 1.231620120

