13

N -3.519619518 0.391109548 1.075861636
C -1.273409750 -0.028912848 -0.575152905
C 0.137362907 2.113674676 -1.312498225
C 2.753911487 1.698595331 -1.278385418
C 2.798663074 -0.698612775 -0.207036712
O 4.807846989 -2.217304555 0.113736285
N 0.508236059 -1.704308030 0.474128921
H -4.664998263 -1.150358835 1.161568237
H -4.536752643 1.822674352 0.291546134
H -0.785262520 3.862691132 -1.890605849
H -3.048903461 0.901255383 2.887429595
H 6.190851935 -1.278548690 -0.613943955
H 0.281295182 -3.596976232 0.473005800

