14

C 0.639979109 -2.184632475 -0.506206531
H 2.354280068 -2.601654156 -1.545876264
H -0.252809753 -3.833621589 0.309959663
C 0.748500487 0.322680128 0.724694945
O 3.014132009 1.472506608 1.272525434
H 2.852372266 3.256204565 0.980546364
C -0.742520089 0.025949190 -1.670073884
H -0.412246967 0.627871596 -3.592924527
N -3.153720447 0.873778028 -0.417980944
C -3.816939918 -0.782638408 1.697746750
H -3.463167824 -2.792568519 1.602717355
H -5.627378255 -0.288241551 2.517953651
C -1.754349376 1.055014026 2.008193433
H -1.913066170 2.725925645 3.184831764

