9

C -2.344425146 -2.060867395 1.622681121
C -2.015753453 0.661031849 1.151992919
N -0.762637906 2.510102708 1.892446877
C -2.679335014 2.936863489 -0.210185487
H -1.922402003 3.296110403 -2.084369522
H -4.362411934 4.003055019 0.284541581
H -4.304770997 -2.453212862 2.128622183
H -1.098474061 -2.686640242 3.137746289
H -1.927124863 -3.121817675 -0.096268847

