15

C -3.143361837 -2.154041362 0.983271765
C -1.277085683 -0.174340595 0.222084715
C -1.077633897 2.508303632 -0.412049528
N 0.316006106 1.132680599 1.600092960
C 4.176454134 0.646745897 0.513950061
C 3.591138055 -0.799631657 -1.487339598
N 2.127700280 -1.890938384 -2.825672552
H -4.588047671 -1.324900781 2.202234858
H -2.188759769 -3.649459369 2.032818303
H -4.067979281 -2.984287565 -0.657733351
H 0.167674209 -1.364054735 -1.827510520
H -0.065070981 3.016895129 -2.127791478
H -2.405110582 3.924668650 0.261276369
H 4.669333371 2.608175053 0.213135293
H 4.901406252 -0.252449552 2.199337152

