12

N -3.731505022 1.361042719 0.682916767
C -2.904200764 -0.646166847 -0.468721375
C -0.149763554 -0.346587110 -1.150207355
N 1.248396731 1.793498681 -0.136416343
C 3.216008692 0.820777541 0.850815664
N 3.468838476 -1.848032719 0.720892401
C 1.470823599 -2.550905504 -0.440209622
H -2.618046680 2.883643661 1.064802864
H -5.553829378 1.449147401 1.226930765
H -0.163528886 -0.212371353 -3.228383242
H 4.676972683 1.915032675 1.780231802
H 1.042028074 -4.510119428 -0.853700898

