15

C -4.767281391 -0.440042627 -0.821622287
N -2.413634627 -0.242964280 -1.495350827
C -0.261836748 0.000063211 -0.143046050
N -0.278849026 0.076018788 2.501274399
C 1.945450879 0.152715401 -1.709484500
O 1.753042007 0.057543219 -4.032830923
C 4.479957018 0.425421154 -0.444479968
H -6.187009838 -0.624292587 -2.269570732
H -1.193886844 1.581374070 3.246079696
H -5.252130426 -0.422971956 1.159848813
H -1.940340833 -0.258244284 -3.379154115
H -0.899459671 -1.529142418 3.335917654
H 4.899097063 -1.250122939 0.683446287
H 5.923994317 0.673096314 -1.885899694
H 4.481757285 2.029026606 0.850047282

