14

C 3.767510578 0.071884823 1.049800707
C 1.356363511 1.510180113 0.598539418
N -0.384786582 -0.269310312 -1.190986983
C -3.069181319 0.068137250 -0.835400733
C -3.962115123 -1.078727595 1.529144289
N -4.664045520 -2.028382303 3.344944271
H 4.824481303 -0.263972290 -0.697075767
H 3.520297363 -1.762198864 2.008222762
H 4.989764290 1.225832078 2.245426779
H 0.265833934 1.742320646 2.335550765
H 0.552944730 1.364137977 -2.057597091
H 0.207754582 -2.083054159 -1.388621231
H -4.143906492 -0.726100354 -2.406459904
H -3.424505067 2.103217688 -0.758461441

