8

O 3.504687752 -0.327709747 0.484294533
C 1.017955250 -0.390413619 0.252287981
N -0.472423840 1.631866721 0.232993934
N -2.937220874 0.504498143 -0.024433649
N -2.637221768 -1.935988434 -0.080725831
N -0.244784086 -2.541977814 -0.054546812
H 4.056957567 1.402073643 0.575141170
H -2.227815117 1.707647592 1.816630705

