13

C -2.595187626 -1.493730122 -1.611068905
C -0.820764540 0.196737100 -1.087697482
C -1.375783792 2.744732521 0.018062267
H -0.682288395 4.245703885 -1.222924696
H -3.396922964 3.014783436 0.306152394
H -0.407455207 2.962768592 1.825379854
C 1.910649078 -0.346800554 -1.640156175
O 3.352467592 0.064440587 0.582639603
H 5.109059676 0.048780370 0.148037800
H 2.117050729 -2.294301748 -2.312858273
H 2.548672358 0.927088412 -3.152781706
H -4.579396939 -1.097654752 -1.291514971
H -2.124755747 -3.334223382 -2.378098592

