18

C -4.177562496 -0.572021591 -1.120218195
C -2.954330379 1.587085749 0.334831464
C -1.104152783 0.700623954 2.360941806
N 1.043422295 -0.676655632 1.360803423
C 3.087930463 0.523947468 0.381694479
O 3.272267540 2.813161356 0.349659842
C 5.135996116 -1.163690796 -0.677582372
H -5.505761718 0.132606315 -2.530922425
H -2.764283495 -1.698764651 -2.118056044
H -5.221047209 -1.833254758 0.141916429
H -1.945608369 2.845153153 -0.954382822
H -4.411201790 2.726892448 1.257737118
H -0.371191778 2.328617549 3.390482305
H -2.061322308 -0.528614260 3.717705769
H 0.965913005 -2.567500966 1.265285931
H 5.250370939 -0.854255098 -2.711735540
H 4.823388077 -3.168323192 -0.318858327
H 6.937173926 -0.595007067 0.139981104

