18

C -2.799212871 0.428000555 -1.898001386
C -3.750708589 1.537536827 0.220317197
C -0.544561073 1.042694448 3.365665742
N 0.853344004 -0.680828393 2.322746567
C 2.065289392 0.010901603 -0.144439950
O 2.500421830 2.328533438 -0.404418379
C 4.050345585 -1.938993439 -0.890391367
H -3.441494064 -1.431689034 -2.475756539
H -1.878759534 1.571383391 -3.326590684
H 0.058374717 -0.600061612 -1.231879901
H -3.589842686 3.557142184 0.485999557
H -5.123580011 0.555552174 1.379401900
H 0.034604892 2.970275340 3.006839953
H -1.817127288 0.543389424 4.882673246
H 0.425478602 -2.519644351 2.617311463
H 4.462603474 -1.696331704 -2.891410474
H 3.424843932 -3.883893519 -0.575312776
H 5.782228801 -1.594531270 0.173191018

