12

O 4.387040281 1.462422463 -0.600025064
C 2.016586576 0.665961332 -0.253796096
C 0.899336366 -1.559363164 -0.640669766
C -1.789195492 -1.342902973 0.272095674
C -2.004897562 1.534135642 0.626265083
O 0.537769549 2.503720063 0.689770917
H 1.797746653 -3.248143126 -1.341640258
H 5.398218311 0.059345923 -1.144851153
H -3.187283532 -2.021706732 -1.084658859
H -2.099534309 -2.366190974 2.044146342
H -2.932342036 2.106447400 2.371003048
H -2.964118726 2.420293190 -0.974126662

