12

O 4.459927244 1.345686767 -0.481873378
C 2.081894396 1.049887899 -0.380778151
C 1.211609734 -1.455547923 -0.676661566
C -1.412300614 -1.397235264 0.511290480
C -1.992013957 1.462408649 0.491686442
O 0.459358916 2.737484174 0.412236157
H 1.437587399 -2.242311754 -2.558364726
H 4.031242514 -1.023094417 -0.206785813
H -2.831608919 -2.434495446 -0.561820150
H -1.429891508 -2.128680084 2.441338106
H -2.949761890 2.158192504 2.172638478
H -3.035822815 2.045034211 -1.189250552

