15

C -2.403012760 -1.555806662 0.617579127
C -0.726508761 0.556904916 1.482111670
C 0.842834802 2.137776735 -0.317388951
C 1.974738837 0.751339763 -2.571794386
C -0.078585414 -2.118361556 2.149239454
H -4.230719358 -1.765879521 1.510561762
H -2.374829479 -2.076178598 -1.360383375
H 0.518802160 -0.077341331 -3.776147288
H -1.484917063 1.655747757 3.038698165
H -0.337811486 3.689918462 -1.008453612
H 2.371175788 3.020413856 0.762313383
H 3.250643895 -0.760576082 -1.986017516
H 3.067246674 2.053445439 -3.738894494
H -0.314934140 -2.715001365 4.090907007
H 1.490265272 -3.010271563 1.186538681

