15

C -1.916035950 -1.542887398 0.911932430
C -1.958356253 1.072629959 -0.198233404
C 0.521007716 2.407685542 0.101451270
C 2.016274412 0.584307607 -1.577221775
C 0.701441847 -2.448169901 0.853701446
H -2.391594354 -1.386066567 2.938789422
H -3.300156987 -2.805890596 0.051980167
H 0.019538426 -0.380651162 -2.289314099
H -3.712911326 2.151796140 -0.092090285
H 0.444237044 4.303601597 -0.710143355
H 1.270163201 2.598162282 2.027162429
H 3.886999303 -0.121083332 -1.065308366
H 2.266817307 1.491755472 -3.426023537
H 1.975584130 -1.782412131 2.309563403
H 1.145132174 -4.312372836 0.121974281

