17

C 3.687269292 -0.308906632 -0.715214473
N 1.604639396 1.181879939 0.282802560
C 0.383075529 0.840259011 2.932974641
C -1.019879142 0.228923142 0.568452408
C -2.993569181 2.096699191 -0.322495955
C -1.513261349 -2.426088867 -0.372865773
H 3.568610611 -2.227860244 0.002869757
H 3.662337606 -0.343269185 -2.779480729
H 5.460507880 0.512354981 -0.062579055
H 1.713422142 3.018935693 -0.219768648
H 1.256858244 -0.907665807 3.639617732
H -4.803298210 1.620979121 0.545691035
H -3.238953482 2.068310591 -2.376706430
H -2.509863922 4.001995695 0.296395341
H -3.336959611 -3.034546834 0.374702360
H -1.627688159 -2.528850454 -2.435904879
H -0.114681734 -3.781298871 0.291642397

