17

C -4.369965963 -0.647537730 0.192945856
C -2.029762900 -0.281655100 -1.336896895
C 0.306439614 2.258521768 0.815105963
C 2.027058116 0.098614262 0.167856529
C 4.537233748 0.401846689 -0.919167568
O 4.195069599 -0.394351015 1.629490674
C 0.171213533 -1.953397498 -0.522697433
H -4.087811749 -1.065046601 2.209274655
H -5.732079684 0.882372408 -0.027499238
H -5.229373493 -2.341674177 -0.641635643
H -1.179988702 2.078039884 -1.015908847
H 1.019441274 4.171053996 0.530620658
H -0.606398071 2.058155316 2.645894459
H 5.255747891 -1.034554888 -2.197340619
H 5.338941930 2.278676226 -1.148024816
H -0.237172798 -3.081676774 1.172747630
H 0.810525777 -3.221102373 -2.017829544

