15

C -4.977724127 -0.150975700 0.348509377
C -2.357796073 -0.182170279 -0.680694506
C 1.986338902 0.419588742 -0.601111959
C 3.045036401 2.984899326 -0.812524843
N 3.902767537 4.965298667 -1.005497778
N -0.487029420 0.575556550 0.584865984
C 3.732681376 -1.259847620 0.968066027
H -4.985446379 0.578339966 2.270945640
H -6.187476374 1.027916488 -0.839370556
H -5.778695694 -2.054104877 0.324702172
H -2.124437574 -0.898770488 -2.618827666
H 1.865235293 -0.330089404 -2.536786529
H 2.956335586 -3.166809502 1.034497591
H 3.869323731 -0.533118517 2.889104989
H 5.615627334 -1.328720239 0.135933726

