11

N 3.970575257 0.558174830 -0.301913266
C 1.468598541 0.497725648 -0.042292033
N -0.133680303 -1.474967183 -1.074916584
N -1.445566314 -2.298037396 1.385769615
C -1.995335604 0.075860655 0.299015465
O -4.345664633 0.660683704 -0.450057023
N -0.141351457 1.988360531 1.032079006
H 4.857516418 -0.909773380 -1.104429439
H 4.978040183 1.909609615 0.565249814
H -2.760421972 -3.556018969 0.744666781
H -4.318775777 2.357530945 -1.099801310

