8

O -0.854791175 0.612567725 1.608957344
C -1.905913122 -0.604413216 -0.316092958
C -0.790795694 -1.289774760 -2.469811120
C 0.122910622 -2.003694430 -4.559815578
C 1.703501646 1.288861436 1.488370462
O 2.613706772 2.384521544 3.193213984
H -3.882283227 -1.002860760 0.075131391
H 2.606228767 0.680776028 -0.274434985

