10

O 3.567933390 0.149747473 -0.776678269
C 2.804003837 -1.857301845 0.822536630
C 0.476070369 -3.151103403 -0.135424142
C -1.647796621 -3.360574649 1.170636787
H -1.808382334 -2.601411893 3.069788242
H -3.296858716 -4.301790049 0.405907975
H 0.597901844 -3.909051859 -2.041058454
H 4.395478834 -3.171672958 0.851847284
H 2.498183015 -1.199526845 2.765612558
H 2.176815963 1.302212616 -0.931869853

