16

O 4.414932412 0.675859282 0.812396681
C 2.505011823 -1.076094318 1.286626967
C 0.434052063 -1.111215615 -0.650158516
C -1.718853196 -2.626199563 -0.285876464
C -2.521640487 1.063836383 -0.316705740
C -0.484695759 2.861673120 -0.428816463
H 3.523562639 2.206918525 0.351518312
H 3.350137295 -2.965884523 1.198671857
H 1.673510275 -0.869917016 3.178390198
H 1.069962592 -0.840904220 -2.576785341
H -2.174123689 -3.323899695 1.578762696
H -2.699521371 -3.431908636 -1.881027583
H -3.759996026 0.898839274 -1.939020613
H -3.518899343 0.914960338 1.463815701
H -0.023046873 3.873920074 1.286299440
H -0.057799220 3.748206232 -2.217759298

