16

C -2.242090410 -2.005742043 1.020319071
C -3.679406406 -3.398463091 -0.480451586
H -5.655092450 -2.960063676 -0.788967158
H -2.928416432 -5.039459230 -1.455265541
C 0.506037929 -2.469309171 1.525846339
C 2.138456582 -0.235833682 0.804264699
H 1.755483779 1.475945475 1.867153478
C 4.831884626 -0.637520500 0.032352281
H 6.227823444 0.744139339 0.601111071
H 5.527310133 -2.561920019 -0.022917786
C 2.895162071 0.127541055 -1.896832383
H 2.275766747 -1.284997778 -3.243029130
H 2.972308080 2.027512425 -2.648024577
H 0.780291085 -2.882858027 3.536449872
H 1.126872185 -4.144458444 0.484204090
H -3.068334381 -0.372212155 1.957839262

