12

N 3.928166760 0.813527210 -0.290954631
C 1.442661937 0.215418555 -0.250415810
C 0.427483639 -2.120300718 0.964976627
N -1.940719760 -2.242258124 0.686876782
C -2.611208384 -0.018154996 -0.877221544
O -4.610733927 1.340707849 0.110478076
N -0.346973918 1.485373621 -1.254100056
H 5.126382588 -0.065028046 0.882955011
H 4.424006669 2.527046805 -0.938220599
H 1.519438958 -3.532380574 1.980397338
H -3.249953162 -0.776581269 -2.693338225
H -3.981616643 2.351963642 1.480746740

