13

C 1.297484370 1.182611226 -0.486040923
C -1.265369646 1.614127805 0.166933493
C -2.367008016 -1.420494920 -0.759778297
O -0.925459525 -3.164866769 0.145200414
C 2.570174966 -0.761189865 0.820345077
H 2.040273273 1.741720998 -2.312240654
H 3.213539141 1.598795456 1.166452499
H -2.229799556 3.147868305 -0.798360741
H -1.676705311 1.552081161 2.177143301
H -4.274217055 -1.247973848 0.071717733
H -2.503216924 -1.254858139 -2.843510659
H 1.933890026 -1.315833743 2.675258119
H 4.193113336 -1.684830245 -0.011837698

