15

C 3.876679490 -0.204453891 -1.053724383
C 2.697598764 -0.605625362 1.406216433
O -1.213446699 3.016863760 -0.169128466
C -3.098182908 1.099641118 -0.182835991
C -1.843950892 -1.348354418 -1.007318567
C -0.023609766 -1.088165303 1.338719498
C -1.396663263 1.430896691 1.972242263
H 5.934140596 -0.176763640 -1.017791581
H 3.156372564 -1.316987553 -2.647960421
H 3.229715121 1.760474130 -1.404514357
H -5.036907174 1.704561839 -0.413895072
H -3.070581209 -2.993226290 -0.838833175
H -1.013042416 -1.292660352 -2.889566271
H -0.534706171 -2.444741616 2.808901459
H -1.613410068 2.304673718 3.805224240

