15

C 3.692820684 -0.006829111 -1.063568817
C 1.772498533 0.330241753 0.976752569
O -0.090693569 2.664547624 0.028888035
C -2.579086612 1.524271498 -0.043963515
C -2.285244026 -1.152349775 -1.066713529
C -0.384631643 -1.473318586 1.173346031
C -1.568325020 0.763884350 2.413417856
H 4.978731747 1.601244503 -1.149514978
H 4.827119342 -1.672965675 -0.605447520
H 2.859418223 -0.281669008 -2.953340521
H -4.040740995 2.886241147 -0.490355942
H -4.011841376 -2.239470456 -0.771739772
H -1.596499230 -1.365711835 -2.993893761
H -0.027517228 -3.241641636 2.144087229
H -1.526111883 1.584043346 4.277150855

