10

C -2.035333529 1.375082723 -2.209889628
H -0.021033691 1.033360713 -2.280004080
H -2.855900384 2.106031320 -3.933329926
C -3.584798553 -0.374564675 -0.580246491
H -5.484891451 -0.850074098 -1.168825504
H -2.577816584 -1.866164433 0.391749240
C -3.045568756 2.276678559 0.248253945
O -1.268042909 2.698967001 2.150220959
H -2.008645267 2.231719877 3.737072533
H -4.595361081 3.624081707 0.204146357

