17

C 3.863786701 -0.920249833 1.673232864
O 2.393803614 -2.372773041 -0.056007854
C 1.988500975 -1.242932021 -2.266037266
C -1.747308484 0.332481816 -2.008768987
C -3.007597355 -0.709844892 0.279678692
C -2.721480329 2.082396799 -0.039140537
O -0.927245032 3.381228846 1.406609383
H 5.653117913 -0.388333579 0.799386900
H 4.196138957 -2.116056487 3.314588769
H 2.832908200 0.781455175 2.220346655
H 0.739169170 0.742220473 -2.241406292
H 1.134428387 -2.603578785 -3.563919725
H -2.644174959 0.251320346 -3.844672537
H -4.860282127 -1.563117937 0.108323089
H -1.756982086 -1.619906210 1.633519589
H -4.385417951 3.195189088 -0.503596894
H -1.596796900 3.594109007 3.077750301

