11

C 0.138835438 -0.011583757 -2.525731007
C 0.582678380 2.527372631 -1.399685955
H 0.608377937 3.895568909 -2.963886289
H -1.112679378 3.071280483 -0.332203138
C 2.988604927 2.430682753 0.127270976
H 3.766516186 4.014308754 1.163324133
C 3.983776959 0.134918282 -0.013108973
H 5.712781177 -0.481210877 0.891176945
C 2.338246063 -1.526152531 -1.643636427
H 1.605689668 -3.225686358 -0.701514847
H 3.280414508 -2.297687249 -3.326963376

