17

C -3.430776463 -1.270339172 -0.543630364
C -0.932845160 -0.340119994 0.495009525
O -1.186940154 -0.411573733 3.175915469
C -0.213624827 2.364228550 -0.342224904
C 2.630287910 2.304954625 -0.353416825
C 3.499379587 -0.049045290 -0.333571829
C 1.375126602 -1.941145459 -0.305740453
H -3.809966526 -3.185080697 0.121154159
H -3.411713624 -1.277944318 -2.605168234
H -4.965422520 -0.051994756 0.098541847
H 0.372422179 0.168615217 3.904177556
H -0.934285415 2.783411397 -2.237391550
H -1.027380316 3.759742236 0.942503229
H 3.791889595 3.988306368 -0.433506499
H 5.476947382 -0.573534694 -0.397987320
H 1.656158054 -3.510372956 1.005141546
H 1.110743694 -2.758107265 -2.189805392

