17

C -4.199221743 -1.355737313 0.441307893
C -0.544546220 -0.549612311 -0.718424532
O -1.321362193 -1.320506922 2.037482185
C 0.051584137 2.266875491 -0.605194561
C 2.801090900 2.376826163 0.190685592
C 3.889192047 0.135277991 -0.098161918
C 2.025901584 -1.780629136 -1.122401339
H -5.233479207 -1.432546271 2.238952388
H -4.313930443 -3.119859824 -0.573322554
H -4.822307645 0.226342854 -0.695896937
H -1.019696670 0.037044944 3.236870928
H -0.186445179 3.113442276 -2.482349963
H -1.232044741 3.316722005 0.636911195
H 3.749310588 4.080506710 0.817265277
H 5.862965706 -0.266867199 0.273776075
H 2.131843939 -3.628646454 -0.212454727
H 2.354504662 -2.094827077 -3.143595540

