15

C -2.181351532 -2.229567970 -1.908335127
C -1.258216484 -0.253636584 -0.082651518
C -2.945291252 0.391824659 2.114866640
C 0.914229562 0.844512652 -0.381854312
C 3.144819723 1.891630534 -0.632077786
C 5.434008798 0.782196458 0.532154889
O 5.486104258 -1.127252889 1.764910602
H -3.975333096 -1.641743280 -2.746002662
H -0.824418609 -2.568457394 -3.416172017
H -2.510101007 -4.007334134 -0.910807250
H 3.374013758 3.623634447 -1.708138373
H -3.298654636 -1.296549409 3.249761714
H -2.107992005 1.829425474 3.323915909
H -4.770099615 1.078551057 1.433135808
H 7.191848197 1.869477388 0.186782703

