15

C -2.687631649 -1.632988349 -2.138754025
C -1.232199264 -0.443342542 -0.027030151
C -2.652862427 0.875521849 2.028623206
C 1.383784156 -0.452368914 0.024197301
C 3.598974163 -0.553152940 1.024912050
C 5.916031672 0.742433956 0.624464042
O 7.455741930 0.310709431 -1.024933328
H -4.050942096 -0.329769454 -2.980180113
H -1.450932380 -2.384189916 -3.600374640
H -3.771521352 -3.202855008 -1.337619072
H 0.972348808 0.761229342 -1.792964664
H -1.830476502 0.367146536 3.854365868
H -2.484723572 2.924413236 1.841877824
H -4.657168807 0.400114925 1.983745914
H 6.294786512 2.191006200 2.100174775

