12

C 3.319727766 -2.390951488 0.774034334
N 1.556794422 -0.319888114 0.606566673
C -0.437579218 -0.688452323 -0.612648907
N -2.339071533 1.100510695 -0.963330392
C -2.473723288 3.552118612 -0.088526450
O -0.945329522 4.631700023 1.178608502
H 5.133771946 -1.800591428 -0.011115860
H 2.689919503 -4.107285622 -0.214753466
H 3.639697932 -2.850778414 2.759484611
H -0.897257214 -2.485874208 -1.545227408
H -3.822836846 0.527924435 -2.001412075
H -4.252068010 4.448435347 -0.730461369

