23

C     4.19475   0.67965  -0.01934
N     2.83982   0.76623  -0.50736
C     1.79502   0.77753   0.35372
O     1.92188   0.59438   1.56692
N     0.55130   1.08671  -0.19517
N     0.26064   0.59971  -1.33608
N    -0.81041   0.79075  -1.97339
C    -1.72328  -0.94805  -0.23033
C    -1.12470  -1.98894  -1.13747
O     0.14612  -2.09194  -1.19379
O    -1.93466  -2.73258  -1.76265
C    -1.12938  -0.45843   0.81331
C    -1.64465   0.66468   1.67100
O    -1.21709   0.71876   2.86028
O    -2.49088   1.46259   1.16270
H     4.84834   0.60910  -0.88652
H     4.31390  -0.20033   0.61170
H     4.46570   1.57465   0.56867
H     2.65874   1.12525  -1.43454
H     0.82204  -0.19364  -1.74148
H    -1.42356   1.34664  -1.28285
H    -2.68500  -0.50313  -0.55883
H    -0.15777  -0.91176   1.15712
23

C     4.19232   0.68081  -0.01967
N     2.83592   0.76692  -0.50581
C     1.79199   0.77511   0.35710
O     1.92310   0.59342   1.57037
N     0.54405   1.07420  -0.18756
N     0.26357   0.60243  -1.34224
N    -0.82386   0.77340  -1.95808
C    -1.71376  -0.93032  -0.24880
C    -1.12355  -1.98703  -1.13997
O     0.14680  -2.09358  -1.19351
O    -1.93534  -2.73171  -1.75988
C    -1.11263  -0.44400   0.80522
C    -1.64163   0.66714   1.66984
O    -1.21747   0.71714   2.85983
O    -2.49070   1.46161   1.16227
H     4.84726   0.60950  -0.88692
H     4.31356  -0.20004   0.61149
H     4.46535   1.57491   0.56851
H     2.65668   1.12340  -1.43467
H     0.81861  -0.19691  -1.73866
H    -1.42488   1.34709  -1.28389
H    -2.68450  -0.50339  -0.55724
H    -0.15922  -0.91360   1.15788
23

C     4.18989   0.68196  -0.02001
N     2.83201   0.76761  -0.50427
C     1.78897   0.77268   0.36048
O     1.92432   0.59246   1.57381
N     0.53680   1.06169  -0.17996
N     0.26651   0.60515  -1.34839
N    -0.83732   0.75605  -1.94276
C    -1.70424  -0.91259  -0.26728
C    -1.12239  -1.98512  -1.14247
O     0.14747  -2.09523  -1.19323
O    -1.93601  -2.73085  -1.75711
C    -1.09587  -0.42957   0.79713
C    -1.63861   0.66960   1.66869
O    -1.21784   0.71552   2.85938
O    -2.49052   1.46063   1.16183
H     4.84618   0.60990  -0.88732
H     4.31322  -0.19975   0.61128
H     4.46499   1.57517   0.56836
H     2.65462   1.12154  -1.43479
H     0.81518  -0.20018  -1.73584
H    -1.42619   1.34755  -1.28493
H    -2.68399  -0.50365  -0.55566
H    -0.16066  -0.91544   1.15863
23

C     4.18746   0.68312  -0.02034
N     2.82810   0.76830  -0.50273
C     1.78594   0.77025   0.36386
O     1.92555   0.59150   1.57725
N     0.52955   1.04919  -0.17235
N     0.26944   0.60786  -1.35455
N    -0.85077   0.73870  -1.92745
C    -1.69472  -0.89486  -0.28575
C    -1.12124  -1.98321  -1.14497
O     0.14815  -2.09687  -1.19295
O    -1.93668  -2.72999  -1.75435
C    -1.07912  -0.41514   0.78904
C    -1.63559   0.67206   1.66754
O    -1.21822   0.71389   2.85893
O    -2.49035   1.45965   1.16140
H     4.84510   0.61030  -0.88772
H     4.31288  -0.19946   0.61106
H     4.46464   1.57543   0.56820
H     2.65256   1.11968  -1.43491
H     0.81175  -0.20345  -1.73302
H    -1.42751   1.34801  -1.28597
H    -2.68349  -0.50391  -0.55407
H    -0.16211  -0.91728   1.15938
23

C     4.18503   0.68427  -0.02068
N     2.82419   0.76899  -0.50118
C     1.78291   0.76782   0.36724
O     1.92677   0.59054   1.58069
N     0.52230   1.03668  -0.16475
N     0.27237   0.61058  -1.36070
N    -0.86423   0.72135  -1.91214
C    -1.68521  -0.87713  -0.30423
C    -1.12008  -1.98130  -1.14747
O     0.14882  -2.09852  -1.19267
O    -1.93735  -2.72913  -1.75158
C    -1.06237  -0.40071   0.78095
C    -1.63257   0.67452   1.66638
O    -1.21860   0.71227   2.85848
O    -2.49017   1.45868   1.16096
H     4.84402   0.61069  -0.88812
H     4.31254  -0.19917   0.61085
H     4.46428   1.57569   0.56804
H     2.65049   1.11782  -1.43504
H     0.80832  -0.20672  -1.73020
H    -1.42883   1.34847  -1.28701
H    -2.68298  -0.50417  -0.55249
H    -0.16356  -0.91912   1.16014
23

C     4.18260   0.68543  -0.02101
N     2.82028   0.76967  -0.49964
C     1.77988   0.76539   0.37062
O     1.92799   0.58959   1.58414
N     0.51504   1.02417  -0.15714
N     0.27531   0.61330  -1.36685
N    -0.87768   0.70401  -1.89683
C    -1.67569  -0.85941  -0.32270
C    -1.11893  -1.97939  -1.14997
O     0.14950  -2.10016  -1.19239
O    -1.93802  -2.72827  -1.74881
C    -1.04562  -0.38628   0.77285
C    -1.62954   0.67699   1.66523
O    -1.21898   0.71065   2.85804
O    -2.48999   1.45770   1.16053
H     4.84294   0.61109  -0.88852
H     4.31220  -0.19889   0.61064
H     4.46393   1.57594   0.56788
H     2.64843   1.11597  -1.43516
H     0.80489  -0.20998  -1.72738
H    -1.43014   1.34893  -1.28806
H    -2.68247  -0.50443  -0.55090
H    -0.16500  -0.92096   1.16089
23

C     4.18017   0.68658  -0.02135
N     2.81637   0.77036  -0.49810
C     1.77685   0.76296   0.37400
O     1.92922   0.58863   1.58758
N     0.50779   1.01167  -0.14954
N     0.27824   0.61602  -1.37301
N    -0.89114   0.68666  -1.88152
C    -1.66617  -0.84168  -0.34118
C    -1.11777  -1.97748  -1.15247
O     0.15017  -2.10180  -1.19211
O    -1.93870  -2.72741  -1.74604
C    -1.02886  -0.37185   0.76476
C    -1.62652   0.67945   1.66407
O    -1.21936   0.70903   2.85759
O    -2.48982   1.45672   1.16009
H     4.84186   0.61149  -0.88892
H     4.31186  -0.19860   0.61043
H     4.46357   1.57620   0.56772
H     2.64637   1.11411  -1.43528
H     0.80146  -0.21325  -1.72456
H    -1.43146   1.34939  -1.28910
H    -2.68197  -0.50469  -0.54931
H    -0.16645  -0.92280   1.16165
23

C     4.17774   0.68774  -0.02169
N     2.81247   0.77105  -0.49655
C     1.77382   0.76054   0.37738
O     1.93044   0.58767   1.59102
N     0.50054   0.99916  -0.14194
N     0.28118   0.61874  -1.37916
N    -0.90460   0.66931  -1.86620
C    -1.65665  -0.82395  -0.35966
C    -1.11662  -1.97557  -1.15497
O     0.15085  -2.10345  -1.19183
O    -1.93937  -2.72654  -1.74327
C    -1.01211  -0.35742   0.75667
C    -1.62350   0.68191   1.66292
O    -1.21973   0.70741   2.85714
O    -2.48964   1.45574   1.15966
H     4.84078   0.61189  -0.88933
H     4.31152  -0.19831   0.61021
H     4.46322   1.57646   0.56756
H     2.64431   1.11225  -1.43541
H     0.79803  -0.21652  -1.72174
H    -1.43277   1.34985  -1.29014
H    -2.68146  -0.50495  -0.54773
H    -0.16789  -0.92464   1.16240
23

C     4.17531   0.68889  -0.02202
N     2.80856   0.77174  -0.49501
C     1.77079   0.75811   0.38076
O     1.93166   0.58671   1.59446
N     0.49329   0.98666  -0.13433
N     0.28411   0.62146  -1.38532
N    -0.91805   0.65196  -1.85089
C    -1.64713  -0.80622  -0.37813
C    -1.11546  -1.97366  -1.15747
O     0.15152  -2.10509  -1.19155
O    -1.94004  -2.72568  -1.74050
C    -0.99536  -0.34299   0.74858
C    -1.62048   0.68437   1.66177
O    -1.22011   0.70579   2.85669
O    -2.48946   1.45477   1.15923
H     4.83970   0.61228  -0.88973
H     4.31118  -0.19802   0.61000
H     4.46286   1.57672   0.56740
H     2.64224   1.11040  -1.43553
H     0.79460  -0.21979  -1.71892
H    -1.43409   1.35031  -1.29118
H    -2.68096  -0.50521  -0.54614
H    -0.16934  -0.92648   1.16316
23

C     4.17288   0.69005  -0.02236
N     2.80465   0.77243  -0.49347
C     1.76776   0.75568   0.38415
O     1.93288   0.58576   1.59791
N     0.48604   0.97415  -0.12673
N     0.28705   0.62418  -1.39147
N    -0.93151   0.63461  -1.83558
C    -1.63762  -0.78849  -0.39661
C    -1.11430  -1.97175  -1.15996
O     0.15220  -2.10674  -1.19127
O    -1.94071  -2.72482  -1.73774
C    -0.97860  -0.32856   0.74049
C    -1.61746   0.68683   1.66061
O    -1.22049   0.70416   2.85624
O    -2.48929   1.45379   1.15879
H     4.83862   0.61268  -0.89013
H     4.31085  -0.19774   0.60979
H     4.46251   1.57698   0.56724
H     2.64018   1.10854  -1.43566
H     0.79117  -0.22306  -1.71610
H    -1.43541   1.35077  -1.29222
H    -2.68045  -0.50547  -0.54456
H    -0.17078  -0.92832   1.16391
23

C     4.17045   0.69120  -0.02269
N     2.80074   0.77312  -0.49192
C     1.76473   0.75325   0.38753
O     1.93411   0.58480   1.60135
N     0.47879   0.96164  -0.11912
N     0.28998   0.62690  -1.39762
N    -0.94496   0.61726  -1.82027
C    -1.62810  -0.77076  -0.41508
C    -1.11315  -1.96984  -1.16246
O     0.15287  -2.10838  -1.19099
O    -1.94138  -2.72396  -1.73497
C    -0.96185  -0.31413   0.73240
C    -1.61444   0.68930   1.65946
O    -1.22087   0.70254   2.85579
O    -2.48911   1.45281   1.15836
H     4.83754   0.61308  -0.89053
H     4.31051  -0.19745   0.60958
H     4.46215   1.57724   0.56708
H     2.63812   1.10668  -1.43578
H     0.78774  -0.22633  -1.71327
H    -1.43672   1.35123  -1.29326
H    -2.67994  -0.50573  -0.54297
H    -0.17223  -0.93016   1.16467
23

C     4.16802   0.69236  -0.02303
N     2.79683   0.77381  -0.49038
C     1.76170   0.75082   0.39091
O     1.93533   0.58384   1.60479
N     0.47153   0.94914  -0.11152
N     0.29292   0.62962  -1.40378
N    -0.95842   0.59991  -1.80496
C    -1.61858  -0.75304  -0.43356
C    -1.11199  -1.96794  -1.16496
O     0.15355  -2.11003  -1.19071
O    -1.94206  -2.72310  -1.73220
C    -0.94510  -0.29970   0.72431
C    -1.61142   0.69176   1.65830
O    -1.22125   0.70092   2.85534
O    -2.48893   1.45183   1.15792
H     4.83646   0.61347  -0.89093
H     4.31017  -0.19716   0.60936
H     4.46180   1.57750   0.56692
H     2.63606   1.10483  -1.43590
H     0.78431  -0.22960  -1.71045
H    -1.43804   1.35169  -1.29430
H    -2.67944  -0.50599  -0.54139
H    -0.17368  -0.93200   1.16542
23

C     4.16559   0.69351  -0.02336
N     2.79292   0.77450  -0.48883
C     1.75867   0.74840   0.39429
O     1.93655   0.58288   1.60823
N     0.46428   0.93663  -0.10391
N     0.29585   0.63233  -1.40993
N    -0.97187   0.58256  -1.78964
C    -1.60906  -0.73531  -0.45203
C    -1.11084  -1.96603  -1.16746
O     0.15422  -2.11167  -1.19043
O    -1.94273  -2.72224  -1.72943
C    -0.92834  -0.28527   0.71621
C    -1.60840   0.69422   1.65715
O    -1.22162   0.69930   2.85489
O    -2.48876   1.45085   1.15749
H     4.83538   0.61387  -0.89133
H     4.30983  -0.19687   0.60915
H     4.46144   1.57776   0.56677
H     2.63399   1.10297  -1.43603
H     0.78088  -0.23286  -1.70763
H    -1.43936   1.35215  -1.29535
H    -2.67893  -0.50625  -0.53980
H    -0.17512  -0.93384   1.16618
23

C     4.16316   0.69467  -0.02370
N     2.78902   0.77518  -0.48729
C     1.75565   0.74597   0.39767
O     1.93777   0.58192   1.61168
N     0.45703   0.92412  -0.09631
N     0.29879   0.63505  -1.41609
N    -0.98533   0.56521  -1.77433
C    -1.59954  -0.71758  -0.47051
C    -1.10968  -1.96412  -1.16996
O     0.15490  -2.11331  -1.19015
O    -1.94340  -2.72137  -1.72666
C    -0.91159  -0.27084   0.70812
C    -1.60537   0.69668   1.65600
O    -1.22200   0.69768   2.85444
O    -2.48858   1.44988   1.15705
H     4.83430   0.61427  -0.89173
H     4.30949  -0.19658   0.60894
H     4.46109   1.57802   0.56661
H     2.63193   1.10111  -1.43615
H     0.77745  -0.23613  -1.70481
H    -1.44067   1.35261  -1.29639
H    -2.67843  -0.50651  -0.53821
H    -0.17657  -0.93568   1.16693
23

C     4.16073   0.69582  -0.02403
N     2.78511   0.77587  -0.48575
C     1.75262   0.74354   0.40105
O     1.93900   0.58097   1.61512
N     0.44978   0.91162  -0.08870
N     0.30172   0.63777  -1.42224
N    -0.99878   0.54786  -1.75902
C    -1.59002  -0.69985  -0.48898
C    -1.10853  -1.96221  -1.17246
O     0.15557  -2.11496  -1.18987
O    -1.94407  -2.72051  -1.72389
C    -0.89484  -0.25641   0.70003
C    -1.60235   0.69914   1.65484
O    -1.22238   0.69605   2.85399
O    -2.48840   1.44890   1.15662
H     4.83322   0.61467  -0.89214
H     4.30915  -0.19630   0.60873
H     4.46073   1.57828   0.56645
H     2.62987   1.09926  -1.43627
H     0.77402  -0.23940  -1.70199
H    -1.44199   1.35307  -1.29743
H    -2.67792  -0.50677  -0.53663
H    -0.17801  -0.93752   1.16769
23

C     4.15830   0.69698  -0.02437
N     2.78120   0.77656  -0.48420
C     1.74959   0.74111   0.40443
O     1.94022   0.58001   1.61856
N     0.44253   0.89911  -0.08110
N     0.30465   0.64049  -1.42839
N    -1.01224   0.53052  -1.74371
C    -1.58051  -0.68212  -0.50746
C    -1.10737  -1.96030  -1.17496
O     0.15625  -2.11660  -1.18959
O    -1.94475  -2.71965  -1.72113
C    -0.87808  -0.24198   0.69194
C    -1.59933   0.70161   1.65369
O    -1.22276   0.69443   2.85354
O    -2.48823   1.44792   1.15619
H     4.83214   0.61506  -0.89254
H     4.30881  -0.19601   0.60851
H     4.46038   1.57853   0.56629
H     2.62781   1.09740  -1.43640
H     0.77059  -0.24267  -1.69917
H    -1.44330   1.35353  -1.29847
H    -2.67741  -0.50702  -0.53504
H    -0.17946  -0.93936   1.16844
23

C     4.15587   0.69813  -0.02471
N     2.77729   0.77725  -0.48266
C     1.74656   0.73868   0.40781
O     1.94144   0.57905   1.62200
N     0.43528   0.88660  -0.07349
N     0.30759   0.64321  -1.43455
N    -1.02569   0.51317  -1.72840
C    -1.57099  -0.66440  -0.52593
C    -1.10622  -1.95839  -1.17746
O     0.15692  -2.11825  -1.18931
O    -1.94542  -2.71879  -1.71836
C    -0.86133  -0.22755   0.68385
C    -1.59631   0.70407   1.65253
O    -1.22314   0.69281   2.85309
O    -2.48805   1.44694   1.15575
H     4.83106   0.61546  -0.89294
H     4.30847  -0.19572   0.60830
H     4.46002   1.57879   0.56613
H     2.62574   1.09554  -1.43652
H     0.76716  -0.24594  -1.69635
H    -1.44462   1.35398  -1.29951
H    -2.67691  -0.50728  -0.53346
H    -0.18090  -0.94120   1.16920
23

C     4.15344   0.69929  -0.02504
N     2.77338   0.77794  -0.48112
C     1.74353   0.73625   0.41120
O     1.94267   0.57809   1.62545
N     0.42803   0.87410  -0.06589
N     0.31052   0.64593  -1.44070
N    -1.03915   0.49582  -1.71308
C    -1.56147  -0.64667  -0.54441
C    -1.10506  -1.95648  -1.17996
O     0.15760  -2.11989  -1.18903
O    -1.94609  -2.71793  -1.71559
C    -0.84458  -0.21312   0.67576
C    -1.59329   0.70653   1.65138
O    -1.22351   0.69119   2.85265
O    -2.48787   1.44596   1.15532
H     4.82998   0.61586  -0.89334
H     4.30813  -0.19543   0.60809
H     4.45967   1.57905   0.56597
H     2.62368   1.09369  -1.43664
H     0.76373  -0.24921  -1.69353
H    -1.44594   1.35444  -1.30055
H    -2.67640  -0.50754  -0.53187
H    -0.18235  -0.94304   1.16995
23

C     4.15101   0.70044  -0.02538
N     2.76948   0.77863  -0.47957
C     1.74050   0.73383   0.41458
O     1.94389   0.57714   1.62889
N     0.42077   0.86159  -0.05829
N     0.31346   0.64865  -1.44686
N    -1.05260   0.47847  -1.69777
C    -1.55195  -0.62894  -0.56289
C    -1.10390  -1.95457  -1.18246
O     0.15828  -2.12154  -1.18875
O    -1.94676  -2.71707  -1.71282
C    -0.82783  -0.19869   0.66767
C    -1.59027   0.70899   1.65023
O    -1.22389   0.68957   2.85220
O    -2.48770   1.44499   1.15488
H     4.82890   0.61626  -0.89374
H     4.30780  -0.19514   0.60788
H     4.45931   1.57931   0.56581
H     2.62162   1.09183  -1.43677
H     0.76030  -0.25248  -1.69071
H    -1.44725   1.35490  -1.30159
H    -2.67590  -0.50780  -0.53029
H    -0.18380  -0.94488   1.17071
23

C     4.14857   0.70160  -0.02571
N     2.76557   0.77932  -0.47803
C     1.73747   0.73140   0.41796
O     1.94511   0.57618   1.63233
N     0.41352   0.84909  -0.05068
N     0.31639   0.65137  -1.45301
N    -1.06606   0.46112  -1.68246
C    -1.54243  -0.61121  -0.58136
C    -1.10275  -1.95266  -1.18496
O     0.15895  -2.12318  -1.18847
O    -1.94743  -2.71621  -1.71005
C    -0.81107  -0.18426   0.65958
C    -1.58725   0.71145   1.64907
O    -1.22427   0.68795   2.85175
O    -2.48752   1.44401   1.15445
H     4.82782   0.61665  -0.89414
H     4.30746  -0.19486   0.60766
H     4.45896   1.57957   0.56565
H     2.61956   1.08997  -1.43689
H     0.75687  -0.25574  -1.68789
H    -1.44857   1.35536  -1.30264
H    -2.67539  -0.50806  -0.52870
H    -0.18524  -0.94672   1.17146
23

C     4.14614   0.70275  -0.02605
N     2.76166   0.78001  -0.47649
C     1.73444   0.72897   0.42134
O     1.94633   0.57522   1.63577
N     0.40627   0.83658  -0.04308
N     0.31933   0.65409  -1.45916
N    -1.07951   0.44377  -1.66715
C    -1.53292  -0.59348  -0.59984
C    -1.10159  -1.95075  -1.18745
O     0.15963  -2.12482  -1.18819
O    -1.94811  -2.71534  -1.70728
C    -0.79432  -0.16983   0.65148
C    -1.58422   0.71392   1.64792
O    -1.22465   0.68632   2.85130
O    -2.48734   1.44303   1.15401
H     4.82674   0.61705  -0.89455
H     4.30712  -0.19457   0.60745
H     4.45860   1.57983   0.56549
H     2.61749   1.08812  -1.43701
H     0.75344  -0.25901  -1.68507
H    -1.44989   1.35582  -1.30368
H    -2.67489  -0.50832  -0.52711
H    -0.18669  -0.94856   1.17222
23

C     4.14857   0.70160  -0.02571
N     2.76557   0.77932  -0.47803
C     1.73747   0.73140   0.41796
O     1.94511   0.57618   1.63233
N     0.41352   0.84909  -0.05068
N     0.31639   0.65137  -1.45301
N    -1.06606   0.46112  -1.68246
C    -1.54243  -0.61121  -0.58136
C    -1.10275  -1.95266  -1.18496
O     0.15895  -2.12318  -1.18847
O    -1.94743  -2.71621  -1.71005
C    -0.81107  -0.18426   0.65958
C    -1.58725   0.71145   1.64907
O    -1.22427   0.68795   2.85175
O    -2.48752   1.44401   1.15445
H     4.82782   0.61665  -0.89414
H     4.30746  -0.19486   0.60766
H     4.45896   1.57957   0.56565
H     2.61956   1.08997  -1.43689
H     0.75687  -0.25574  -1.68789
H    -1.44857   1.35536  -1.30264
H    -2.67539  -0.50806  -0.52870
H    -0.18524  -0.94672   1.17146
23

C     4.15101   0.70044  -0.02538
N     2.76948   0.77863  -0.47957
C     1.74050   0.73383   0.41458
O     1.94389   0.57714   1.62889
N     0.42077   0.86159  -0.05829
N     0.31346   0.64865  -1.44686
N    -1.05260   0.47847  -1.69777
C    -1.55195  -0.62894  -0.56289
C    -1.10390  -1.95457  -1.18246
O     0.15828  -2.12154  -1.18875
O    -1.94676  -2.71707  -1.71282
C    -0.82783  -0.19869   0.66767
C    -1.59027   0.70899   1.65023
O    -1.22389   0.68957   2.85220
O    -2.48770   1.44499   1.15488
H     4.82890   0.61626  -0.89374
H     4.30780  -0.19514   0.60788
H     4.45931   1.57931   0.56581
H     2.62162   1.09183  -1.43677
H     0.76030  -0.25248  -1.69071
H    -1.44725   1.35490  -1.30159
H    -2.67590  -0.50780  -0.53029
H    -0.18380  -0.94488   1.17071
23

C     4.15344   0.69929  -0.02504
N     2.77338   0.77794  -0.48112
C     1.74353   0.73625   0.41120
O     1.94267   0.57809   1.62545
N     0.42803   0.87410  -0.06589
N     0.31052   0.64593  -1.44070
N    -1.03915   0.49582  -1.71308
C    -1.56147  -0.64667  -0.54441
C    -1.10506  -1.95648  -1.17996
O     0.15760  -2.11989  -1.18903
O    -1.94609  -2.71793  -1.71559
C    -0.84458  -0.21312   0.67576
C    -1.59329   0.70653   1.65138
O    -1.22351   0.69119   2.85265
O    -2.48787   1.44596   1.15532
H     4.82998   0.61586  -0.89334
H     4.30813  -0.19543   0.60809
H     4.45967   1.57905   0.56597
H     2.62368   1.09369  -1.43664
H     0.76373  -0.24921  -1.69353
H    -1.44594   1.35444  -1.30055
H    -2.67640  -0.50754  -0.53187
H    -0.18235  -0.94304   1.16995
23

C     4.15587   0.69813  -0.02471
N     2.77729   0.77725  -0.48266
C     1.74656   0.73868   0.40781
O     1.94144   0.57905   1.62200
N     0.43528   0.88660  -0.07349
N     0.30759   0.64321  -1.43455
N    -1.02569   0.51317  -1.72840
C    -1.57099  -0.66440  -0.52593
C    -1.10622  -1.95839  -1.17746
O     0.15692  -2.11825  -1.18931
O    -1.94542  -2.71879  -1.71836
C    -0.86133  -0.22755   0.68385
C    -1.59631   0.70407   1.65253
O    -1.22314   0.69281   2.85309
O    -2.48805   1.44694   1.15575
H     4.83106   0.61546  -0.89294
H     4.30847  -0.19572   0.60830
H     4.46002   1.57879   0.56613
H     2.62574   1.09554  -1.43652
H     0.76716  -0.24594  -1.69635
H    -1.44462   1.35398  -1.29951
H    -2.67691  -0.50728  -0.53346
H    -0.18090  -0.94120   1.16920
23

C     4.15830   0.69698  -0.02437
N     2.78120   0.77656  -0.48420
C     1.74959   0.74111   0.40443
O     1.94022   0.58001   1.61856
N     0.44253   0.89911  -0.08110
N     0.30465   0.64049  -1.42839
N    -1.01224   0.53052  -1.74371
C    -1.58051  -0.68212  -0.50746
C    -1.10737  -1.96030  -1.17496
O     0.15625  -2.11660  -1.18959
O    -1.94475  -2.71965  -1.72113
C    -0.87808  -0.24198   0.69194
C    -1.59933   0.70161   1.65369
O    -1.22276   0.69443   2.85354
O    -2.48823   1.44792   1.15619
H     4.83214   0.61506  -0.89254
H     4.30881  -0.19601   0.60851
H     4.46038   1.57853   0.56629
H     2.62781   1.09740  -1.43640
H     0.77059  -0.24267  -1.69917
H    -1.44330   1.35353  -1.29847
H    -2.67741  -0.50702  -0.53504
H    -0.17946  -0.93936   1.16844
23

C     4.16073   0.69582  -0.02403
N     2.78511   0.77587  -0.48575
C     1.75262   0.74354   0.40105
O     1.93900   0.58097   1.61512
N     0.44978   0.91162  -0.08870
N     0.30172   0.63777  -1.42224
N    -0.99878   0.54786  -1.75902
C    -1.59002  -0.69985  -0.48898
C    -1.10853  -1.96221  -1.17246
O     0.15557  -2.11496  -1.18987
O    -1.94407  -2.72051  -1.72389
C    -0.89484  -0.25641   0.70003
C    -1.60235   0.69914   1.65484
O    -1.22238   0.69605   2.85399
O    -2.48840   1.44890   1.15662
H     4.83322   0.61467  -0.89214
H     4.30915  -0.19630   0.60873
H     4.46073   1.57828   0.56645
H     2.62987   1.09926  -1.43627
H     0.77402  -0.23940  -1.70199
H    -1.44199   1.35307  -1.29743
H    -2.67792  -0.50677  -0.53663
H    -0.17801  -0.93752   1.16769
23

C     4.16316   0.69467  -0.02370
N     2.78902   0.77518  -0.48729
C     1.75565   0.74597   0.39767
O     1.93777   0.58192   1.61168
N     0.45703   0.92412  -0.09631
N     0.29879   0.63505  -1.41609
N    -0.98533   0.56521  -1.77433
C    -1.59954  -0.71758  -0.47051
C    -1.10968  -1.96412  -1.16996
O     0.15490  -2.11331  -1.19015
O    -1.94340  -2.72137  -1.72666
C    -0.91159  -0.27084   0.70812
C    -1.60537   0.69668   1.65600
O    -1.22200   0.69768   2.85444
O    -2.48858   1.44988   1.15705
H     4.83430   0.61427  -0.89173
H     4.30949  -0.19658   0.60894
H     4.46109   1.57802   0.56661
H     2.63193   1.10111  -1.43615
H     0.77745  -0.23613  -1.70481
H    -1.44067   1.35261  -1.29639
H    -2.67843  -0.50651  -0.53821
H    -0.17657  -0.93568   1.16693
23

C     4.16559   0.69351  -0.02336
N     2.79292   0.77450  -0.48883
C     1.75867   0.74840   0.39429
O     1.93655   0.58288   1.60823
N     0.46428   0.93663  -0.10391
N     0.29585   0.63233  -1.40993
N    -0.97187   0.58256  -1.78964
C    -1.60906  -0.73531  -0.45203
C    -1.11084  -1.96603  -1.16746
O     0.15422  -2.11167  -1.19043
O    -1.94273  -2.72224  -1.72943
C    -0.92834  -0.28527   0.71621
C    -1.60840   0.69422   1.65715
O    -1.22162   0.69930   2.85489
O    -2.48876   1.45085   1.15749
H     4.83538   0.61387  -0.89133
H     4.30983  -0.19687   0.60915
H     4.46144   1.57776   0.56677
H     2.63399   1.10297  -1.43603
H     0.78088  -0.23286  -1.70763
H    -1.43936   1.35215  -1.29535
H    -2.67893  -0.50625  -0.53980
H    -0.17512  -0.93384   1.16618
23

C     4.16802   0.69236  -0.02303
N     2.79683   0.77381  -0.49038
C     1.76170   0.75082   0.39091
O     1.93533   0.58384   1.60479
N     0.47153   0.94914  -0.11152
N     0.29292   0.62962  -1.40378
N    -0.95842   0.59991  -1.80496
C    -1.61858  -0.75304  -0.43356
C    -1.11199  -1.96794  -1.16496
O     0.15355  -2.11003  -1.19071
O    -1.94206  -2.72310  -1.73220
C    -0.94510  -0.29970   0.72431
C    -1.61142   0.69176   1.65830
O    -1.22125   0.70092   2.85534
O    -2.48893   1.45183   1.15792
H     4.83646   0.61347  -0.89093
H     4.31017  -0.19716   0.60936
H     4.46180   1.57750   0.56692
H     2.63606   1.10483  -1.43590
H     0.78431  -0.22960  -1.71045
H    -1.43804   1.35169  -1.29430
H    -2.67944  -0.50599  -0.54139
H    -0.17368  -0.93200   1.16542
23

C     4.17045   0.69120  -0.02269
N     2.80074   0.77312  -0.49192
C     1.76473   0.75325   0.38753
O     1.93411   0.58480   1.60135
N     0.47879   0.96164  -0.11912
N     0.28998   0.62690  -1.39762
N    -0.94496   0.61726  -1.82027
C    -1.62810  -0.77076  -0.41508
C    -1.11315  -1.96984  -1.16246
O     0.15287  -2.10838  -1.19099
O    -1.94138  -2.72396  -1.73497
C    -0.96185  -0.31413   0.73240
C    -1.61444   0.68930   1.65946
O    -1.22087   0.70254   2.85579
O    -2.48911   1.45281   1.15836
H     4.83754   0.61308  -0.89053
H     4.31051  -0.19745   0.60958
H     4.46215   1.57724   0.56708
H     2.63812   1.10668  -1.43578
H     0.78774  -0.22633  -1.71327
H    -1.43672   1.35123  -1.29326
H    -2.67994  -0.50573  -0.54297
H    -0.17223  -0.93016   1.16467
23

C     4.17288   0.69005  -0.02236
N     2.80465   0.77243  -0.49347
C     1.76776   0.75568   0.38415
O     1.93288   0.58576   1.59791
N     0.48604   0.97415  -0.12673
N     0.28705   0.62418  -1.39147
N    -0.93151   0.63461  -1.83558
C    -1.63762  -0.78849  -0.39661
C    -1.11430  -1.97175  -1.15996
O     0.15220  -2.10674  -1.19127
O    -1.94071  -2.72482  -1.73774
C    -0.97860  -0.32856   0.74049
C    -1.61746   0.68683   1.66061
O    -1.22049   0.70416   2.85624
O    -2.48929   1.45379   1.15879
H     4.83862   0.61268  -0.89013
H     4.31085  -0.19774   0.60979
H     4.46251   1.57698   0.56724
H     2.64018   1.10854  -1.43566
H     0.79117  -0.22306  -1.71610
H    -1.43541   1.35077  -1.29222
H    -2.68045  -0.50547  -0.54456
H    -0.17078  -0.92832   1.16391
23

C     4.17531   0.68889  -0.02202
N     2.80856   0.77174  -0.49501
C     1.77079   0.75811   0.38076
O     1.93166   0.58671   1.59446
N     0.49329   0.98666  -0.13433
N     0.28411   0.62146  -1.38532
N    -0.91805   0.65196  -1.85089
C    -1.64713  -0.80622  -0.37813
C    -1.11546  -1.97366  -1.15747
O     0.15152  -2.10509  -1.19155
O    -1.94004  -2.72568  -1.74050
C    -0.99536  -0.34299   0.74858
C    -1.62048   0.68437   1.66177
O    -1.22011   0.70579   2.85669
O    -2.48946   1.45477   1.15923
H     4.83970   0.61228  -0.88973
H     4.31118  -0.19802   0.61000
H     4.46286   1.57672   0.56740
H     2.64224   1.11040  -1.43553
H     0.79460  -0.21979  -1.71892
H    -1.43409   1.35031  -1.29118
H    -2.68096  -0.50521  -0.54614
H    -0.16934  -0.92648   1.16316
23

C     4.17774   0.68774  -0.02169
N     2.81247   0.77105  -0.49655
C     1.77382   0.76054   0.37738
O     1.93044   0.58767   1.59102
N     0.50054   0.99916  -0.14194
N     0.28118   0.61874  -1.37916
N    -0.90460   0.66931  -1.86620
C    -1.65665  -0.82395  -0.35966
C    -1.11662  -1.97557  -1.15497
O     0.15085  -2.10345  -1.19183
O    -1.93937  -2.72654  -1.74327
C    -1.01211  -0.35742   0.75667
C    -1.62350   0.68191   1.66292
O    -1.21973   0.70741   2.85714
O    -2.48964   1.45574   1.15966
H     4.84078   0.61189  -0.88933
H     4.31152  -0.19831   0.61021
H     4.46322   1.57646   0.56756
H     2.64431   1.11225  -1.43541
H     0.79803  -0.21652  -1.72174
H    -1.43277   1.34985  -1.29014
H    -2.68146  -0.50495  -0.54773
H    -0.16789  -0.92464   1.16240
23

C     4.18017   0.68658  -0.02135
N     2.81637   0.77036  -0.49810
C     1.77685   0.76296   0.37400
O     1.92922   0.58863   1.58758
N     0.50779   1.01167  -0.14954
N     0.27824   0.61602  -1.37301
N    -0.89114   0.68666  -1.88152
C    -1.66617  -0.84168  -0.34118
C    -1.11777  -1.97748  -1.15247
O     0.15017  -2.10180  -1.19211
O    -1.93870  -2.72741  -1.74604
C    -1.02886  -0.37185   0.76476
C    -1.62652   0.67945   1.66407
O    -1.21936   0.70903   2.85759
O    -2.48982   1.45672   1.16009
H     4.84186   0.61149  -0.88892
H     4.31186  -0.19860   0.61043
H     4.46357   1.57620   0.56772
H     2.64637   1.11411  -1.43528
H     0.80146  -0.21325  -1.72456
H    -1.43146   1.34939  -1.28910
H    -2.68197  -0.50469  -0.54931
H    -0.16645  -0.92280   1.16165
23

C     4.18260   0.68543  -0.02101
N     2.82028   0.76967  -0.49964
C     1.77988   0.76539   0.37062
O     1.92799   0.58959   1.58414
N     0.51504   1.02417  -0.15714
N     0.27531   0.61330  -1.36685
N    -0.87768   0.70401  -1.89683
C    -1.67569  -0.85941  -0.32270
C    -1.11893  -1.97939  -1.14997
O     0.14950  -2.10016  -1.19239
O    -1.93802  -2.72827  -1.74881
C    -1.04562  -0.38628   0.77285
C    -1.62954   0.67699   1.66523
O    -1.21898   0.71065   2.85804
O    -2.48999   1.45770   1.16053
H     4.84294   0.61109  -0.88852
H     4.31220  -0.19889   0.61064
H     4.46393   1.57594   0.56788
H     2.64843   1.11597  -1.43516
H     0.80489  -0.20998  -1.72738
H    -1.43014   1.34893  -1.28806
H    -2.68247  -0.50443  -0.55090
H    -0.16500  -0.92096   1.16089
23

C     4.18503   0.68427  -0.02068
N     2.82419   0.76899  -0.50118
C     1.78291   0.76782   0.36724
O     1.92677   0.59054   1.58069
N     0.52230   1.03668  -0.16475
N     0.27237   0.61058  -1.36070
N    -0.86423   0.72135  -1.91214
C    -1.68521  -0.87713  -0.30423
C    -1.12008  -1.98130  -1.14747
O     0.14882  -2.09852  -1.19267
O    -1.93735  -2.72913  -1.75158
C    -1.06237  -0.40071   0.78095
C    -1.63257   0.67452   1.66638
O    -1.21860   0.71227   2.85848
O    -2.49017   1.45868   1.16096
H     4.84402   0.61069  -0.88812
H     4.31254  -0.19917   0.61085
H     4.46428   1.57569   0.56804
H     2.65049   1.11782  -1.43504
H     0.80832  -0.20672  -1.73020
H    -1.42883   1.34847  -1.28701
H    -2.68298  -0.50417  -0.55249
H    -0.16356  -0.91912   1.16014
23

C     4.18746   0.68312  -0.02034
N     2.82810   0.76830  -0.50273
C     1.78594   0.77025   0.36386
O     1.92555   0.59150   1.57725
N     0.52955   1.04919  -0.17235
N     0.26944   0.60786  -1.35455
N    -0.85077   0.73870  -1.92745
C    -1.69472  -0.89486  -0.28575
C    -1.12124  -1.98321  -1.14497
O     0.14815  -2.09687  -1.19295
O    -1.93668  -2.72999  -1.75435
C    -1.07912  -0.41514   0.78904
C    -1.63559   0.67206   1.66754
O    -1.21822   0.71389   2.85893
O    -2.49035   1.45965   1.16140
H     4.84510   0.61030  -0.88772
H     4.31288  -0.19946   0.61106
H     4.46464   1.57543   0.56820
H     2.65256   1.11968  -1.43491
H     0.81175  -0.20345  -1.73302
H    -1.42751   1.34801  -1.28597
H    -2.68349  -0.50391  -0.55407
H    -0.16211  -0.91728   1.15938
23

C     4.18989   0.68196  -0.02001
N     2.83201   0.76761  -0.50427
C     1.78897   0.77268   0.36048
O     1.92432   0.59246   1.57381
N     0.53680   1.06169  -0.17996
N     0.26651   0.60515  -1.34839
N    -0.83732   0.75605  -1.94276
C    -1.70424  -0.91259  -0.26728
C    -1.12239  -1.98512  -1.14247
O     0.14747  -2.09523  -1.19323
O    -1.93601  -2.73085  -1.75711
C    -1.09587  -0.42957   0.79713
C    -1.63861   0.66960   1.66869
O    -1.21784   0.71552   2.85938
O    -2.49052   1.46063   1.16183
H     4.84618   0.60990  -0.88732
H     4.31322  -0.19975   0.61128
H     4.46499   1.57517   0.56836
H     2.65462   1.12154  -1.43479
H     0.81518  -0.20018  -1.73584
H    -1.42619   1.34755  -1.28493
H    -2.68399  -0.50365  -0.55566
H    -0.16066  -0.91544   1.15863
23

C     4.19232   0.68081  -0.01967
N     2.83592   0.76692  -0.50581
C     1.79199   0.77511   0.35710
O     1.92310   0.59342   1.57037
N     0.54405   1.07420  -0.18756
N     0.26357   0.60243  -1.34224
N    -0.82386   0.77340  -1.95808
C    -1.71376  -0.93032  -0.24880
C    -1.12355  -1.98703  -1.13997
O     0.14680  -2.09358  -1.19351
O    -1.93534  -2.73171  -1.75988
C    -1.11263  -0.44400   0.80522
C    -1.64163   0.66714   1.66984
O    -1.21747   0.71714   2.85983
O    -2.49070   1.46161   1.16227
H     4.84726   0.60950  -0.88692
H     4.31356  -0.20004   0.61149
H     4.46535   1.57491   0.56851
H     2.65668   1.12340  -1.43467
H     0.81861  -0.19691  -1.73866
H    -1.42488   1.34709  -1.28389
H    -2.68450  -0.50339  -0.55724
H    -0.15922  -0.91360   1.15788
