12

O 3.871520462 -2.224407884 1.207467171
N 3.003515169 0.104940725 0.248110269
C 0.402633665 0.022334938 -0.149558727
C -1.390763859 1.983481334 -1.169545924
N -3.476322850 0.368484481 -0.153460312
C -1.537093800 -1.394542499 0.606989348
H 4.492200365 -1.800887322 2.859077637
H -1.430820516 2.205559982 -3.221562257
H -1.316427098 3.830179982 -0.257485786
H -4.627406017 -0.300415696 -1.533424519
H 3.959951216 0.395282102 -1.384459884
H -1.795099449 -3.136011237 1.638879400

