18

C -3.899198279 -1.210493700 -1.938028998
C -2.685075379 0.160594104 0.286890756
C 0.120551507 0.757738375 -0.025568372
C 1.462542819 2.211777219 2.090240844
N 1.622342445 -1.575242344 -0.044853462
C 4.010575562 -1.220160027 0.649153616
O 5.670017771 0.366093052 -0.352587425
H -3.704374791 -0.115468842 -3.677325761
H -3.028724134 -3.054580614 -2.273495996
H -5.912226992 -1.528022000 -1.619310436
H -3.631278880 1.968897410 0.603966617
H -2.934201867 -0.918439116 2.038762229
H 0.365066458 1.717313012 -1.847307159
H 4.846681409 2.004647551 -0.171668353
H 1.122948055 4.255970785 2.045793749
H 0.819715610 1.491246928 3.922962341
H 0.810013680 -3.189934931 0.557493981
H 4.932940811 -2.868391871 1.468279518

