18

C -2.935596711 1.325914827 0.082229864
C -0.873142627 -0.340151950 1.203947235
C -1.112987498 -3.106285411 0.349980661
C 0.235958838 -2.988852122 -2.183375902
C 1.765407657 0.231199752 0.143236894
C 2.581780303 2.956003353 -0.173599010
H -2.670138983 3.308494137 0.588206415
H -2.971076659 1.173232458 -1.974872781
H -4.780883072 0.741825351 0.795569351
H -0.904204546 -0.149242160 3.262517895
H -0.250118575 -4.360739980 1.754383316
H -3.080468180 -3.685235342 0.090330666
H 1.607915765 -0.570013454 -1.922988215
H 1.943464191 -4.183651099 -2.125101227
H 3.189855015 -0.855278101 1.161375485
H 1.323330173 3.995059210 -1.431185781
H 2.566767166 3.904584527 1.663316601
H 4.493491388 3.080919220 -0.933521758

