13

O 2.797100422 -2.485245572 0.005173692
C 2.657111797 -0.018992919 0.961242018
C 0.357008704 0.933155718 -0.579694351
C -0.699227371 -1.669840238 -0.724764714
C -1.799477586 -3.706770019 -0.271749174
C -1.345071699 2.805471285 0.500956512
C -2.701524802 4.356414094 1.431798506
H 0.597427881 -3.953661679 0.325127247
H 2.261427562 0.074640950 2.996761288
H 4.356661270 1.077782373 0.548201971
H 1.001330441 1.519512506 -2.450108798
H -3.569129152 -4.670810834 -0.079546094
H -3.906163583 5.740491044 2.256785393

