14

C -3.198450491 -0.906111809 0.423399507
C -0.330944543 1.575880769 -1.889058428
C 1.677624719 2.633985405 -0.355286615
O 2.950024827 1.126017424 1.526431134
C 2.735081330 -1.392550822 1.226364886
N 1.119718249 -2.577419817 -0.054059131
C -0.840136803 -1.089231827 -1.308238385
H -2.813167818 0.236593900 2.097596546
H -3.633797129 -2.821049620 1.044092033
H -4.808309820 -0.114333703 -0.582029580
H 1.016655118 4.347811154 0.591570959
H 3.087869822 3.283077227 -1.743540294
H 4.191416286 -2.391914153 2.276968330
H -1.431184496 -2.103999449 -3.005653375

