12

O 4.267976518 1.008272766 0.445524288
C 1.855279876 0.377417198 -0.011870655
N 0.199832491 1.972734518 -0.868156244
C -2.309759934 1.234307027 -0.342415615
C -1.900452456 -1.568540714 0.004493088
N 0.691147393 -1.697423493 1.117374006
H 0.702034748 3.654671725 -1.604579284
H -3.665761715 1.843734405 -1.755894360
H 5.241772591 -0.522535408 0.537047485
H -3.256400284 -2.527292866 1.215744928
H -1.777871005 -2.613080215 -1.803360349
H 0.603206758 -1.369244754 3.026436848

