12

O 3.560662196 0.936898641 0.940519867
C 2.174861193 -0.220282200 -0.716129441
N 0.621485021 1.387322006 -1.957640992
C -1.368658466 1.402721574 0.028402357
C -1.774958144 -1.421145175 0.249337589
N 0.925370405 -2.381558510 -0.042802032
H 1.461999277 3.083807383 -2.178595216
H -3.047664897 2.517849300 -0.388480864
H 1.742459881 1.883454823 1.763132086
H -2.628344515 -2.010659545 2.027056831
H -2.849708980 -2.228899593 -1.319487660
H 1.667737105 -3.109594964 1.557601561

