15

C -1.395294024 -2.941233027 -1.099143950
C 0.663555805 -1.153667746 -0.230746407
C 1.689169302 0.809344434 -2.168086808
C 1.290256999 2.877749795 -0.145635637
C 2.164201172 5.159688935 -0.059757108
C -0.076067354 1.035751708 1.474546095
C -1.529103736 1.271125204 3.491796079
H -2.972138043 -1.899838408 -1.928575757
H -0.677076285 -4.264179264 -2.511210182
H -2.127337472 -4.046039750 0.481840723
H 2.231033623 -2.208442438 0.605719149
H 3.622475289 0.565321831 -2.820250588
H 0.428708976 1.083551272 -3.774059216
H -1.883352645 3.088519302 4.359042080
H -2.417197762 -0.375315765 4.324423242

