15

C -1.182144596 -3.077341610 -1.332145859
C 0.612141950 -1.110656389 -0.205577919
C 1.593231648 0.923243480 -2.076257268
C 1.854700013 3.176282624 -0.475141436
C 1.444878472 4.555357469 1.351257018
C -0.597092361 0.344801715 1.829071132
C -1.698794490 1.410500518 3.634368998
H -2.856966587 -2.173984945 -2.123599556
H -0.207190687 -4.081044469 -2.845605818
H -1.778066063 -4.463399597 0.071059957
H 2.246189491 -2.052136236 0.641068196
H 3.342365796 0.282310853 -2.962649501
H 0.208354003 1.237999420 -3.578465287
H -0.583133029 3.449732174 3.383538677
H -3.112765471 0.944615357 5.019941364

