8

C -4.187163023 -0.702239557 1.247270397
N -1.890417103 0.472303994 0.354040511
C -2.069966143 2.106662300 -1.359016914
H -3.879969767 2.679183723 -2.198907542
H -0.367441201 3.018017796 -2.067873535
H -4.035294427 -2.743998135 0.993600497
H -5.895384184 -0.021309100 0.283771064
H -4.373438637 -0.357271659 3.272757432

