14

C -2.550283709 -0.711182837 3.236391392
C 0.064716619 0.856329488 -4.181513554
C 1.653227675 2.598316975 -2.652855681
C 1.730448650 -0.148137747 -2.142939429
C 0.564188997 -1.343835402 0.167263080
O -1.366352207 0.238561313 1.061595035
H -1.194642488 -0.943715791 4.789402846
H -3.989689987 0.647886536 3.796602855
H -3.454530868 -2.540783602 2.869944583
H 0.532825723 3.791128470 -1.410503863
H 3.202076082 3.565546571 -3.582882843
H 3.322183200 -1.207301102 -2.899078226
H 2.007844571 -1.617102820 1.638299160
H -0.200906233 -3.209496035 -0.334781877

