14

C -3.057132274 -0.689621912 1.801545872
C -0.942657506 0.953775767 -0.938300932
C 1.182349669 2.313671554 -2.199228153
C 1.417771749 -0.482473158 -1.782326073
C 2.020774757 -1.079377245 0.923939996
O 0.088045383 0.638650537 1.848465259
H -2.581504327 -1.686656968 3.544889918
H -4.267183022 0.924148319 2.104834349
H -3.778333739 -1.956392374 0.370400097
H 2.306409847 3.649420875 -1.122403871
H 0.821331155 2.853542932 -4.140856890
H 1.594015450 -1.809736663 -3.326284907
H 3.876502422 -0.590519496 1.694778198
H 1.545453533 -3.017592249 1.472183087

