15

O 1.617483146 -4.985781862 0.810201802
C 1.098791951 -2.806141099 0.370126993
C -1.595130672 -1.883717665 0.521129395
C -2.064865526 0.599422374 -0.844026124
C -0.403667364 2.658280857 0.188156440
C 3.270118638 1.458072880 -0.673012580
C 3.140996996 -1.012153299 -0.342116925
H -2.797504918 -3.400306198 -0.186691637
H -2.040938645 -1.672795789 2.532734465
H -1.739314734 0.385470133 -2.874612037
H -4.047541496 1.144505768 -0.627112380
H -0.904238259 4.534376180 -0.522959331
H -0.258909430 2.713604990 2.239030093
H 1.884014465 3.189182348 -0.704280801
H 4.941894995 -1.962663449 -0.635067087

