13

C -3.624185472 0.432647051 0.810907180
N -1.185283525 -0.314713420 -0.752295321
C 0.220096780 -2.284689335 0.502427664
C 2.610506351 -1.557649844 0.797909587
C 2.892976546 0.956292428 -0.307972559
C 0.658896798 1.636885399 -1.253116189
H -2.794224334 1.223098117 2.545675385
H -1.931740954 -0.988962070 -2.392433204
H -4.335794744 2.056911121 -0.277988785
H -0.815421377 -3.925605501 1.116619495
H 4.071516262 -2.618322145 1.745170958
H 4.591437178 2.084418655 -0.292276381
H 0.025566199 3.334607866 -2.181204191

