13

C -4.189071079 0.697599693 0.290444896
N -0.894658255 -0.332416091 -0.816572334
C 0.352806387 -2.158333648 0.590507723
C 2.786293702 -1.426240311 0.867656166
C 3.083257511 0.939312710 -0.434158984
C 0.817630712 1.549172722 -1.449128750
H -4.084590276 -0.260536579 2.124161995
H -2.611224220 -0.644974978 -1.802287911
H -3.673983252 2.674119332 0.633379260
H -0.645546715 -3.799884667 1.266373941
H 4.230521825 -2.439443221 1.888144178
H 4.794874264 2.036143522 -0.576350594
H 0.222909599 3.147032120 -2.563045596

