13

C -3.006714400 0.425241725 1.830197994
O -1.862529111 0.184529224 -2.013482418
C 0.186234229 -0.706473715 -2.881307525
O 0.713740033 -1.323556052 -5.017852158
C 2.280348898 -1.060256977 -0.780555458
C 2.332004902 1.238112765 0.761423379
O 0.540264006 2.011233209 1.992565757
H -4.077835355 1.944848699 1.000195793
H -3.484900770 -1.451750008 1.201184342
H -2.557564162 0.613856253 3.811533298
H 4.095426249 -1.470747368 -1.641354167
H 1.637825216 -2.664149156 0.350438560
H 4.037354833 2.426852959 0.733949728

