16

C -2.867467719 1.901841707 1.605701252
C -3.571097245 -0.757485473 0.815641209
N -1.823132554 -1.570532428 -1.446259824
C 0.866523426 -1.634948467 -0.903103271
O 1.880783430 -3.420811843 0.028035712
O 1.886910055 0.568138166 -1.482275056
C 4.476751892 0.876764457 -0.750751529
H -3.210852196 3.276679332 0.093359425
H -4.151023560 2.414598973 3.138510759
H -0.934456907 2.247763274 2.314522460
H -3.017445190 -2.115040419 2.280670152
H -2.396327268 -3.337889583 -1.917760438
H -2.199884530 -0.368813577 -2.895657350
H 4.970249731 2.798723659 -1.272371478
H 4.671257943 0.600706556 1.279161245
H 5.659918338 -0.478691268 -1.750461208

