17

C 3.873061420 0.845956876 0.033616187
C 1.163957021 0.122563007 -0.287022356
C -0.061020882 -2.233555311 0.902309661
C -1.711427158 -1.915889326 -1.440070026
C -3.128544306 0.550545590 -0.973748490
C -0.844999087 2.205523964 -0.357460065
O 0.486971046 -0.898693198 -2.776731933
H 4.369142930 2.304502508 -1.334486379
H 5.112037053 -0.779925952 -0.226051439
H 4.165749364 1.613212913 1.926202185
H -0.924298722 -2.093118595 2.767297910
H 1.188437932 -3.863737417 0.757105903
H -2.627223681 -3.485666582 -2.399229169
H -4.543593187 0.519818870 0.526086638
H -4.033266410 1.259199180 -2.686225560
H -1.025048904 3.387923559 2.381839437
H -1.264542418 2.466162475 3.535102876

