14

C -1.683267101 -1.798696940 -0.721340455
C -2.454433700 0.802052207 0.230569812
C -0.167255407 2.470428872 0.421961652
C 2.145867125 1.514461646 0.367303894
C 2.613957218 -1.277009282 0.210404015
O 0.424034209 -2.728720550 0.624505994
H -3.190530894 -3.179265311 -0.461996463
H -1.240836484 -1.700997287 -2.750591050
H -3.841357731 1.631543370 -1.058937400
H -3.378869485 0.644971444 2.074855488
H -0.447271906 4.493865081 0.598695547
H 3.796365317 2.728750105 0.444314296
H 3.969981127 -1.852219407 1.657010075
H 3.453617715 -1.749163968 -1.636755405

