13

C -1.875435902 -1.351227727 2.521106337
C -1.002139187 -1.221828655 -0.179700766
N -2.171551224 0.785947224 -1.770851278
C 0.422635037 0.887592304 -1.184939878
C 2.472721242 2.251172793 -1.501312063
O 4.778399821 1.755353747 -0.452891366
H -2.137216355 0.548979820 3.270983433
H -0.492175994 -2.337915361 3.693038456
H -3.667633186 -2.364150466 2.655743749
H -0.711343917 -3.038151184 -1.100725991
H -2.492533319 0.180081564 -3.561174331
H 4.648375212 0.270171971 0.581506788
H 2.495208982 3.935517587 -2.660325655

