14

O 2.338292267 -0.679839764 2.756776841
C 0.855515715 -0.596345843 0.416048566
C -2.011630297 -0.744630006 0.657888100
C -2.170167037 1.170989353 -1.546776209
C 0.644643369 1.838848877 -1.106901314
C 2.734032381 -2.603350714 0.035581408
H 3.814239556 0.359747351 2.529772602
H -2.656784157 0.068614236 2.439526936
H -2.867305694 -2.600016670 0.404662192
H -3.527416358 2.702169690 -1.343190231
H 1.888698945 1.988915600 -2.739709156
H 0.847607079 3.513319984 0.083839438
H 1.885681430 -4.341291523 0.805776687
H -2.469607540 0.247994958 -3.362022803

