14

O 2.666798817 -0.521132570 2.880206552
C 1.003205125 -0.254096845 0.877820663
C -1.856564587 -0.460574766 1.242105322
C -1.682646308 0.543048971 -1.480126437
C 0.561082174 2.177286599 -0.670638990
C 1.443809586 -2.121700400 -1.323111721
H 4.357035398 -0.526648605 2.211835631
H -2.701408754 0.926569021 2.518719065
H -2.632692114 -2.339300322 1.563522678
H -3.272189381 1.154084090 -2.634913600
H 1.967614928 2.642129614 -2.098777568
H -0.006199662 3.812716758 0.445748712
H 0.433752541 -3.882112981 -0.809361989
H -0.654737417 -0.997106242 -2.770545499

