13

C 2.930965295 0.963549506 -0.332198187
C 0.655769812 -0.781510601 -0.407802274
C -1.116040823 -0.679539505 1.829441480
C -1.479215741 -0.068747216 -2.163620024
C -3.316685212 0.602161211 -0.444757059
N -4.765815190 1.319830740 1.151969392
H 3.924806052 0.909478300 -2.138223164
H 4.260463383 0.417424873 1.153021025
H 2.333112112 2.910768412 -0.004546700
H 1.251852076 -2.750745724 -0.637152495
H -0.820660869 0.690192761 3.325175355
H -1.985482402 -2.432221557 2.420554691
H -1.879467085 -0.832999269 -4.012088628

