13

N 4.092724999 0.598753241 1.099371398
C 1.920999221 -0.029197591 0.464519796
C 0.173702662 -2.063129265 1.372301707
C -1.599139915 -1.633140321 -0.803439909
C -1.788908763 2.535928461 -0.387539742
O 0.519853244 0.961610382 -1.539469753
H 4.743449507 2.056367806 0.025479291
H 1.058055673 -3.922768644 1.397571031
H -0.664189354 -1.628740642 3.195871884
H -3.591815314 -1.382688833 -0.488742041
H -1.132072787 -2.631924186 -2.538990535
H -0.887883133 4.266513945 0.306600713
H -2.788460273 3.005450475 -2.132805678

