16

C 4.846145142 -0.573508257 0.324281652
C 2.146963166 0.117884366 -0.159167493
C 0.020730825 -1.451336838 -0.301582791
C -2.108230848 0.049559428 0.038651419
C -4.809967394 -0.784750404 -0.017038092
C -1.234436813 2.517201162 0.345308974
N 1.303271713 2.669112012 0.322109846
H 5.123416644 -1.023565469 2.318833228
H 5.389746650 -2.219174760 -0.790400855
H 6.101298947 0.989229958 -0.148569777
H 0.060514171 -3.471622175 -0.603967751
H -6.076040887 0.760612327 0.486801009
H -5.140051827 -2.330647965 1.308105103
H -5.347947666 -1.453637239 -1.893867006
H -2.355403548 4.220798504 0.484908127
H 2.065506975 1.869420564 -1.819287320

