10

O 4.801958111 -0.746957790 0.403286055
C 2.655571444 -0.068678524 0.123399777
N 1.030868826 0.951264472 1.771827718
C -1.418105210 1.252017200 0.576200342
C -1.461179458 -1.188807373 -0.675106812
H 1.754805613 -0.328015297 -1.874632939
H -2.833050534 1.388044109 2.075410557
H -1.614945320 2.885113868 -0.668957832
H -1.734846004 -1.493255026 -2.682094940
H -1.465745811 -2.851681023 0.515613436

