13

O 4.962729263 -0.467009775 1.371609406
C 3.203040088 -0.037339080 -0.279876716
C 0.930381486 -1.671717606 0.143808026
C -1.562983842 -0.336649059 -0.212010037
N -1.813975073 2.089654594 1.066496815
C -1.827379014 2.011303488 -1.695891152
H 4.471825168 -1.687403051 2.675494392
H -0.170810190 2.817966986 -2.581611853
H 0.952799685 -2.632837434 2.001313961
H 1.125399881 -3.144008596 -1.310180703
H -3.193555930 -1.583520119 -0.182823444
H -3.580212282 2.331977633 1.757011245
H -3.604608911 2.317896831 -2.669218800

