9

C -2.776295237 2.449894729 -0.350380130
C -2.527008935 0.075746950 0.397985770
C -2.515295335 -2.174073385 -1.312167050
H -2.751859623 -1.621576387 -3.284197381
H -4.033942101 -3.484771740 -0.819929205
H -0.742285480 -3.220197705 -1.141326549
H -2.308517326 -0.310946308 2.404998824
H -2.767835197 4.002046113 0.983963877
H -2.999407774 2.928404168 -2.332372397

