15

C -1.506748030 2.342504391 -0.681871975
C -1.375647260 0.127121990 0.676433419
C -2.307013633 -2.311006625 -0.495771028
C 2.363692189 -0.626030436 1.194882106
C 3.438979802 1.217814291 -0.591628369
N 5.664773195 0.781032972 -0.520773862
H -1.476648434 4.165350443 0.247885335
H -2.015979729 2.333407022 -2.667256414
H 2.014067836 2.578678185 -1.531128350
H -1.652630030 0.287841931 2.706658375
H -1.596477215 -2.518026197 -2.422500069
H -4.369176057 -2.323389338 -0.584058919
H -1.724318718 -3.968528532 0.580510694
H 2.526790860 -2.606804397 0.692557318
H 2.712325135 -0.244558302 3.180396784

