11

C -3.735019346 -0.155250053 1.194484677
C -1.401311101 -0.482129171 0.335848495
C 0.383164686 1.631552648 0.216595438
N 2.668447565 1.540788970 -0.478483927
C 3.851718645 -0.618209842 -1.375311550
O 3.485218471 -1.562741409 -3.407110232
H -5.071343861 -1.700943486 1.294522904
H -4.388720228 1.682849396 1.826192512
H -0.757002289 -2.314893659 -0.316462305
H -0.345829008 3.465499935 0.819463690
H 5.333887990 -1.301868742 -0.072587687

