15

C 4.319583578 1.018935791 0.013312932
O 1.668452688 1.100978780 0.139493441
C 0.571966883 -1.291418292 0.343473389
C -2.278971061 -1.041199543 0.410665228
C -4.377590346 1.722567925 0.536784000
N -3.363219907 0.467820883 -1.625934625
H 4.964468775 -0.054791683 -1.639361809
H 5.127437679 0.162694157 1.719856980
H 4.984240601 2.958980333 -0.142398555
H 1.226083166 -2.267334109 2.055926460
H 1.075527041 -2.474321481 -1.292610785
H -3.240753824 -2.840419124 0.638191126
H -2.611298335 0.239172337 2.232176756
H -6.035030731 0.575044529 1.097454063
H -1.948375646 1.569150207 -2.314189377

