11

O 3.876902950 -2.166894315 -1.593657290
C 3.242247880 -0.779922550 0.426234682
C 0.934600810 0.179787315 0.787705406
N -0.886953785 -0.305279870 -1.065416969
C -3.135748622 0.469540741 -0.914200158
O -4.227064628 1.835644903 0.934706238
H 4.777900744 -0.504257032 1.747899288
H 0.582664812 1.289672809 2.478986326
H -3.027222520 2.187580788 2.253792898
H 2.369926565 -2.278982362 -2.629429294
H -4.484666310 0.050910941 -2.400866050

