11

O 3.979369267 -1.532917146 -1.360633801
C 3.357136992 -0.379169484 0.491483920
C 0.692147871 0.441469899 1.009888198
N -0.955876556 -0.344648421 -0.988200208
C -3.460163481 0.137841764 -0.928167729
O -4.512015353 1.256295786 0.765262225
H 4.751845768 0.154544524 1.954104804
H 0.106739366 -0.339204063 2.838647052
H 0.677414281 2.500007942 1.256335149
H -0.170933003 -1.295086818 -2.438846408
H -4.465665152 -0.599134021 -2.599873165

