11

O 3.123659874 -0.721631076 -1.863791296
C 2.804194378 -0.120413594 0.459917746
C 0.358904156 -0.268046161 1.452502175
N -1.321845944 -1.514662411 -0.293749309
C -3.006806127 0.196117743 -0.981146843
O -2.980874625 2.443759677 -0.205463874
H 4.475223179 0.514240985 1.467322352
H 0.195841994 -0.609075473 3.477209037
H -0.559247798 1.870018190 1.166258896
H 1.402896109 -1.413781782 -2.338150556
H -4.469353538 -0.398726600 -2.315157049

