18

C 4.550148155 1.762121291 -0.336790184
N 3.443274318 -0.911028234 -0.602701200
C 1.081763780 -1.070073840 0.827863390
O 1.126176294 -2.044818253 2.871451300
C -1.217509233 0.068754832 -0.426182884
C -3.016060494 -2.093033160 -1.121600265
C -2.477123566 1.974900975 1.333242504
H 3.225110237 -1.277452630 -2.472051107
H 4.472890085 2.151250161 1.692532410
H 3.210232858 3.000307378 -1.313582550
H 4.693850205 -2.170710390 0.132140706
H -0.615221618 1.039999510 -2.146576981
H -3.609229046 -3.104144975 0.574195532
H -2.141044581 -3.451231879 -2.407082020
H -4.693762805 -1.335768123 -2.048949478
H -4.187969709 2.724792376 0.459895806
H -2.993234038 1.073321353 3.113571250
H -1.204273100 3.541787990 1.743921376

