17

C 4.267570529 1.912326966 -1.217765706
O 1.875198175 1.999242462 -0.033424304
C 0.509776261 -0.220681480 -0.354555234
C 0.874137379 -2.303715759 1.664706117
O -1.671826019 -1.645441833 2.639263580
C -2.063956908 -0.057253410 0.845105516
C -4.359266296 1.160612036 0.233618016
H 5.475653732 0.453471852 -0.379498259
H 4.072857552 1.542954067 -3.244479155
H 5.143991358 3.750404078 -0.936738506
H 0.395479521 -0.926952899 -2.291879724
H 2.282725834 -1.952319107 3.117964995
H 0.824490513 -4.233251194 0.966962691
H -3.249721463 -3.071117929 -2.164162376
H -4.134502818 2.958390210 -0.726268539
H -4.564926267 -0.541654656 -1.263252586
H -5.834957300 1.040562856 1.649575269

