13

C 0.839125724 -2.633400024 1.290177309
C -1.205334937 -1.822216963 -0.542954353
O -2.662119175 0.238947327 0.416908921
C -1.718719667 2.587584295 0.142948578
N 0.343975678 3.126794098 -0.894183650
C 2.216897753 3.662067867 -2.231016332
H 0.017645412 -3.136546994 3.112217223
H 1.825835372 -4.283371417 0.543262057
H -0.416762618 -1.316650010 -2.382796942
H -2.577466776 -3.330464982 -0.828435335
H -2.926972606 4.037451757 0.928709494
H 3.943225590 3.738819282 -1.060355148
H 2.227495413 -1.139808249 1.587498276

