15

O -0.098664226 4.457790550 -0.753289865
C -0.347355245 2.263426004 -0.244733857
C -2.689682777 0.644193935 -0.639944433
C -2.291803492 -1.511221881 1.246020532
C 0.374335980 -1.649032710 2.133800071
C 3.223780191 -0.675492864 -1.183602104
C 1.640538145 0.555533390 0.964639443
H -2.688129573 -0.028087415 -2.594440712
H -4.406703089 1.746416249 -0.374534042
H -3.199540825 -1.082816206 3.078744845
H -3.070797016 -3.352039796 0.739442311
H 2.063507663 -1.850156809 -2.421606909
H 4.061187964 0.827728823 -2.315390525
H 4.706159428 -1.851981113 -0.381241172
H 2.938571046 1.572263871 2.201749803

