14

C -3.017604683 -0.577236158 -1.233777960
C -1.250267673 -0.960724630 0.978914604
O 0.224718521 -2.870812780 0.914317699
C 0.702658603 2.393153624 0.906655635
C 2.878380982 1.330086114 0.058763169
C 4.188311220 -0.559210287 -0.487798387
H -1.951167773 -0.492894393 -2.997169034
H -4.273881893 -2.212234193 -1.341567069
H -4.166139933 1.122443121 -1.037817349
H -2.013310623 -0.466846257 2.839092707
H 2.393766708 -2.148577067 0.053808043
H -0.433585319 3.484534012 -0.402535532
H 0.672739666 3.068274741 2.843180751
H 6.037479400 -1.121237532 -1.098254910

