13

C -3.739314976 1.377392157 -1.357773436
C 1.231411305 -2.234550346 1.947669587
C 0.341741720 -0.736886854 -0.309789493
C 3.121053337 0.212975611 -0.117675476
N 3.514299164 -1.470089308 2.092671599
C -1.717117463 1.143054647 0.097205263
H -4.028271997 0.171625569 -2.990868290
H -5.177621737 2.781331168 -0.972226675
H 0.315410729 -3.602687135 3.182657558
H -0.036947264 -1.888753350 -1.981111844
H 3.342189957 2.207709262 0.355194793
H 4.343828046 -0.255173215 -1.710017365
H -1.490489922 2.383063601 1.722023060

