10

C -2.554822491 -0.136808461 -0.629501919
C 0.239275175 -0.430584302 -0.414817845
O 1.159075103 -2.517193792 -1.679457792
C 1.674828265 1.081246430 0.919016239
N 3.060843356 2.673468435 1.899224927
H -3.086982822 0.074303143 -2.612523823
H -3.203818088 1.514823019 0.412066214
H -3.507034547 -1.810033539 0.115546680
H 3.392563933 2.345279888 3.770503149
H 2.967896061 -2.436310792 -1.769667988

