10

C -2.211664932 -0.063875256 -0.112090012
C 0.625462743 -0.058642813 -0.135773080
O 1.779066730 -2.282345621 -0.714337999
C 2.039808362 2.301867852 -0.791277650
N 2.308562755 2.089685907 1.586361133
H -2.865998287 -0.072228073 -2.069904934
H -2.930927538 1.630664647 0.804058643
H -2.948764739 -1.735388620 0.839678563
H 1.108208494 0.304631013 2.364041165
H 3.151777903 -1.943305359 -1.862592757

