16

C 3.942033854 0.357430623 -1.590435950
C 1.637507535 0.138007549 -0.639931715
C 0.384879499 1.981699738 1.162643983
C -1.999953094 0.614089408 2.073156170
C -2.744242666 -1.019785771 -0.194732876
C -0.201448924 -1.991045378 -1.177991034
H 5.163866987 1.924734605 -1.091572271
H 4.692938431 -1.023422927 -2.904820272
H -1.547020267 -0.600919680 3.683642530
H 1.639600501 2.558634994 2.693022338
H -0.138711718 3.693941065 0.126079579
H -3.491723570 1.904789113 2.670641858
H -4.058746495 -2.532550103 0.287259725
H -3.653271608 0.156749116 -1.631921258
H -0.229915948 -2.525338284 -3.168732355
H 0.369144468 -3.666042150 -0.104658097

