15

C -3.102982831 -0.284918581 -1.142854601
N -1.083723653 -0.132674856 0.680671980
C -1.038687549 -1.052404050 2.979958618
N 1.068634227 -0.631613915 4.307988899
C 2.701729478 0.703872356 2.850385559
C 2.828508710 0.188919927 -1.926282801
C 1.356685332 1.135013900 0.351798124
H -2.485028026 -1.305402984 -2.825197116
H -4.709401234 -1.275281411 -0.321097709
H -3.708379498 1.605523032 -1.702697946
H -2.650644418 -2.088177584 3.721117367
H 4.653715106 1.135573902 -1.971178593
H 3.165749423 -1.840101576 -1.772090371
H 1.842434651 0.570153105 -3.698177925
H 1.019651336 3.176631751 0.206558725

