14

C 3.507209649 -1.104809784 0.091803783
N 0.888416886 -0.383832138 0.643024327
C -0.131688853 1.832075721 -0.829454332
O 1.167297830 2.627780111 -2.512624037
N -2.578587327 2.271057588 -0.298071283
C -4.018046311 -0.800488459 -1.536157819
N -2.919054767 -2.719389725 -1.157172111
H 3.647725035 -1.563295136 -1.904560002
H 4.004374199 -2.749075244 1.224533364
H 4.783514403 0.456606095 0.494382949
H 0.582911364 -0.149495327 2.522007037
H -2.962179999 1.868704225 1.539447794
H -5.687267494 0.015665111 -2.372531912
H -0.641524017 -1.891784981 -0.043364188

