14

C 4.006144721 1.126183285 1.030322392
N 2.972209890 -1.100643089 0.884763668
C 0.561064184 -1.176090745 0.268971730
O -0.902320433 -3.236387064 0.432485499
C -2.756951962 -1.784219843 -1.017482781
C -3.527687231 0.603335619 0.238375912
C -1.017494686 0.466560719 -1.159868183
H 2.983562325 2.785265124 1.676492717
H 6.054915506 1.245236315 0.975764015
H 2.930714698 2.655200396 -2.083258892
H -3.745463975 -2.816661355 -2.472610919
H -3.571424262 0.716185452 2.287158205
H -5.036117835 1.619832945 -0.705310248
H 1.416519844 2.249572252 -2.309496450

