11

C -2.733505223 0.187641225 1.154183244
C -0.826953809 -0.847456638 -0.540233468
O -2.083772160 -2.418308165 1.206107192
C 1.962571760 -0.467451139 -0.041594932
C 2.943128158 1.739317701 -1.379066379
N 3.676266891 3.478980863 -2.442676562
H -4.607125061 0.611792653 0.436845777
H -1.325907287 -1.166082150 -2.508257390
H -2.140484145 1.271848704 2.793847788
H 3.021593366 -2.132837614 -0.646310466
H 2.281343216 -0.227903352 1.982263556

