16

C -2.691196428 -1.335860928 -1.976760069
C -1.994483848 0.324463462 0.263710563
C 0.522560957 1.708020435 -0.033015500
C 1.036783952 3.480843906 2.168592555
H -0.454669088 4.897581125 2.311607312
H 1.106175281 2.423673627 3.938640435
H 2.838890922 4.448863937 1.926376701
N 2.591763632 -0.081393490 -0.228463089
C 3.624148358 -1.360781370 -1.775066198
O 4.768899166 -2.675765114 -3.129754335
H 0.466894879 2.810285703 -1.785386182
H -3.454399362 1.759653781 0.551892871
H -1.919953107 -0.801943359 1.996054645
H -2.753572641 -0.241813210 -3.727599449
H -1.337316282 -2.870050257 -2.238970643
H -4.546417363 -2.193687778 -1.709450296

