18

C -3.074714512 -1.069792252 -2.099021192
C -2.367331348 0.735291547 0.024340655
C 0.475280123 1.156319768 0.299505830
C 1.086196605 3.131199314 2.296121157
N 1.723573883 -1.221237436 1.009397928
C 3.061925791 -2.543012231 -0.552552706
O 3.947964457 -2.878005909 -2.556226935
H -2.375400743 -0.391789453 -3.919830932
H -2.283849276 -2.949108914 -1.784042511
H -5.121242401 -1.272927417 -2.246271448
H -3.255223797 2.575134117 -0.294380610
H -3.097052039 0.031215687 1.827777633
H 1.234639052 1.777044345 -1.523790487
H 0.203800575 4.934980562 1.826943602
H 0.386482951 2.522788855 4.139999975
H 3.121574656 3.417891706 2.444860783
H 2.596185118 -3.335654207 2.201212932
H 3.663336648 -4.552821948 1.293562886

