13

C -1.549792117 0.260459138 1.868100004
C -0.658075523 -2.022866703 0.719504076
O -2.617308250 0.685115218 -2.384391021
C -1.032997508 1.776376553 -0.821246458
C 1.756510883 0.929143168 -1.248147173
O 3.231298145 0.341423112 0.848964979
C 1.865895318 -1.720302238 -0.272270549
H -3.537718672 0.313350758 2.349272596
H -0.293830057 0.978832099 3.342304569
H -1.758257425 -3.716700643 0.393479662
H -1.130714981 3.866865197 -0.708010327
H 2.769318821 1.512827676 -2.939876374
H 2.957220923 -3.211592799 -1.138044492

