9

N -2.292774037 1.164623905 0.663347009
C -1.186778563 -1.050258720 1.267382185
O -2.231113426 -3.067387723 1.434676578
C 1.584550549 -0.843059699 1.752721623
C 3.670056325 -2.243589719 1.800491443
C 4.405611867 0.675853556 0.218311461
N 3.031351364 1.580675609 1.911439134
H -1.337559546 2.803101871 0.694554796
H -4.163936550 1.176224764 0.340724291

