9

N -2.231841651 1.138238510 0.586294673
C -1.176842610 -1.056030869 1.331434603
O -2.263253340 -3.028533858 1.640423647
C 1.626373419 -0.932421238 1.776975030
C 3.588635793 -2.461212639 1.516383441
C 4.265560598 0.641973696 0.533978834
N 2.918181090 1.938103265 1.828533221
H -1.267213301 2.770089282 0.614455712
H -4.107935575 1.158947017 0.296478792

