15

C -3.141495601 0.734666992 0.881209622
C -1.715485685 -0.598302730 -1.189470686
N 1.085650701 -0.671962799 -1.077004089
C -0.507188754 -3.097600796 -0.804227660
C 2.541628820 0.179401679 1.101181094
O 2.902698526 2.796251330 1.110045686
H -5.152763732 0.373744931 0.595845822
H -2.647557474 -0.017371440 2.732178220
H -2.842673511 2.777238852 0.853335614
H -2.301350313 0.027437085 -3.068736005
H 1.921555708 -0.264682808 -2.747430823
H -0.304456988 -4.091451116 -2.606459200
H 4.327066326 -0.861127125 1.092442774
H 1.476734814 -0.358920880 2.769746013
H 4.438182959 3.216915987 0.249272053

