13

O 2.632147759 3.301383797 -2.697617189
C 3.191253563 1.908502576 -0.993351299
C 1.708256084 -0.433546051 -0.262907391
O 1.700704190 -0.832567694 2.250376954
C -2.286631614 -2.137965915 0.713509184
C -2.672027916 0.417376156 1.252997836
C -1.114620996 -0.481368424 -1.060924674
H 4.850652441 2.265952587 0.236260609
H 2.494428960 -2.020910610 -1.377917652
H -3.145578429 -3.976611533 0.924248701
H -4.523605648 1.274593059 1.391988118
H -1.120017941 1.017293600 2.578055275
H -1.679764305 -0.407531023 -3.025698475

