14

C -2.419738858 -0.336328883 1.270159062
C -0.836405690 1.983645815 0.718099896
C 1.701076429 1.079053743 -0.218749613
C 2.237373389 -1.687100638 0.123603358
C -1.511750381 -1.530498769 -1.225919761
C -0.497859006 1.115097774 -1.976594642
H -4.429470226 0.056368546 0.992759116
H -2.184633061 -1.378001575 3.037466310
H -1.066158138 3.895070456 1.415161546
H 3.215950073 2.454355371 -0.311747590
H 3.622137935 -2.395744231 -1.228843980
H 2.583377783 -2.401229198 2.024810759
H 0.427236180 -2.961622851 -0.806668506
H -0.665233126 2.089180500 -3.761354947

