16

C -3.293627775 -0.084837270 3.805066561
C -3.098836507 0.419856383 1.363866329
C -1.217174165 2.224544303 0.246978002
O 0.209909606 1.150871801 -1.727519347
C 1.962384620 -0.687302349 -0.912637185
C 3.441716976 -1.587822194 -3.182405979
H -4.713594423 -1.369214859 4.529547249
H -2.039257734 0.784219769 5.176031495
H 2.179376485 -2.432301719 -4.576335904
H -4.360829477 -0.485240378 0.018398563
H 0.031517400 2.957740843 1.737715969
H -2.204061562 3.830368727 -0.597433154
H 0.981575169 -2.272787311 -0.002785513
H 3.232989847 0.143759876 0.508124225
H 4.832823915 -3.002538747 -2.619543683
H 4.428750732 -0.013261833 -4.074204814

