16

C -1.580042758 -1.750774657 1.182999394
C -2.842018740 0.521206024 0.352270990
C -1.159633195 2.788578513 0.264325574
O 1.031465696 2.445158906 -1.329652743
C 2.703622341 0.530686836 -0.487506368
C 1.605225494 -2.075706771 -0.979233968
H -2.575671026 -3.533814460 1.032062641
H -0.312088855 -1.624768532 2.802455037
H -1.054051305 -1.098511062 -0.992628933
H -4.568022715 0.411885934 -0.729999426
H -0.456404991 3.295232682 2.159301188
H -2.134793878 4.421010565 -0.519656732
H 3.070165110 0.769151886 1.550562256
H 4.502952113 0.834052924 -1.455901415
H 2.549936982 -3.643439155 -0.045638813
H 1.338104467 -2.455512281 -2.994091936

