12

C -2.484118085 -0.740978791 1.431924381
C 0.031309738 -0.313843126 2.601813252
C 1.146264536 2.260663149 -1.189141004
O -0.404005984 3.314702511 -2.401960900
C 2.809571235 0.046916703 -1.632065369
O 3.003805053 -1.418414672 0.155878103
H -3.463968425 1.012710561 0.996621319
H -2.325522972 -1.829582435 -0.322475206
H -3.649883518 -1.886103047 2.703335708
H 0.843123836 -1.899021725 3.596437414
H 0.455104103 1.508265310 3.421183760
H 4.129754863 -0.034710754 -3.223040703

