17

C -4.023333443 0.092135695 -0.127953772
C -1.963263210 1.361426220 -1.458488771
C -0.141520475 -0.571667513 -0.433046483
C 0.632202697 -2.635861147 -1.998894034
C 2.897207945 -0.118120790 0.266914593
C 2.357941828 2.024948747 2.035199226
C 0.993922374 -0.453530604 2.171700739
H -4.603892325 -1.782233929 -0.694329409
H -4.991048850 0.994157343 1.427368761
H -1.953849011 1.400177492 -3.523315558
H -1.637282393 3.267622593 -0.762278839
H 1.093214613 -4.475548117 -1.231945021
H 0.649748653 -2.385662220 -4.027044279
H 4.668252353 -1.007585246 -0.191226659
H 1.394849806 3.713318543 1.398049490
H 3.816873381 2.356975290 3.443436230
H 0.809770075 -1.789475643 3.699426845

