12

C -3.299129222 0.249799419 -1.055851005
C -1.530960278 -0.619061561 1.016291800
C 1.831558125 -1.581556429 0.826527430
O 0.509770894 -2.339132552 -1.065675124
C 3.852889444 0.183707684 0.252290796
C 5.659708087 1.557913177 0.104133471
H -4.878138716 1.216296501 -0.136094277
H -4.031367481 -1.327233893 -2.151740790
H -2.378579168 1.585529068 -2.322613474
H -2.243419568 -2.078944855 2.253858718
H -0.842280754 1.022607586 2.068209264
H 7.259557386 2.768829779 -0.051292515

