12

C -2.474241904 1.259061060 0.831229956
C -1.386542079 -1.311711494 0.501894950
O -0.006823291 -1.794793484 -2.555831472
C 1.322428320 -1.570712557 -0.211469046
C 3.000029777 0.714407522 -0.199273018
O 4.737287091 0.928353357 1.239193783
H -2.366590783 1.597340801 2.875417211
H -1.489496663 2.812696804 -0.102971706
H -4.467868006 1.297210227 0.323501478
H -1.668858639 -2.754788415 -1.708024895
H 2.324459585 -3.264804936 0.389114697
H 2.523202762 2.205161137 -1.586706084

