14

O -1.084401838 -0.087252038 -2.124617702
C -1.869994360 -0.696141675 0.396040656
C 0.286495293 -2.429421153 1.245895300
N 1.861925003 -0.054776225 1.018439228
C -0.475918945 1.299718631 1.950643185
C 1.568632970 0.342591605 -1.709546521
O 2.240016341 2.722776511 -2.524605222
H 0.711215548 3.671937113 -2.759709280
H -3.881768617 -1.109217778 0.440079477
H 0.212299448 -3.054315807 3.202743835
H 0.826179890 -3.970276415 -0.011306893
H -0.639637258 1.088567777 3.988049875
H -0.637764256 3.278420923 1.405834557
H 2.698055964 -1.046985997 -2.735573491

