15

O -4.123097339 1.169275769 1.622692365
C -2.187477288 -0.454232637 0.853095165
C -1.378869356 -0.533197243 -1.937011003
C 1.357909251 -0.912828123 -1.039804509
C 3.422092075 0.532678457 -2.325471023
O 3.083352677 2.153027297 -3.878885915
C 0.567054257 0.138503432 1.594480625
H -3.806624451 2.818265676 0.936355610
H -2.727230917 -2.329572296 1.520410806
H -1.561594742 1.319460297 -2.831008779
H -2.215351277 -1.959830580 -3.160661297
H 5.368911040 0.066826158 -1.695693298
H 1.898445850 -2.899960785 -0.894719217
H 0.871205544 2.179715861 1.686612087
H 1.345740000 -0.743344048 3.282307144

