15

C 4.555137051 1.280890080 1.237777698
C 3.351583257 -1.259173480 0.939723536
C 0.884875388 -1.700153222 0.987404841
O -0.857421731 0.155680136 1.316011471
C -3.400347167 -0.658312476 1.291400945
H -3.732881347 -2.125624000 2.698116738
C -5.328583623 1.217255480 0.626087732
H -6.314304057 2.895726117 1.213624334
C -4.883164934 -0.486161752 -1.068944407
H -5.230525603 -1.246341880 -2.922469294
H 0.123066184 -3.594839235 0.760836449
H 4.564262047 -2.886643772 0.666565477
H 5.820673957 1.314388669 2.870437254
H 3.135544059 2.748277647 1.498935675
H 5.690111607 1.767704071 -0.418260359

