11

O 4.398700288 0.716981896 -0.137490690
C 1.843664409 1.006230690 -0.081548561
C 0.359815986 -1.330653334 -0.130626203
C -2.131154964 -1.138953280 0.184729478
C -4.333661244 -0.160110769 0.886875021
N 0.815265664 3.158697570 0.003494878
H 4.842842354 -1.038169915 -0.035741921
H 1.240977326 -3.143599225 -0.456265208
H -3.497516639 -2.882783326 0.300198699
H -5.676330779 0.265809633 -0.627356230
H 2.137397618 4.546551950 0.093732627

