15

C 4.110233179 -0.060327503 0.882970601
C 2.053790786 -0.148220310 -1.014800352
C -0.527049737 -0.854897831 -0.331651168
O -0.214622394 -3.216719116 -0.128449182
N -2.275982705 0.796964989 -0.131305881
C -4.784489350 -0.042593539 0.538315245
H 4.789830283 -1.993994012 1.137067239
H 5.690905557 1.067194502 0.195534705
H 3.440752422 0.654458436 2.691669313
H 1.487946861 3.038043640 -1.464652358
H 2.580880586 -0.516548529 -2.966868825
H -0.015002385 2.888130892 -1.043872693
H -6.126617215 0.451612078 -0.950589291
H -4.845941127 -2.092802595 0.825187765
H -5.412329539 0.882844084 2.273451077

