13

C 4.592364127 0.920781696 -0.047388681
O 2.726736073 -0.865541619 0.815751078
C 0.345634177 -0.460942110 0.315185096
O -0.136528347 1.531406726 -0.936456635
C -3.688759228 -1.478268667 0.996530329
N -4.583800322 0.137154225 -0.636779935
H 6.396527402 0.195266137 0.610937590
H 4.222203213 2.779955428 0.754476424
H 4.565394617 1.042151889 -2.101976913
H -3.461570079 -0.886710369 2.947283193
H -3.667338785 -3.513218713 0.693263036
H -2.185785869 1.495157659 -1.022740452
H -4.978249036 -0.735403381 -2.300652154

