13

C 4.456918970 0.900726411 1.428249392
N 2.496668853 -0.584644149 0.326131353
C 0.128684396 -0.231244898 0.461657711
C -2.247035975 -1.667791548 -0.075635570
C -3.497939522 0.804937895 0.803069333
O -1.042771247 1.922944845 1.309363982
H 3.995888478 2.776510174 2.111923921
H 6.235932353 0.616898901 0.465972769
H 3.674334022 -1.794930281 1.591881855
H -2.590255781 -3.299563348 1.134760809
H -2.555765048 -2.185131325 -2.043863677
H -4.500904160 1.866225642 -0.649016875
H -4.618448243 0.700915879 2.526875029

