13

C 3.031805011 0.737645503 -1.225835649
C 0.511292672 0.195225886 -0.113815578
C -0.878528932 -1.834139490 1.366257928
N -3.284439681 -1.713931876 -0.082609094
C -2.259144943 0.880923140 -0.424099367
C -0.952777235 0.908015633 2.096060142
H 4.532302526 0.190444237 0.080094662
H 3.313838944 -0.283325145 -2.995553772
H 3.238842026 2.754675145 -1.607482262
H -0.156188982 -3.434207053 2.412991969
H -3.097502663 -2.702501242 -1.727090209
H -3.133920898 2.421991544 -1.442775490
H -0.791750025 2.078975034 3.748782901

