13

C 3.676866293 0.095757128 0.153992043
C 0.854664923 0.022747786 0.031192632
C -0.602013907 -1.985485955 -0.705364087
N -3.087365851 -1.294179957 -0.543083270
C -3.251375068 1.138240381 0.288486970
C -0.845624303 2.010185280 0.662676269
H 4.340578889 0.385131362 2.087218340
H 4.490732199 -1.670350653 -0.530987076
H 4.440919755 1.627244224 -0.999246697
H -0.059693217 -3.849449330 -1.327261824
H -4.558873493 -2.404275569 -0.975025397
H -5.055946883 2.049178324 0.540877222
H -0.342869300 3.875256998 1.316524872

