14

C 4.562643667 -0.035880230 -0.138736303
C 1.783417370 0.196691785 0.014869953
C -0.117746775 -1.352075402 0.458465888
C -2.489943166 0.198475119 0.434970961
N -4.601712073 -0.736205267 -1.032879438
C -1.629245368 2.807926890 -0.358177008
O 0.833215907 2.687002181 -0.434516595
H 5.234882536 0.598586813 -1.982875676
H 5.126723079 -1.994162141 0.141860663
H 5.472449399 1.132472218 1.297528041
H 0.021784668 -3.347626926 0.847492165
H -5.716525027 -1.896069878 -0.007143580
H -5.662551407 0.741190195 -1.623297758
H -2.993791205 0.611793239 2.433079568

