17

C 3.168726365 -1.793553880 -0.748577021
C 1.620972507 0.611925029 -0.857390985
C -0.108805063 1.033622761 3.590631325
C -1.499778625 2.854252411 1.943064155
N -0.613898791 0.492734163 0.791748475
C -2.536982909 -1.322387861 0.008477349
H 3.619367408 -2.222200495 1.217179022
H 2.190001943 -3.403417159 -1.587602664
H 4.931745049 -1.533206520 -1.783191340
H 2.740608874 2.190446482 -0.162479484
H 0.994946341 1.037674448 -2.784743125
H -1.486565150 -0.127607801 4.613722662
H -0.540107159 4.537527203 1.254325784
H -3.550767023 3.036553118 1.900000773
H -1.802497557 -3.236401483 0.206943435
H -3.086882175 -0.997004537 -1.956151094
H -4.178927936 -1.119441706 1.226925643

