17

C 4.553876925 -0.983530147 0.919544549
C 2.299235180 -0.602151894 -0.829682951
C -0.140517975 -0.310844735 0.603831823
C -1.035913412 2.176184473 1.535426230
N -2.215434727 0.972327756 -0.626267086
C -4.714552249 -0.061799449 -0.217101469
H 4.758379174 0.607273147 2.219524529
H 4.342771009 -2.694576922 2.056196559
H 6.309095292 -1.156017847 -0.148679362
H 2.565849477 1.078780243 -1.999532138
H 2.130936984 -2.200725780 -2.131193212
H -0.653724108 -1.920245031 1.785412468
H 0.046424977 3.870359093 1.132958615
H -2.086784006 2.216250560 3.299712353
H -5.068846777 -1.557667059 -1.592220361
H -6.123629595 1.417766364 -0.499327455
H -4.967166189 -0.851382752 1.691281260

