11

O 1.889789090 -1.441317283 2.608134650
C 1.890510229 -1.211301822 0.203753975
C 2.023412324 1.352092409 -0.804173689
C -0.371641117 2.141584249 -0.388610102
N -2.215546391 0.441775619 0.492661937
C -1.917882817 -1.850890212 -0.732565409
N 0.319127499 -2.815015706 -1.009828634
H 3.651863346 2.502290372 -1.206855297
H -0.913566628 4.111235906 -0.509495901
H -0.307183674 -0.585012910 2.476295054
H -3.572941107 -2.894321332 -1.346306313

