12

N -3.727484384 -0.445022358 0.282570369
C -1.458879283 0.054649632 -0.682067845
C 0.689013704 -1.772226847 -0.756661005
C 2.269851678 0.083470488 0.229863602
O 4.575145055 -0.116083514 1.241762299
C 0.876574653 2.343191684 0.248985042
O -1.067991248 2.285330292 -1.789164009
H -4.972786423 0.966656518 0.542992487
H -3.927223654 -2.063196444 1.254474203
H 1.077535669 -3.064147958 -2.298658209
H 4.956995324 -1.887920756 1.398397446
H 0.708615833 3.882973298 1.564885076

