13

O 2.767389316 3.581435237 -0.136334480
C 1.487306112 1.693040992 -0.083989482
C 2.767737725 -0.874012184 0.263842106
O 1.869869582 -2.820541284 -1.322571505
C -3.008183340 -0.253377030 -1.029493710
C -2.978885272 0.153915566 1.356690018
C -1.327629281 1.886092635 -0.206012708
H 2.631283606 -1.389393014 2.269733060
H 4.761050472 -0.592250315 -0.165187745
H -3.701185160 -1.241526688 -2.663918459
H 0.389518021 -3.552933103 -0.579989772
H -3.630509516 -0.238529301 3.240754127
H -1.929851775 3.825104272 -0.538058016

