13

C -2.594811401 -0.844383962 1.048842805
C -0.012802592 0.649827398 -1.029337788
O -1.175031818 1.759689856 -2.898308692
C 2.302481163 -0.929032770 -0.983062553
C 2.093138663 1.493470795 0.610690754
H -2.592703525 0.286718621 2.755478108
H -1.867551965 -2.740405426 1.297199758
H -4.553200516 -1.009448912 0.355868065
H -2.494166987 0.405699973 -1.084449704
H 2.378366989 -2.698160787 0.035594957
H 3.401861612 -0.868746633 -2.708220291
H 2.026369556 1.254757227 2.639200954
H 3.056435702 3.177339963 -0.041499463

