12

N 3.970810301 0.354579536 0.363596931
C 1.515629081 -0.536090130 0.212147496
C -0.409022791 1.462474392 0.104278413
C -2.794936780 0.767520089 -0.273028897
C -4.744771729 -0.654430846 -0.986113894
N 0.845162605 -2.851724978 0.237224029
H 5.350677338 -0.911297633 0.042048561
H 4.312805036 2.076756552 -0.360661072
H 0.092499354 3.420791339 0.382735624
H -4.477753541 2.196985482 -0.519484370
H -6.005189348 -1.252375965 0.543719219
H 2.353395487 -4.038747599 0.243611190

