8

C 5.073850602 0.079963459 0.761419448
C 3.560981881 -0.590018908 -1.592790170
H 4.502229274 0.073973424 -3.304451824
H 3.311825460 -2.630349420 -1.771562986
H 1.683739457 0.264589191 -1.547053072
H 5.322491638 2.120331369 0.940495433
H 4.132912652 -0.584540119 2.473056252
H 6.951297891 -0.774177122 0.715359358

