16

C 4.439969563 -0.232913885 -0.071367057
C 1.725407163 -1.076609476 0.398759557
C -0.048229420 -0.030513049 -1.558278613
C -3.980967975 0.567818084 1.411740556
C -2.663792338 0.736399871 -1.094135156
O -0.716280921 2.569079397 -1.359169604
H 4.574564097 1.824804735 -0.033736846
H 5.715537626 -0.983819823 1.363825624
H 5.114082625 -0.877995406 -1.913261851
H 1.601441450 -3.141412094 0.351994863
H 1.125960732 -0.478836815 2.278559233
H 0.412751826 -0.592756648 -3.487982536
H -2.659563566 0.697385096 2.983223781
H -5.343513650 2.105153372 1.599524474
H -5.010376270 -1.215425280 1.555404736
H -3.929611607 0.668960289 -2.717396461

