16

C 4.403932429 -0.166996269 -0.704247674
C 2.083180336 -1.297926414 0.648455419
C -0.269483619 -0.948404352 -0.756073432
C -4.470658413 0.664883167 0.991011232
C -1.956253536 1.231701718 -0.345707253
O -0.525291309 3.054564060 0.538992674
H 4.155519067 1.869835434 -0.846645567
H 6.103346863 -0.580015454 0.384342042
H 4.636624120 -0.957253713 -2.595850542
H 2.374095452 -3.342070678 0.843178506
H 1.887221444 -0.371498557 2.483354088
H -0.515156425 -2.098514046 -2.454227437
H -4.083753241 0.109768200 2.937840988
H -5.568501419 2.408219012 1.013651569
H -5.563131951 -0.818634025 0.056720319
H -2.417278869 1.548847915 -2.417423584

