15

C -3.630559159 -1.742356022 0.572298738
N 0.417967451 -1.275041812 0.500904394
C 2.896178857 -1.894560271 0.688913208
C 4.343692874 0.158635932 -0.063122295
C 2.650461057 2.117347718 -0.736118737
C 0.284105281 1.095474801 -0.337379079
N -2.270361469 1.851243458 -0.573006044
H -5.351745014 -0.657688942 0.785815038
H -3.537841108 -2.820941717 -1.155586290
H -3.142346034 -2.789648835 2.247809496
H 3.500735390 -3.735974149 1.327295234
H 6.382793212 0.234825343 -0.123465748
H 3.107780732 3.989172221 -1.402844708
H -2.830357996 3.233503002 0.628007486
H -2.852291196 2.263990446 -2.350758034

