15

C -2.866225149 0.765062746 1.354780015
C -1.691073617 -0.433160944 -0.940482942
N 2.139625397 -2.452050775 -2.484808024
C 1.211407061 -1.625343953 -0.258598438
O 1.129654297 -2.881117967 1.748562166
C 2.785190253 1.053515833 0.209149313
H -4.859241983 1.121140249 0.941100618
H -2.007970918 2.572685826 1.844208329
H -2.740775604 -0.499946586 2.971314803
H -2.706185075 -2.120481867 -1.521845014
H -1.511003221 0.855140151 -2.533218008
H 1.946055062 -1.041191379 -3.778842623
H 2.570938774 2.366268698 -1.353702286
H 4.742526054 0.510422925 0.481026950
H 1.982783250 1.775187462 1.950608300

