16

C -3.749262022 -0.787546065 -0.080938142
C -2.358364616 1.290607562 1.274993605
N -0.513081864 0.734647849 3.258353411
C 0.363150843 1.799775860 0.882219208
C 1.937843711 0.277203547 -0.899470064
C 4.189938010 -1.062714585 0.048000895
O 2.073012079 -2.405196924 -0.544749422
H -4.544928221 -0.086584473 -1.851913310
H -5.313103157 -1.471501161 1.078715160
H -2.526095838 -2.386863859 -0.514026463
H -3.527350350 2.915257797 1.733554925
H -0.132339146 -1.147033768 3.289373889
H 1.026921490 3.739430533 1.015956619
H 1.789391570 0.801440597 -2.880155454
H 5.543405063 -0.922164088 -2.570476661
H 6.178968978 -1.461939014 -1.015228677

