11

O 4.188732969 0.243980915 -0.634134980
C 1.677342905 0.170268954 -0.030072478
C 0.091325116 -1.882151800 -0.784755506
N -2.243601605 -1.071764351 -0.388308388
C -2.280226312 1.385921965 0.499760089
C 0.124290575 2.412909577 0.657797337
H 4.684570856 1.985019363 -0.454888618
H 0.525682124 -3.748430052 -1.477377415
H -3.781921498 -2.184924627 -0.562418570
H -4.087993446 2.239535727 0.908192152
H 1.291746009 0.156449009 2.164085577

