11

O 0.505682887 -4.610517875 -2.745968685
C -2.449069089 0.515583597 2.556262840
N -0.070732354 0.603897302 2.211144614
C 1.254945765 1.677827147 -0.064405627
C 2.183022920 -0.506879141 -1.405334120
C 1.203752669 -2.588628104 -2.080945810
H -3.664807271 1.645839413 1.360271012
H 1.069870845 -0.570375337 3.214245710
H -0.154592088 2.854482013 -1.026223822
H 2.724122752 2.928117100 0.677335461
H -3.241572661 -0.715506114 3.983849392

