12

C -2.405015435 1.033268778 0.678442009
C -0.867426224 -1.300787498 0.227344597
O 0.019698165 -1.465138661 -2.444916945
C 1.877697186 -1.370052102 0.209231157
C 3.310017767 0.937797716 0.177595403
O 3.812524573 2.077991186 2.108571811
H -2.475834169 1.380814905 2.710351524
H -1.535761014 2.674558732 -0.208993713
H -4.331872070 0.804488215 -0.017789126
H -1.840307141 -3.035070137 0.767987418
H 0.132108032 -3.215634904 -2.931226134
H 4.108700781 1.507313436 -1.676673790

