19

C -4.837044561 -1.453600654 -0.449065275
C -2.032318546 -1.998343122 -0.763554461
C -0.190797181 0.028415056 0.057661591
C 2.526815786 -0.818223274 -0.205956394
C 4.653263234 1.117891640 0.014295098
C -1.036402019 2.235660258 0.918248235
O 0.275764464 4.277987418 1.770754240
H -5.948698064 -3.071139113 -1.080741627
H -5.326437802 -1.090968088 1.522801593
H -5.429057130 0.178892114 -1.564231382
H -1.570407952 -3.735001431 0.271121048
H -1.655309907 -2.442470846 -2.753148473
H 2.055999744 3.955466518 1.683790423
H 2.692571506 -1.733518151 -2.056040259
H 2.863592930 -2.333591101 1.167577188
H 6.453786897 0.245660012 -0.482738267
H 4.881636466 1.828351959 1.943135114
H 4.379609235 2.710138646 -1.271621559
H -3.042201094 2.619576715 1.022775866

