13

C -4.602067530 0.572509405 0.262134304
O -2.953675815 -1.285167097 -0.869146990
C -0.520202882 -0.951919262 -0.807952253
O 0.230121096 1.067442472 0.305302641
C 3.621687575 -1.655989699 -0.475454885
C 3.174174143 1.009831412 -0.175859255
O 4.760774175 1.122041270 1.664517466
H -4.383281445 2.385230437 -0.686532720
H -6.503983068 -0.154968540 0.003920369
H -4.168495968 0.782952594 2.262426717
H 4.960605759 -2.373506179 -1.853760706
H 3.139458287 -2.837459303 1.107211909
H 3.343383811 2.335949554 -1.759087978

