8

O -3.520591933 -1.418594838 2.788431833
C -3.216441628 1.028888298 1.800813566
C -2.195634801 1.035573374 -0.875108962
O -2.179995522 2.869977975 -2.202296047
H -1.426923504 -0.808540809 -1.523095370
H -1.829538896 1.997523076 2.988009664
H -4.954499638 2.152264433 1.853084070
H -5.014529283 -2.166931788 2.089813634

