16

C 3.714280773 -0.936834901 -1.664288903
C 1.461562335 0.074320491 -1.151527291
C 1.146090889 2.821606069 -0.524046528
N -0.768458092 -1.327484055 -1.294391285
C -2.920128717 -0.763929231 0.274231424
C -2.484142482 -1.058542958 3.097868854
O -3.818928363 -0.134273413 4.676403441
H 5.394447061 0.221248095 -1.700351756
H 3.927247276 -2.926523380 -2.102546287
H -0.816163624 -2.224757332 3.623004922
H -0.165864682 3.729131809 -1.835049961
H 2.958992919 3.782697532 -0.638814301
H 0.405965120 3.097146034 1.385091166
H -0.480959071 -3.182208994 -1.603329003
H -3.636056864 1.140610097 -0.068970090
H -4.458654192 -2.047698970 -0.234303930

