12

O -4.515785923 2.339699810 -0.705497407
C -2.724733833 0.928060392 -0.452788433
C -1.718030050 -0.871477419 -2.069033052
C 1.389212432 1.250476809 2.362475980
N 2.944483356 0.484140085 0.607277285
C 2.613039737 -1.504839954 -0.785692111
O 0.486621277 -2.229914735 -1.748836800
H -1.636715758 1.017195675 1.456271820
H -2.810313444 -1.655092664 -3.600396863
H 1.477471883 3.209795254 2.963564544
H 0.619903112 -0.106351991 3.701332785
H 4.205163760 -2.626620669 -1.419590365

