12

N -1.729026120 1.144208079 2.005031544
C -0.309432392 -1.208199308 1.977346810
C 1.409025851 -1.313289491 -0.342072875
C 3.351110372 0.650174238 -0.294553728
C 4.916866838 2.282462293 -0.196558823
H 6.320621204 3.721000167 -0.130180285
H 2.326125095 -3.160805427 -0.444393079
H 0.260936123 -1.088796717 -2.043711365
H -1.649208341 -2.774541741 1.856215573
H 0.849572885 -1.512749895 3.674016019
H -2.892206275 1.221177834 3.517136701
H -0.534362410 2.634460538 2.126152784

