14

O -4.897721910 -0.669468096 -1.873790178
C -4.602775459 1.011254470 -0.456901478
N -1.995744862 0.958912307 1.345149858
C -0.514741913 -1.305993561 1.756571524
C 1.585154940 -1.604009191 -0.216718724
C 3.394677252 0.478603566 -0.123075311
C 4.823804157 2.229076320 0.006055684
H -4.319138774 1.720796344 1.807922810
H -1.011703715 2.607326282 1.283039398
H -1.802027110 -2.913637149 1.595720852
H 0.292219727 -1.311708093 3.657382121
H 2.574662347 -3.389021150 0.098021568
H 0.735270495 -1.693233630 -2.095549047
H 6.116703598 3.767151096 0.101728209

