20

C -2.118475998 3.684541548 1.126715149
C -1.442835451 0.941064448 1.631218583
N -2.844705174 -0.917023693 0.372770796
C -0.967296001 -3.264075823 -1.348687104
C 0.448330777 -0.384080334 0.009972671
C 2.492358274 -1.655340351 1.563764563
C 1.386204403 1.046474808 -2.273477987
H -3.829526401 4.154711757 2.179298817
H -0.623412258 4.964171842 1.758803253
H -2.503196345 4.014676438 -0.868165088
H -1.090297386 0.644620182 3.664574759
H 0.772232064 -3.463556257 -2.463234816
H -1.056911160 -4.805233497 -0.004615429
H -2.511671256 -3.344536959 -2.686480957
H 3.694351381 -0.195368504 2.392887078
H 1.677583202 -2.760044480 3.098951610
H 3.672485814 -2.892104268 0.405439833
H -0.170742840 1.591282755 -3.502473220
H 2.698993873 -0.113853108 -3.366076190
H 2.384297933 2.753053665 -1.680675644

