13

C 0.705923124 -2.250476505 0.302518451
C 1.918645756 0.216214337 -0.517697539
C -0.280800811 1.914131144 -1.366347218
C 0.359309237 1.697584366 1.356255192
N -2.648939790 0.544714992 -1.078827486
C -1.516846367 -0.586919455 1.222086660
H 1.720673021 -3.092826139 1.885592670
H 0.278938732 -3.695840901 -1.115289166
H 3.844269893 0.565950827 -1.103141590
H -0.033519962 3.494368733 -2.637093343
H 0.824091006 3.077970756 2.781129761
H -2.985413501 -0.749583338 -2.461790480
H -2.812920075 -1.224723867 2.681636304

