13

C 0.809327388 -2.152448360 0.188755842
C 2.267304913 0.093608018 -0.775541409
C 0.689389778 2.138660692 -1.277022018
C -0.101433998 1.890431654 1.248313790
N -3.099965354 0.347402526 -1.042176644
C -1.524625463 -0.568737719 0.978558126
H 1.700390874 -3.070186521 1.807746649
H 0.495783538 -3.545880305 -1.311415960
H 4.234445955 0.046888603 -1.356570607
H 1.128050051 3.817185960 -2.353638903
H -0.054634288 3.314741251 2.712268972
H -4.412650303 -1.001406956 -1.507590508
H -2.499059564 -1.349876951 2.632414570

