15

O 3.325288871 1.435530186 -0.496568190
C 0.830519797 0.465129516 -0.484938797
C 0.610470091 -2.449945393 0.022985684
C -0.293084673 -2.600989709 -2.680834909
C -1.972679527 1.721718266 3.166944580
C -0.848755239 2.214746508 0.987309902
C -0.054982394 -0.144529334 -3.135568248
H 3.771378980 1.862961763 1.210181631
H -0.739266151 -3.049018243 1.462414016
H 2.443563504 -3.320358310 0.385402065
H -0.929322351 -4.179258827 -3.816915181
H -1.820141987 -0.102956815 4.084717360
H -3.104844684 3.137557638 4.117385604
H -1.039003076 4.080990272 0.146009972
H -0.367745296 1.057110942 -4.761460637

