15

O 3.900317998 1.721951194 -0.986512626
C 1.644433192 0.516893140 -0.480239331
C 1.392679059 -2.251123849 0.395324734
C -1.155755704 -2.063027182 -0.895681636
C -2.680168856 0.753831707 1.504566379
C -0.408679674 1.979926060 0.772380011
C -0.352229870 0.009602511 -2.387041853
H 4.600241355 2.313732403 0.580388845
H 1.466949642 -2.672680193 2.412192879
H 2.735449147 -3.391440226 -0.674766492
H -2.592058146 -3.476778331 -1.208875414
H -4.242717664 0.467499251 0.236307795
H -3.363878344 1.175608222 3.416927586
H 0.046982031 3.910934952 1.355153709
H -1.094310503 1.083654640 -3.953578909

