14

C -3.137314695 -1.718764870 -0.208278603
N -3.787682913 0.951552012 -0.173084305
C -1.260314496 0.209587616 -0.967015849
C 0.950037284 0.656218754 0.714882354
C 3.558237394 -0.282407588 -0.110002356
C 4.288640957 2.512051601 -0.183392950
O 1.984201792 3.215452961 0.486772965
H -2.843687519 -2.690624446 1.573983125
H -4.078896777 -2.827277156 -1.647465749
H -3.773862439 1.652932594 1.608921137
H 0.460070322 0.308808026 2.692067913
H 3.640005295 -1.187082488 -1.961121055
H 4.632530406 -1.411865864 1.235721241
H -0.893423338 0.506771483 -2.964459103

