16

C 0.510635217 -0.221850275 -3.322630725
N 2.046440186 -0.367812929 1.005132381
C 3.304806091 -2.142529037 1.961005687
C -0.065924211 -1.024375122 -0.606193111
C -2.490236130 0.309457790 0.234406032
O -4.503465400 -0.620729773 -0.283330890
C -2.254046594 2.783503748 1.610182416
H 0.895769527 1.802060350 -3.420330246
H -1.088590302 -0.663869367 -4.543382255
H 2.174782618 -1.222252955 -4.013288075
H 4.914865959 -1.703717018 3.162897864
H 2.863061842 -4.143937578 1.644719693
H -0.477127085 -3.059038573 -0.570459846
H -4.106282707 3.659778237 1.770739670
H -1.461422760 2.451129514 3.485839662
H -0.931284416 4.032521991 0.639853575

