13

C -3.410631775 1.094872092 0.090485718
C -1.633178210 -1.145399514 -0.259753004
C 0.348964215 -1.300442793 1.801124841
H -0.461174792 -1.570248913 3.682686914
C 2.953532064 -2.304959577 1.325799440
H 4.085517262 -3.956732502 0.971615216
C 2.805091431 0.105475442 1.618655287
H 3.725514382 1.917426637 1.684199927
H -2.729334314 -2.901509340 -0.283917933
H -0.685368687 -1.017888410 -2.093279165
H -2.367893182 2.876571229 0.041130702
H -4.380650607 0.993991954 1.911035735
H -4.851102366 1.163045247 -1.384649707

