15

C -2.109114597 2.130446600 -1.994169832
C -1.556293191 1.224636429 0.673057196
O -3.430686455 0.822629945 2.200870570
C 0.521110404 -0.582340138 0.971167540
O 2.297681466 -0.845588379 -0.802803676
C 4.628714199 -1.793428308 -0.100361181
O 5.229794071 -2.277876797 1.994701677
H -3.087849847 0.614811888 -2.995853747
H -0.416203543 2.651932266 -3.049384000
H -3.373145788 3.749425068 -1.881768639
H -0.070542456 2.573752444 1.613187175
H -3.159069335 -2.109175597 1.679384810
H -2.147243091 -3.155274463 1.109252927
H 1.010178819 -1.204702559 2.864015908
H 5.775971635 -2.005047134 -1.808496720

