14

O -3.390642838 0.404465528 1.080012646
C -1.817070804 0.197087229 -0.808057681
C 0.629860230 1.724293131 -0.804759807
C 2.620509125 0.452214901 0.293482366
C 1.898709542 -2.010707430 0.776754954
C -0.422172413 -2.624729356 -0.492575256
H -2.185430298 3.240582162 2.016399815
H -2.683794673 0.341379913 -2.715766477
H -1.128979872 4.289738434 1.948588542
H 0.843700486 3.430367564 -1.922868614
H 4.439510813 1.271403390 0.738686497
H 2.896804073 -3.276057348 2.042912067
H -0.122720232 -3.142394260 -2.467202485
H -1.641579460 -4.000671507 0.427334786

