16

C 2.591103380 -1.286443172 1.831491512
C 1.110508593 -0.603602259 -0.290425715
C 1.222950453 1.046478511 -2.495743548
C -0.043159417 2.361135522 -0.291737828
C -2.415642347 1.492774601 0.590885744
N -3.628943576 -0.521424004 -0.671294309
C -1.506425378 -1.778948678 0.489115488
H 2.662887783 -3.310760297 2.194567124
H -0.167761400 -1.334940971 2.763357397
H 4.312137376 -0.274331050 2.313625124
H 3.047368059 1.824983314 -2.997178199
H 0.069692003 0.587289217 -4.132562599
H 0.991083023 3.776711731 0.749752960
H -3.311270655 2.245795464 2.266301714
H -3.534992497 -0.408986244 -2.587782413
H -1.641858761 -3.834604379 0.638724407

