11

C -2.306448813 2.044870844 1.048626147
O -2.006603437 0.213699452 -0.872236711
C 2.006626246 -2.798260676 0.125519653
C 2.141687655 -0.858185445 -1.443254952
O 0.288331426 0.785534980 -2.122720096
H -4.107026919 1.580075337 1.934871946
H -0.786304704 1.918338884 2.442316115
H -2.389201186 3.945584252 0.247649421
H 3.687704742 -3.910557555 0.444759742
H 0.277126144 -3.325092263 1.070260923
H 3.849477222 -0.316462116 -2.438025738

