11

C -2.865667849 1.966242628 1.161590215
O -0.785342058 0.648929438 0.317834397
C 2.262315053 -2.670944517 -0.051751057
C 2.679619191 -0.759840299 -1.791437689
O 2.664238559 1.492679907 -1.050959997
H -4.336175789 0.563991596 1.614945811
H -2.486865312 3.055194662 2.885648547
H -3.655672958 3.195874832 -0.311147961
H 1.923688774 -4.597701337 -0.656096753
H 2.339807033 -2.252529050 1.943703865
H 2.612007398 -1.180328077 -3.819550575

