15

C -3.333195352 -0.682612691 1.177512367
C -1.578284293 1.451628385 0.619991419
O -2.883590314 3.667338143 0.551720981
C 0.911299051 1.338479446 0.241369578
C 2.526618517 -0.992556424 0.234177885
C 3.187007783 -1.736601862 -2.443040674
O 5.293906809 -1.883988727 -3.264152262
H -4.314909888 -0.325571824 2.956011800
H -4.763541793 -0.810869348 -0.303281428
H -2.358089227 -2.485434771 1.303508571
H -1.743311259 5.032671655 0.188579908
H 1.899536260 3.096363857 -0.158788716
H 1.527128254 -2.115303923 -3.673542322
H 4.281535813 -0.700460058 1.276799012
H 1.535805895 -2.588025092 1.094856275

