14

C 0.295051935 3.354364594 0.403464521
C -1.455488661 0.330718078 0.993776525
C -2.465419642 -1.362615992 -1.090731929
C -0.804222614 -3.661311636 -1.149100051
N 1.281201393 -4.011529609 -0.232854510
C 1.114474920 0.172975230 1.449892634
C 2.678645113 -1.610814945 0.754992320
H 2.299319859 3.746196603 0.162101123
H -0.630566459 3.752544722 -1.393557252
H -0.434329191 4.530253156 1.914779981
H -2.720121616 0.849619940 2.522253760
H -4.454594758 -1.786959738 -0.766495763
H -2.312378018 -0.545824355 -2.982664630
H 4.694611784 -1.689943882 0.499847659

