27

C     2.36140  -1.46335   1.05759
N     1.44727  -1.18406  -0.01657
O     0.21974  -1.37090   0.44234
C    -0.82672  -1.32699  -0.33163
C    -2.17153  -1.54547   0.27324
C    -0.63178  -1.13107  -1.72255
N    -0.55306  -1.06317  -2.88943
C    -0.73001   1.55622  -0.05089
C    -1.34590   1.41388   1.32156
C    -1.69308   1.72956  -1.19983
C     0.59017   1.49038  -0.28453
C     1.65152   1.44897   0.72886
O     1.50597   1.49814   1.94819
H     3.34478  -1.08016   0.68620
H     2.11926  -0.90389   1.98202
H     2.39408  -2.49811   1.21061
H    -2.14486  -1.41338   1.35007
H    -2.43750  -2.54201  -0.01043
H    -2.95948  -0.84574  -0.14345
H    -2.41646   1.15230   1.28084
H    -0.84634   0.66008   2.00153
H    -1.21174   2.37046   1.75523
H    -2.58400   1.08858  -1.18038
H    -1.17749   1.59702  -2.17324
H    -1.97626   2.74433  -1.06708
H     0.98927   1.42940  -1.30083
H     2.69228   1.52762   0.31525
27

C     2.36044  -1.45561   1.05346
N     1.44302  -1.17191  -0.01755
O     0.21717  -1.36876   0.44372
C    -0.82944  -1.30112  -0.32931
C    -2.17188  -1.53946   0.27091
C    -0.63393  -1.12654  -1.72271
N    -0.55346  -1.06688  -2.88892
C    -0.73070   1.52665  -0.05208
C    -1.34491   1.40674   1.32113
C    -1.68869   1.72415  -1.19879
C     0.59535   1.47308  -0.28275
C     1.65307   1.45033   0.73042
O     1.50637   1.49902   1.95007
H     3.34452  -1.07840   0.68467
H     2.11961  -0.90239   1.98140
H     2.39263  -2.49603   1.20820
H    -2.14620  -1.41190   1.34944
H    -2.43323  -2.54098  -0.01165
H    -2.96146  -0.84671  -0.14452
H    -2.41645   1.15155   1.28157
H    -0.84706   0.65976   2.00374
H    -1.20997   2.36971   1.75102
H    -2.58493   1.09070  -1.18106
H    -1.17684   1.59526  -2.17324
H    -1.97027   2.74359  -1.06470
H     0.99070   1.42565  -1.30024
H     2.69241   1.53123   0.31572
27

C     2.35948  -1.44787   1.04933
N     1.43878  -1.15976  -0.01852
O     0.21459  -1.36662   0.44511
C    -0.83215  -1.27526  -0.32699
C    -2.17223  -1.53346   0.26858
C    -0.63608  -1.12201  -1.72286
N    -0.55386  -1.07059  -2.88840
C    -0.73140   1.49707  -0.05327
C    -1.34392   1.39959   1.32070
C    -1.68430   1.71874  -1.19776
C     0.60054   1.45578  -0.28097
C     1.65462   1.45169   0.73198
O     1.50677   1.49989   1.95195
H     3.34426  -1.07664   0.68313
H     2.11997  -0.90088   1.98078
H     2.39119  -2.49395   1.20580
H    -2.14755  -1.41042   1.34881
H    -2.42897  -2.53995  -0.01287
H    -2.96344  -0.84768  -0.14560
H    -2.41645   1.15081   1.28231
H    -0.84777   0.65944   2.00596
H    -1.20820   2.36897   1.74681
H    -2.58585   1.09282  -1.18174
H    -1.17619   1.59351  -2.17324
H    -1.96428   2.74285  -1.06233
H     0.99212   1.42190  -1.29965
H     2.69254   1.53484   0.31618
27

C     2.35852  -1.44013   1.04519
N     1.43453  -1.14760  -0.01949
O     0.21201  -1.36448   0.44650
C    -0.83487  -1.24939  -0.32468
C    -2.17257  -1.52745   0.26625
C    -0.63823  -1.11748  -1.72301
N    -0.55427  -1.07430  -2.88789
C    -0.73210   1.46750  -0.05446
C    -1.34293   1.39245   1.32026
C    -1.67990   1.71333  -1.19672
C     0.60572   1.43849  -0.27920
C     1.65616   1.45306   0.73354
O     1.50716   1.50076   1.95383
H     3.34400  -1.07489   0.68160
H     2.12032  -0.89938   1.98016
H     2.38974  -2.49187   1.20339
H    -2.14889  -1.40894   1.34819
H    -2.42470  -2.53891  -0.01409
H    -2.96541  -0.84865  -0.14668
H    -2.41644   1.15006   1.28305
H    -0.84849   0.65912   2.00818
H    -1.20644   2.36822   1.74259
H    -2.58678   1.09494  -1.18243
H    -1.17554   1.59175  -2.17324
H    -1.95829   2.74212  -1.05996
H     0.99355   1.41815  -1.29906
H     2.69267   1.53845   0.31665
27

C     2.35756  -1.43239   1.04106
N     1.43028  -1.13545  -0.02046
O     0.20944  -1.36234   0.44789
C    -0.83759  -1.22353  -0.32236
C    -2.17292  -1.52144   0.26393
C    -0.64039  -1.11295  -1.72317
N    -0.55467  -1.07801  -2.88737
C    -0.73279   1.43793  -0.05565
C    -1.34194   1.38531   1.31983
C    -1.67551   1.70791  -1.19569
C     0.61090   1.42119  -0.27742
C     1.65771   1.45442   0.73511
O     1.50756   1.50164   1.95571
H     3.34374  -1.07313   0.68007
H     2.12067  -0.89788   1.97954
H     2.38829  -2.48980   1.20099
H    -2.15024  -1.40746   1.34756
H    -2.42044  -2.53788  -0.01531
H    -2.96739  -0.84962  -0.14776
H    -2.41644   1.14931   1.28379
H    -0.84920   0.65880   2.01039
H    -1.20467   2.36747   1.73838
H    -2.58770   1.09706  -1.18311
H    -1.17489   1.58999  -2.17324
H    -1.95230   2.74138  -1.05759
H     0.99498   1.41440  -1.29847
H     2.69279   1.54206   0.31711
27

C     2.35660  -1.42465   1.03693
N     1.42603  -1.12330  -0.02143
O     0.20686  -1.36020   0.44928
C    -0.84030  -1.19766  -0.32005
C    -2.17327  -1.51544   0.26160
C    -0.64254  -1.10841  -1.72332
N    -0.55507  -1.08172  -2.88686
C    -0.73349   1.40835  -0.05684
C    -1.34095   1.37817   1.31940
C    -1.67112   1.70250  -1.19465
C     0.61609   1.40389  -0.27564
C     1.65926   1.45579   0.73667
O     1.50796   1.50251   1.95759
H     3.34348  -1.07137   0.67853
H     2.12103  -0.89637   1.97892
H     2.38684  -2.48772   1.19858
H    -2.15158  -1.40597   1.34693
H    -2.41617  -2.53684  -0.01653
H    -2.96936  -0.85058  -0.14884
H    -2.41643   1.14856   1.28453
H    -0.84991   0.65847   2.01261
H    -1.20290   2.36672   1.73417
H    -2.58862   1.09919  -1.18379
H    -1.17424   1.58823  -2.17323
H    -1.94631   2.74064  -1.05522
H     0.99640   1.41065  -1.29788
H     2.69292   1.54568   0.31758
27

C     2.35564  -1.41691   1.03280
N     1.42178  -1.11114  -0.02241
O     0.20429  -1.35806   0.45067
C    -0.84302  -1.17179  -0.31773
C    -2.17362  -1.50943   0.25927
C    -0.64469  -1.10388  -1.72348
N    -0.55548  -1.08542  -2.88634
C    -0.73419   1.37878  -0.05802
C    -1.33996   1.37102   1.31897
C    -1.66673   1.69709  -1.19362
C     0.62127   1.38659  -0.27386
C     1.66081   1.45715   0.73823
O     1.50836   1.50339   1.95947
H     3.34322  -1.06961   0.67700
H     2.12138  -0.89487   1.97830
H     2.38539  -2.48564   1.19618
H    -2.15293  -1.40449   1.34631
H    -2.41190  -2.53581  -0.01775
H    -2.97134  -0.85155  -0.14991
H    -2.41643   1.14781   1.28526
H    -0.85063   0.65815   2.01483
H    -1.20114   2.36597   1.72995
H    -2.58955   1.10131  -1.18448
H    -1.17359   1.58648  -2.17323
H    -1.94032   2.73991  -1.05284
H     0.99783   1.40690  -1.29728
H     2.69305   1.54929   0.31804
27

C     2.35468  -1.40917   1.02867
N     1.41754  -1.09899  -0.02338
O     0.20171  -1.35592   0.45206
C    -0.84574  -1.14593  -0.31542
C    -2.17396  -1.50342   0.25694
C    -0.64685  -1.09935  -1.72363
N    -0.55588  -1.08913  -2.88583
C    -0.73488   1.34921  -0.05921
C    -1.33897   1.36388   1.31854
C    -1.66233   1.69168  -1.19258
C     0.62646   1.36930  -0.27208
C     1.66236   1.45851   0.73979
O     1.50876   1.50426   1.96135
H     3.34296  -1.06785   0.67547
H     2.12173  -0.89337   1.97768
H     2.38394  -2.48356   1.19378
H    -2.15427  -1.40301   1.34568
H    -2.40764  -2.53478  -0.01897
H    -2.97332  -0.85252  -0.15099
H    -2.41642   1.14706   1.28600
H    -0.85134   0.65783   2.01704
H    -1.19937   2.36522   1.72574
H    -2.59047   1.10343  -1.18516
H    -1.17294   1.58472  -2.17323
H    -1.93433   2.73917  -1.05047
H     0.99926   1.40315  -1.29669
H     2.69318   1.55290   0.31851
27

C     2.35372  -1.40143   1.02453
N     1.41329  -1.08684  -0.02435
O     0.19914  -1.35379   0.45345
C    -0.84846  -1.12006  -0.31310
C    -2.17431  -1.49742   0.25461
C    -0.64900  -1.09482  -1.72378
N    -0.55629  -1.09284  -2.88531
C    -0.73558   1.31963  -0.06040
C    -1.33798   1.35674   1.31810
C    -1.65794   1.68627  -1.19154
C     0.63164   1.35200  -0.27030
C     1.66391   1.45988   0.74135
O     1.50915   1.50513   1.96323
H     3.34270  -1.06609   0.67393
H     2.12209  -0.89186   1.97706
H     2.38249  -2.48148   1.19137
H    -2.15562  -1.40153   1.34505
H    -2.40337  -2.53374  -0.02019
H    -2.97529  -0.85349  -0.15207
H    -2.41642   1.14632   1.28674
H    -0.85206   0.65751   2.01926
H    -1.19760   2.36448   1.72153
H    -2.59140   1.10555  -1.18585
H    -1.17229   1.58296  -2.17323
H    -1.92834   2.73843  -1.04810
H     1.00068   1.39940  -1.29610
H     2.69331   1.55651   0.31898
27

C     2.35276  -1.39369   1.02040
N     1.40904  -1.07468  -0.02532
O     0.19656  -1.35165   0.45484
C    -0.85117  -1.09420  -0.31078
C    -2.17466  -1.49141   0.25228
C    -0.65115  -1.09029  -1.72394
N    -0.55669  -1.09655  -2.88480
C    -0.73628   1.29006  -0.06159
C    -1.33699   1.34960   1.31767
C    -1.65355   1.68086  -1.19051
C     0.63683   1.33470  -0.26852
C     1.66545   1.46124   0.74291
O     1.50955   1.50601   1.96511
H     3.34245  -1.06433   0.67240
H     2.12244  -0.89036   1.97644
H     2.38104  -2.47940   1.18897
H    -2.15696  -1.40005   1.34443
H    -2.39910  -2.53271  -0.02141
H    -2.97727  -0.85446  -0.15315
H    -2.41641   1.14557   1.28748
H    -0.85277   0.65719   2.02148
H    -1.19584   2.36373   1.71731
H    -2.59232   1.10767  -1.18653
H    -1.17164   1.58120  -2.17323
H    -1.92235   2.73769  -1.04573
H     1.00211   1.39565  -1.29551
H     2.69344   1.56012   0.31944
27

C     2.35180  -1.38595   1.01627
N     1.40479  -1.06253  -0.02630
O     0.19398  -1.34951   0.45623
C    -0.85389  -1.06833  -0.30847
C    -2.17500  -1.48540   0.24995
C    -0.65331  -1.08576  -1.72409
N    -0.55709  -1.10026  -2.88428
C    -0.73697   1.26049  -0.06278
C    -1.33600   1.34245   1.31724
C    -1.64916   1.67545  -1.18947
C     0.64201   1.31740  -0.26674
C     1.66700   1.46260   0.74448
O     1.50995   1.50688   1.96699
H     3.34219  -1.06257   0.67087
H     2.12279  -0.88886   1.97582
H     2.37960  -2.47732   1.18656
H    -2.15831  -1.39857   1.34380
H    -2.39484  -2.53168  -0.02263
H    -2.97925  -0.85543  -0.15423
H    -2.41641   1.14482   1.28821
H    -0.85348   0.65687   2.02369
H    -1.19407   2.36298   1.71310
H    -2.59325   1.10979  -1.18721
H    -1.17099   1.57945  -2.17323
H    -1.91636   2.73696  -1.04336
H     1.00354   1.39190  -1.29492
H     2.69357   1.56373   0.31991
27

C     2.35084  -1.37821   1.01214
N     1.40055  -1.05038  -0.02727
O     0.19141  -1.34737   0.45762
C    -0.85661  -1.04247  -0.30615
C    -2.17535  -1.47940   0.24763
C    -0.65546  -1.08123  -1.72425
N    -0.55750  -1.10397  -2.88377
C    -0.73767   1.23092  -0.06397
C    -1.33501   1.33531   1.31681
C    -1.64476   1.67004  -1.18844
C     0.64720   1.30011  -0.26497
C     1.66855   1.46397   0.74604
O     1.51035   1.50775   1.96887
H     3.34193  -1.06081   0.66933
H     2.12314  -0.88735   1.97520
H     2.37815  -2.47524   1.18416
H    -2.15965  -1.39709   1.34317
H    -2.39057  -2.53064  -0.02384
H    -2.98122  -0.85640  -0.15530
H    -2.41640   1.14407   1.28895
H    -0.85420   0.65654   2.02591
H    -1.19230   2.36223   1.70889
H    -2.59417   1.11192  -1.18790
H    -1.17034   1.57769  -2.17322
H    -1.91037   2.73622  -1.04098
H     1.00496   1.38815  -1.29433
H     2.69370   1.56734   0.32037
27

C     2.34988  -1.37047   1.00801
N     1.39630  -1.03823  -0.02824
O     0.18883  -1.34523   0.45901
C    -0.85932  -1.01660  -0.30384
C    -2.17570  -1.47339   0.24530
C    -0.65761  -1.07670  -1.72440
N    -0.55790  -1.10768  -2.88325
C    -0.73837   1.20134  -0.06515
C    -1.33401   1.32817   1.31637
C    -1.64037   1.66463  -1.18740
C     0.65238   1.28281  -0.26319
C     1.67010   1.46533   0.74760
O     1.51075   1.50863   1.97075
H     3.34167  -1.05906   0.66780
H     2.12350  -0.88585   1.97459
H     2.37670  -2.47316   1.18175
H    -2.16100  -1.39561   1.34254
H    -2.38630  -2.52961  -0.02506
H    -2.98320  -0.85736  -0.15638
H    -2.41640   1.14332   1.28969
H    -0.85491   0.65622   2.02813
H    -1.19054   2.36148   1.70467
H    -2.59510   1.11404  -1.18858
H    -1.16969   1.57593  -2.17322
H    -1.90438   2.73548  -1.03861
H     1.00639   1.38440  -1.29374
H     2.69383   1.57095   0.32084
27

C     2.34892  -1.36274   1.00387
N     1.39205  -1.02607  -0.02921
O     0.18626  -1.34309   0.46040
C    -0.86204  -0.99073  -0.30152
C    -2.17605  -1.46738   0.24297
C    -0.65977  -1.07217  -1.72455
N    -0.55830  -1.11138  -2.88274
C    -0.73906   1.17177  -0.06634
C    -1.33302   1.32103   1.31594
C    -1.63598   1.65922  -1.18637
C     0.65756   1.26551  -0.26141
C     1.67165   1.46670   0.74916
O     1.51114   1.50950   1.97263
H     3.34141  -1.05730   0.66627
H     2.12385  -0.88435   1.97397
H     2.37525  -2.47109   1.17935
H    -2.16234  -1.39413   1.34192
H    -2.38204  -2.52858  -0.02628
H    -2.98517  -0.85833  -0.15746
H    -2.41639   1.14257   1.29043
H    -0.85563   0.65590   2.03034
H    -1.18877   2.36074   1.70046
H    -2.59602   1.11616  -1.18926
H    -1.16904   1.57417  -2.17322
H    -1.89839   2.73475  -1.03624
H     1.00782   1.38065  -1.29315
H     2.69396   1.57456   0.32130
27

C     2.34796  -1.35500   0.99974
N     1.38780  -1.01392  -0.03019
O     0.18368  -1.34095   0.46179
C    -0.86476  -0.96487  -0.29920
C    -2.17639  -1.46138   0.24064
C    -0.66192  -1.06763  -1.72471
N    -0.55871  -1.11509  -2.88222
C    -0.73976   1.14220  -0.06753
C    -1.33203   1.31388   1.31551
C    -1.63159   1.65381  -1.18533
C     0.66275   1.24822  -0.25963
C     1.67320   1.46806   0.75072
O     1.51154   1.51037   1.97451
H     3.34115  -1.05554   0.66473
H     2.12420  -0.88285   1.97335
H     2.37380  -2.46901   1.17694
H    -2.16369  -1.39265   1.34129
H    -2.37777  -2.52754  -0.02750
H    -2.98715  -0.85930  -0.15854
H    -2.41639   1.14182   1.29117
H    -0.85634   0.65558   2.03256
H    -1.18700   2.35999   1.69624
H    -2.59695   1.11828  -1.18995
H    -1.16839   1.57242  -2.17322
H    -1.89240   2.73401  -1.03387
H     1.00924   1.37690  -1.29256
H     2.69409   1.57817   0.32177
27

C     2.34700  -1.34726   0.99561
N     1.38356  -1.00177  -0.03116
O     0.18111  -1.33881   0.46318
C    -0.86748  -0.93900  -0.29689
C    -2.17674  -1.45537   0.23831
C    -0.66407  -1.06310  -1.72486
N    -0.55911  -1.11880  -2.88171
C    -0.74046   1.11262  -0.06872
C    -1.33104   1.30674   1.31508
C    -1.62719   1.64840  -1.18430
C     0.66793   1.23092  -0.25785
C     1.67474   1.46942   0.75228
O     1.51194   1.51125   1.97639
H     3.34089  -1.05378   0.66320
H     2.12456  -0.88134   1.97273
H     2.37235  -2.46693   1.17454
H    -2.16503  -1.39117   1.34066
H    -2.37351  -2.52651  -0.02872
H    -2.98913  -0.86027  -0.15961
H    -2.41638   1.14108   1.29190
H    -0.85705   0.65526   2.03478
H    -1.18523   2.35924   1.69203
H    -2.59787   1.12040  -1.19063
H    -1.16774   1.57066  -2.17322
H    -1.88641   2.73327  -1.03149
H     1.01067   1.37315  -1.29197
H     2.69422   1.58179   0.32223
27

C     2.34604  -1.33952   0.99148
N     1.37931  -0.98961  -0.03213
O     0.17853  -1.33667   0.46457
C    -0.87019  -0.91314  -0.29457
C    -2.17709  -1.44936   0.23598
C    -0.66622  -1.05857  -1.72502
N    -0.55951  -1.12251  -2.88119
C    -0.74115   1.08305  -0.06991
C    -1.33005   1.29960   1.31464
C    -1.62280   1.64298  -1.18326
C     0.67312   1.21362  -0.25607
C     1.67629   1.47079   0.75385
O     1.51234   1.51212   1.97827
H     3.34063  -1.05202   0.66167
H     2.12491  -0.87984   1.97211
H     2.37090  -2.46485   1.17213
H    -2.16638  -1.38969   1.34004
H    -2.36924  -2.52548  -0.02994
H    -2.99110  -0.86124  -0.16069
H    -2.41638   1.14033   1.29264
H    -0.85777   0.65493   2.03699
H    -1.18347   2.35849   1.68782
H    -2.59879   1.12252  -1.19131
H    -1.16709   1.56890  -2.17322
H    -1.88042   2.73253  -1.02912
H     1.01210   1.36940  -1.29138
H     2.69435   1.58540   0.32270
27

C     2.34508  -1.33178   0.98735
N     1.37506  -0.97746  -0.03310
O     0.17595  -1.33454   0.46596
C    -0.87291  -0.88727  -0.29226
C    -2.17743  -1.44336   0.23365
C    -0.66838  -1.05404  -1.72517
N    -0.55992  -1.12622  -2.88068
C    -0.74185   1.05348  -0.07110
C    -1.32906   1.29246   1.31421
C    -1.61841   1.63757  -1.18223
C     0.67830   1.19632  -0.25429
C     1.67784   1.47215   0.75541
O     1.51274   1.51299   1.98015
H     3.34037  -1.05026   0.66013
H     2.12526  -0.87834   1.97149
H     2.36945  -2.46277   1.16973
H    -2.16772  -1.38821   1.33941
H    -2.36497  -2.52444  -0.03116
H    -2.99308  -0.86221  -0.16177
H    -2.41637   1.13958   1.29338
H    -0.85848   0.65461   2.03921
H    -1.18170   2.35774   1.68360
H    -2.59972   1.12465  -1.19200
H    -1.16644   1.56714  -2.17321
H    -1.87443   2.73180  -1.02675
H     1.01352   1.36565  -1.29078
H     2.69448   1.58901   0.32316
27

C     2.34412  -1.32404   0.98321
N     1.37081  -0.96531  -0.03407
O     0.17338  -1.33240   0.46735
C    -0.87563  -0.86141  -0.28994
C    -2.17778  -1.43735   0.23133
C    -0.67053  -1.04951  -1.72532
N    -0.56032  -1.12993  -2.88016
C    -0.74255   1.02390  -0.07228
C    -1.32807   1.28531   1.31378
C    -1.61402   1.63216  -1.18119
C     0.68349   1.17903  -0.25251
C     1.67939   1.47352   0.75697
O     1.51314   1.51387   1.98203
H     3.34011  -1.04850   0.65860
H     2.12562  -0.87683   1.97087
H     2.36801  -2.46069   1.16732
H    -2.16907  -1.38673   1.33878
H    -2.36071  -2.52341  -0.03238
H    -2.99506  -0.86317  -0.16285
H    -2.41637   1.13883   1.29412
H    -0.85920   0.65429   2.04143
H    -1.17993   2.35700   1.67939
H    -2.60064   1.12677  -1.19268
H    -1.16579   1.56539  -2.17321
H    -1.86844   2.73106  -1.02438
H     1.01495   1.36190  -1.29019
H     2.69461   1.59262   0.32363
27

C     2.34316  -1.31630   0.97908
N     1.36656  -0.95315  -0.03505
O     0.17080  -1.33026   0.46874
C    -0.87835  -0.83554  -0.28763
C    -2.17813  -1.43134   0.22900
C    -0.67268  -1.04498  -1.72548
N    -0.56072  -1.13363  -2.87964
C    -0.74324   0.99433  -0.07347
C    -1.32708   1.27817   1.31335
C    -1.60962   1.62675  -1.18016
C     0.68867   1.16173  -0.25073
C     1.68094   1.47488   0.75853
O     1.51353   1.51474   1.98391
H     3.33985  -1.04674   0.65707
H     2.12597  -0.87533   1.97025
H     2.36656  -2.45861   1.16492
H    -2.17041  -1.38525   1.33816
H    -2.35644  -2.52237  -0.03360
H    -2.99703  -0.86414  -0.16393
H    -2.41636   1.13808   1.29486
H    -0.85991   0.65397   2.04364
H    -1.17817   2.35625   1.67518
H    -2.60157   1.12889  -1.19336
H    -1.16514   1.56363  -2.17321
H    -1.86245   2.73032  -1.02201
H     1.01638   1.35815  -1.28960
H     2.69474   1.59623   0.32409
27

C     2.34220  -1.30856   0.97495
N     1.36232  -0.94100  -0.03602
O     0.16823  -1.32812   0.47013
C    -0.88106  -0.80968  -0.28531
C    -2.17848  -1.42534   0.22667
C    -0.67484  -1.04045  -1.72563
N    -0.56113  -1.13734  -2.87913
C    -0.74394   0.96476  -0.07466
C    -1.32609   1.27103   1.31291
C    -1.60523   1.62134  -1.17912
C     0.69385   1.14443  -0.24896
C     1.68249   1.47624   0.76009
O     1.51393   1.51562   1.98579
H     3.33959  -1.04498   0.65553
H     2.12632  -0.87383   1.96963
H     2.36511  -2.45653   1.16251
H    -2.17176  -1.38376   1.33753
H    -2.35217  -2.52134  -0.03482
H    -2.99901  -0.86511  -0.16500
H    -2.41636   1.13733   1.29559
H    -0.86062   0.65365   2.04586
H    -1.17640   2.35550   1.67096
H    -2.60249   1.13101  -1.19405
H    -1.16449   1.56187  -2.17321
H    -1.85646   2.72959  -1.01963
H     1.01780   1.35440  -1.28901
H     2.69487   1.59984   0.32456
27

C     2.34316  -1.31630   0.97908
N     1.36656  -0.95315  -0.03505
O     0.17080  -1.33026   0.46874
C    -0.87835  -0.83554  -0.28763
C    -2.17813  -1.43134   0.22900
C    -0.67268  -1.04498  -1.72548
N    -0.56072  -1.13363  -2.87964
C    -0.74324   0.99433  -0.07347
C    -1.32708   1.27817   1.31335
C    -1.60962   1.62675  -1.18016
C     0.68867   1.16173  -0.25073
C     1.68094   1.47488   0.75853
O     1.51353   1.51474   1.98391
H     3.33985  -1.04674   0.65707
H     2.12597  -0.87533   1.97025
H     2.36656  -2.45861   1.16492
H    -2.17041  -1.38525   1.33816
H    -2.35644  -2.52237  -0.03360
H    -2.99703  -0.86414  -0.16393
H    -2.41636   1.13808   1.29486
H    -0.85991   0.65397   2.04364
H    -1.17817   2.35625   1.67518
H    -2.60157   1.12889  -1.19336
H    -1.16514   1.56363  -2.17321
H    -1.86245   2.73032  -1.02201
H     1.01638   1.35815  -1.28960
H     2.69474   1.59623   0.32409
27

C     2.34412  -1.32404   0.98321
N     1.37081  -0.96531  -0.03407
O     0.17338  -1.33240   0.46735
C    -0.87563  -0.86141  -0.28994
C    -2.17778  -1.43735   0.23133
C    -0.67053  -1.04951  -1.72532
N    -0.56032  -1.12993  -2.88016
C    -0.74255   1.02390  -0.07228
C    -1.32807   1.28531   1.31378
C    -1.61402   1.63216  -1.18119
C     0.68349   1.17903  -0.25251
C     1.67939   1.47352   0.75697
O     1.51314   1.51387   1.98203
H     3.34011  -1.04850   0.65860
H     2.12562  -0.87683   1.97087
H     2.36801  -2.46069   1.16732
H    -2.16907  -1.38673   1.33878
H    -2.36071  -2.52341  -0.03238
H    -2.99506  -0.86317  -0.16285
H    -2.41637   1.13883   1.29412
H    -0.85920   0.65429   2.04143
H    -1.17993   2.35700   1.67939
H    -2.60064   1.12677  -1.19268
H    -1.16579   1.56539  -2.17321
H    -1.86844   2.73106  -1.02438
H     1.01495   1.36190  -1.29019
H     2.69461   1.59262   0.32363
27

C     2.34508  -1.33178   0.98735
N     1.37506  -0.97746  -0.03310
O     0.17595  -1.33454   0.46596
C    -0.87291  -0.88727  -0.29226
C    -2.17743  -1.44336   0.23365
C    -0.66838  -1.05404  -1.72517
N    -0.55992  -1.12622  -2.88068
C    -0.74185   1.05348  -0.07110
C    -1.32906   1.29246   1.31421
C    -1.61841   1.63757  -1.18223
C     0.67830   1.19632  -0.25429
C     1.67784   1.47215   0.75541
O     1.51274   1.51299   1.98015
H     3.34037  -1.05026   0.66013
H     2.12526  -0.87834   1.97149
H     2.36945  -2.46277   1.16973
H    -2.16772  -1.38821   1.33941
H    -2.36497  -2.52444  -0.03116
H    -2.99308  -0.86221  -0.16177
H    -2.41637   1.13958   1.29338
H    -0.85848   0.65461   2.03921
H    -1.18170   2.35774   1.68360
H    -2.59972   1.12465  -1.19200
H    -1.16644   1.56714  -2.17321
H    -1.87443   2.73180  -1.02675
H     1.01352   1.36565  -1.29078
H     2.69448   1.58901   0.32316
27

C     2.34604  -1.33952   0.99148
N     1.37931  -0.98961  -0.03213
O     0.17853  -1.33667   0.46457
C    -0.87019  -0.91314  -0.29457
C    -2.17709  -1.44936   0.23598
C    -0.66622  -1.05857  -1.72502
N    -0.55951  -1.12251  -2.88119
C    -0.74115   1.08305  -0.06991
C    -1.33005   1.29960   1.31464
C    -1.62280   1.64298  -1.18326
C     0.67312   1.21362  -0.25607
C     1.67629   1.47079   0.75385
O     1.51234   1.51212   1.97827
H     3.34063  -1.05202   0.66167
H     2.12491  -0.87984   1.97211
H     2.37090  -2.46485   1.17213
H    -2.16638  -1.38969   1.34004
H    -2.36924  -2.52548  -0.02994
H    -2.99110  -0.86124  -0.16069
H    -2.41638   1.14033   1.29264
H    -0.85777   0.65493   2.03699
H    -1.18347   2.35849   1.68782
H    -2.59879   1.12252  -1.19131
H    -1.16709   1.56890  -2.17322
H    -1.88042   2.73253  -1.02912
H     1.01210   1.36940  -1.29138
H     2.69435   1.58540   0.32270
27

C     2.34700  -1.34726   0.99561
N     1.38356  -1.00177  -0.03116
O     0.18111  -1.33881   0.46318
C    -0.86748  -0.93900  -0.29689
C    -2.17674  -1.45537   0.23831
C    -0.66407  -1.06310  -1.72486
N    -0.55911  -1.11880  -2.88171
C    -0.74046   1.11262  -0.06872
C    -1.33104   1.30674   1.31508
C    -1.62719   1.64840  -1.18430
C     0.66793   1.23092  -0.25785
C     1.67474   1.46942   0.75228
O     1.51194   1.51125   1.97639
H     3.34089  -1.05378   0.66320
H     2.12456  -0.88134   1.97273
H     2.37235  -2.46693   1.17454
H    -2.16503  -1.39117   1.34066
H    -2.37351  -2.52651  -0.02872
H    -2.98913  -0.86027  -0.15961
H    -2.41638   1.14108   1.29190
H    -0.85705   0.65526   2.03478
H    -1.18523   2.35924   1.69203
H    -2.59787   1.12040  -1.19063
H    -1.16774   1.57066  -2.17322
H    -1.88641   2.73327  -1.03149
H     1.01067   1.37315  -1.29197
H     2.69422   1.58179   0.32223
27

C     2.34796  -1.35500   0.99974
N     1.38780  -1.01392  -0.03019
O     0.18368  -1.34095   0.46179
C    -0.86476  -0.96487  -0.29920
C    -2.17639  -1.46138   0.24064
C    -0.66192  -1.06763  -1.72471
N    -0.55871  -1.11509  -2.88222
C    -0.73976   1.14220  -0.06753
C    -1.33203   1.31388   1.31551
C    -1.63159   1.65381  -1.18533
C     0.66275   1.24822  -0.25963
C     1.67320   1.46806   0.75072
O     1.51154   1.51037   1.97451
H     3.34115  -1.05554   0.66473
H     2.12420  -0.88285   1.97335
H     2.37380  -2.46901   1.17694
H    -2.16369  -1.39265   1.34129
H    -2.37777  -2.52754  -0.02750
H    -2.98715  -0.85930  -0.15854
H    -2.41639   1.14182   1.29117
H    -0.85634   0.65558   2.03256
H    -1.18700   2.35999   1.69624
H    -2.59695   1.11828  -1.18995
H    -1.16839   1.57242  -2.17322
H    -1.89240   2.73401  -1.03387
H     1.00924   1.37690  -1.29256
H     2.69409   1.57817   0.32177
27

C     2.34892  -1.36274   1.00387
N     1.39205  -1.02607  -0.02921
O     0.18626  -1.34309   0.46040
C    -0.86204  -0.99073  -0.30152
C    -2.17605  -1.46738   0.24297
C    -0.65977  -1.07217  -1.72455
N    -0.55830  -1.11138  -2.88274
C    -0.73906   1.17177  -0.06634
C    -1.33302   1.32103   1.31594
C    -1.63598   1.65922  -1.18637
C     0.65756   1.26551  -0.26141
C     1.67165   1.46670   0.74916
O     1.51114   1.50950   1.97263
H     3.34141  -1.05730   0.66627
H     2.12385  -0.88435   1.97397
H     2.37525  -2.47109   1.17935
H    -2.16234  -1.39413   1.34192
H    -2.38204  -2.52858  -0.02628
H    -2.98517  -0.85833  -0.15746
H    -2.41639   1.14257   1.29043
H    -0.85563   0.65590   2.03034
H    -1.18877   2.36074   1.70046
H    -2.59602   1.11616  -1.18926
H    -1.16904   1.57417  -2.17322
H    -1.89839   2.73475  -1.03624
H     1.00782   1.38065  -1.29315
H     2.69396   1.57456   0.32130
27

C     2.34988  -1.37047   1.00801
N     1.39630  -1.03823  -0.02824
O     0.18883  -1.34523   0.45901
C    -0.85932  -1.01660  -0.30384
C    -2.17570  -1.47339   0.24530
C    -0.65761  -1.07670  -1.72440
N    -0.55790  -1.10768  -2.88325
C    -0.73837   1.20134  -0.06515
C    -1.33401   1.32817   1.31637
C    -1.64037   1.66463  -1.18740
C     0.65238   1.28281  -0.26319
C     1.67010   1.46533   0.74760
O     1.51075   1.50863   1.97075
H     3.34167  -1.05906   0.66780
H     2.12350  -0.88585   1.97459
H     2.37670  -2.47316   1.18175
H    -2.16100  -1.39561   1.34254
H    -2.38630  -2.52961  -0.02506
H    -2.98320  -0.85736  -0.15638
H    -2.41640   1.14332   1.28969
H    -0.85491   0.65622   2.02813
H    -1.19054   2.36148   1.70467
H    -2.59510   1.11404  -1.18858
H    -1.16969   1.57593  -2.17322
H    -1.90438   2.73548  -1.03861
H     1.00639   1.38440  -1.29374
H     2.69383   1.57095   0.32084
27

C     2.35084  -1.37821   1.01214
N     1.40055  -1.05038  -0.02727
O     0.19141  -1.34737   0.45762
C    -0.85661  -1.04247  -0.30615
C    -2.17535  -1.47940   0.24763
C    -0.65546  -1.08123  -1.72425
N    -0.55750  -1.10397  -2.88377
C    -0.73767   1.23092  -0.06397
C    -1.33501   1.33531   1.31681
C    -1.64476   1.67004  -1.18844
C     0.64720   1.30011  -0.26497
C     1.66855   1.46397   0.74604
O     1.51035   1.50775   1.96887
H     3.34193  -1.06081   0.66933
H     2.12314  -0.88735   1.97520
H     2.37815  -2.47524   1.18416
H    -2.15965  -1.39709   1.34317
H    -2.39057  -2.53064  -0.02384
H    -2.98122  -0.85640  -0.15530
H    -2.41640   1.14407   1.28895
H    -0.85420   0.65654   2.02591
H    -1.19230   2.36223   1.70889
H    -2.59417   1.11192  -1.18790
H    -1.17034   1.57769  -2.17322
H    -1.91037   2.73622  -1.04098
H     1.00496   1.38815  -1.29433
H     2.69370   1.56734   0.32037
27

C     2.35180  -1.38595   1.01627
N     1.40479  -1.06253  -0.02630
O     0.19398  -1.34951   0.45623
C    -0.85389  -1.06833  -0.30847
C    -2.17500  -1.48540   0.24995
C    -0.65331  -1.08576  -1.72409
N    -0.55709  -1.10026  -2.88428
C    -0.73697   1.26049  -0.06278
C    -1.33600   1.34245   1.31724
C    -1.64916   1.67545  -1.18947
C     0.64201   1.31740  -0.26674
C     1.66700   1.46260   0.74448
O     1.50995   1.50688   1.96699
H     3.34219  -1.06257   0.67087
H     2.12279  -0.88886   1.97582
H     2.37960  -2.47732   1.18656
H    -2.15831  -1.39857   1.34380
H    -2.39484  -2.53168  -0.02263
H    -2.97925  -0.85543  -0.15423
H    -2.41641   1.14482   1.28821
H    -0.85348   0.65687   2.02369
H    -1.19407   2.36298   1.71310
H    -2.59325   1.10979  -1.18721
H    -1.17099   1.57945  -2.17323
H    -1.91636   2.73696  -1.04336
H     1.00354   1.39190  -1.29492
H     2.69357   1.56373   0.31991
27

C     2.35276  -1.39369   1.02040
N     1.40904  -1.07468  -0.02532
O     0.19656  -1.35165   0.45484
C    -0.85117  -1.09420  -0.31078
C    -2.17466  -1.49141   0.25228
C    -0.65115  -1.09029  -1.72394
N    -0.55669  -1.09655  -2.88480
C    -0.73628   1.29006  -0.06159
C    -1.33699   1.34960   1.31767
C    -1.65355   1.68086  -1.19051
C     0.63683   1.33470  -0.26852
C     1.66545   1.46124   0.74291
O     1.50955   1.50601   1.96511
H     3.34245  -1.06433   0.67240
H     2.12244  -0.89036   1.97644
H     2.38104  -2.47940   1.18897
H    -2.15696  -1.40005   1.34443
H    -2.39910  -2.53271  -0.02141
H    -2.97727  -0.85446  -0.15315
H    -2.41641   1.14557   1.28748
H    -0.85277   0.65719   2.02148
H    -1.19584   2.36373   1.71731
H    -2.59232   1.10767  -1.18653
H    -1.17164   1.58120  -2.17323
H    -1.92235   2.73769  -1.04573
H     1.00211   1.39565  -1.29551
H     2.69344   1.56012   0.31944
27

C     2.35372  -1.40143   1.02453
N     1.41329  -1.08684  -0.02435
O     0.19914  -1.35379   0.45345
C    -0.84846  -1.12006  -0.31310
C    -2.17431  -1.49742   0.25461
C    -0.64900  -1.09482  -1.72378
N    -0.55629  -1.09284  -2.88531
C    -0.73558   1.31963  -0.06040
C    -1.33798   1.35674   1.31810
C    -1.65794   1.68627  -1.19154
C     0.63164   1.35200  -0.27030
C     1.66391   1.45988   0.74135
O     1.50915   1.50513   1.96323
H     3.34270  -1.06609   0.67393
H     2.12209  -0.89186   1.97706
H     2.38249  -2.48148   1.19137
H    -2.15562  -1.40153   1.34505
H    -2.40337  -2.53374  -0.02019
H    -2.97529  -0.85349  -0.15207
H    -2.41642   1.14632   1.28674
H    -0.85206   0.65751   2.01926
H    -1.19760   2.36448   1.72153
H    -2.59140   1.10555  -1.18585
H    -1.17229   1.58296  -2.17323
H    -1.92834   2.73843  -1.04810
H     1.00068   1.39940  -1.29610
H     2.69331   1.55651   0.31898
27

C     2.35468  -1.40917   1.02867
N     1.41754  -1.09899  -0.02338
O     0.20171  -1.35592   0.45206
C    -0.84574  -1.14593  -0.31542
C    -2.17396  -1.50342   0.25694
C    -0.64685  -1.09935  -1.72363
N    -0.55588  -1.08913  -2.88583
C    -0.73488   1.34921  -0.05921
C    -1.33897   1.36388   1.31854
C    -1.66233   1.69168  -1.19258
C     0.62646   1.36930  -0.27208
C     1.66236   1.45851   0.73979
O     1.50876   1.50426   1.96135
H     3.34296  -1.06785   0.67547
H     2.12173  -0.89337   1.97768
H     2.38394  -2.48356   1.19378
H    -2.15427  -1.40301   1.34568
H    -2.40764  -2.53478  -0.01897
H    -2.97332  -0.85252  -0.15099
H    -2.41642   1.14706   1.28600
H    -0.85134   0.65783   2.01704
H    -1.19937   2.36522   1.72574
H    -2.59047   1.10343  -1.18516
H    -1.17294   1.58472  -2.17323
H    -1.93433   2.73917  -1.05047
H     0.99926   1.40315  -1.29669
H     2.69318   1.55290   0.31851
27

C     2.35564  -1.41691   1.03280
N     1.42178  -1.11114  -0.02241
O     0.20429  -1.35806   0.45067
C    -0.84302  -1.17179  -0.31773
C    -2.17362  -1.50943   0.25927
C    -0.64469  -1.10388  -1.72348
N    -0.55548  -1.08542  -2.88634
C    -0.73419   1.37878  -0.05802
C    -1.33996   1.37102   1.31897
C    -1.66673   1.69709  -1.19362
C     0.62127   1.38659  -0.27386
C     1.66081   1.45715   0.73823
O     1.50836   1.50339   1.95947
H     3.34322  -1.06961   0.67700
H     2.12138  -0.89487   1.97830
H     2.38539  -2.48564   1.19618
H    -2.15293  -1.40449   1.34631
H    -2.41190  -2.53581  -0.01775
H    -2.97134  -0.85155  -0.14991
H    -2.41643   1.14781   1.28526
H    -0.85063   0.65815   2.01483
H    -1.20114   2.36597   1.72995
H    -2.58955   1.10131  -1.18448
H    -1.17359   1.58648  -2.17323
H    -1.94032   2.73991  -1.05284
H     0.99783   1.40690  -1.29728
H     2.69305   1.54929   0.31804
27

C     2.35660  -1.42465   1.03693
N     1.42603  -1.12330  -0.02143
O     0.20686  -1.36020   0.44928
C    -0.84030  -1.19766  -0.32005
C    -2.17327  -1.51544   0.26160
C    -0.64254  -1.10841  -1.72332
N    -0.55507  -1.08172  -2.88686
C    -0.73349   1.40835  -0.05684
C    -1.34095   1.37817   1.31940
C    -1.67112   1.70250  -1.19465
C     0.61609   1.40389  -0.27564
C     1.65926   1.45579   0.73667
O     1.50796   1.50251   1.95759
H     3.34348  -1.07137   0.67853
H     2.12103  -0.89637   1.97892
H     2.38684  -2.48772   1.19858
H    -2.15158  -1.40597   1.34693
H    -2.41617  -2.53684  -0.01653
H    -2.96936  -0.85058  -0.14884
H    -2.41643   1.14856   1.28453
H    -0.84991   0.65847   2.01261
H    -1.20290   2.36672   1.73417
H    -2.58862   1.09919  -1.18379
H    -1.17424   1.58823  -2.17323
H    -1.94631   2.74064  -1.05522
H     0.99640   1.41065  -1.29788
H     2.69292   1.54568   0.31758
27

C     2.35756  -1.43239   1.04106
N     1.43028  -1.13545  -0.02046
O     0.20944  -1.36234   0.44789
C    -0.83759  -1.22353  -0.32236
C    -2.17292  -1.52144   0.26393
C    -0.64039  -1.11295  -1.72317
N    -0.55467  -1.07801  -2.88737
C    -0.73279   1.43793  -0.05565
C    -1.34194   1.38531   1.31983
C    -1.67551   1.70791  -1.19569
C     0.61090   1.42119  -0.27742
C     1.65771   1.45442   0.73511
O     1.50756   1.50164   1.95571
H     3.34374  -1.07313   0.68007
H     2.12067  -0.89788   1.97954
H     2.38829  -2.48980   1.20099
H    -2.15024  -1.40746   1.34756
H    -2.42044  -2.53788  -0.01531
H    -2.96739  -0.84962  -0.14776
H    -2.41644   1.14931   1.28379
H    -0.84920   0.65880   2.01039
H    -1.20467   2.36747   1.73838
H    -2.58770   1.09706  -1.18311
H    -1.17489   1.58999  -2.17324
H    -1.95230   2.74138  -1.05759
H     0.99498   1.41440  -1.29847
H     2.69279   1.54206   0.31711
27

C     2.35852  -1.44013   1.04519
N     1.43453  -1.14760  -0.01949
O     0.21201  -1.36448   0.44650
C    -0.83487  -1.24939  -0.32468
C    -2.17257  -1.52745   0.26625
C    -0.63823  -1.11748  -1.72301
N    -0.55427  -1.07430  -2.88789
C    -0.73210   1.46750  -0.05446
C    -1.34293   1.39245   1.32026
C    -1.67990   1.71333  -1.19672
C     0.60572   1.43849  -0.27920
C     1.65616   1.45306   0.73354
O     1.50716   1.50076   1.95383
H     3.34400  -1.07489   0.68160
H     2.12032  -0.89938   1.98016
H     2.38974  -2.49187   1.20339
H    -2.14889  -1.40894   1.34819
H    -2.42470  -2.53891  -0.01409
H    -2.96541  -0.84865  -0.14668
H    -2.41644   1.15006   1.28305
H    -0.84849   0.65912   2.00818
H    -1.20644   2.36822   1.74259
H    -2.58678   1.09494  -1.18243
H    -1.17554   1.59175  -2.17324
H    -1.95829   2.74212  -1.05996
H     0.99355   1.41815  -1.29906
H     2.69267   1.53845   0.31665
27

C     2.35948  -1.44787   1.04933
N     1.43878  -1.15976  -0.01852
O     0.21459  -1.36662   0.44511
C    -0.83215  -1.27526  -0.32699
C    -2.17223  -1.53346   0.26858
C    -0.63608  -1.12201  -1.72286
N    -0.55386  -1.07059  -2.88840
C    -0.73140   1.49707  -0.05327
C    -1.34392   1.39959   1.32070
C    -1.68430   1.71874  -1.19776
C     0.60054   1.45578  -0.28097
C     1.65462   1.45169   0.73198
O     1.50677   1.49989   1.95195
H     3.34426  -1.07664   0.68313
H     2.11997  -0.90088   1.98078
H     2.39119  -2.49395   1.20580
H    -2.14755  -1.41042   1.34881
H    -2.42897  -2.53995  -0.01287
H    -2.96344  -0.84768  -0.14560
H    -2.41645   1.15081   1.28231
H    -0.84777   0.65944   2.00596
H    -1.20820   2.36897   1.74681
H    -2.58585   1.09282  -1.18174
H    -1.17619   1.59351  -2.17324
H    -1.96428   2.74285  -1.06233
H     0.99212   1.42190  -1.29965
H     2.69254   1.53484   0.31618
27

C     2.36044  -1.45561   1.05346
N     1.44302  -1.17191  -0.01755
O     0.21717  -1.36876   0.44372
C    -0.82944  -1.30112  -0.32931
C    -2.17188  -1.53946   0.27091
C    -0.63393  -1.12654  -1.72271
N    -0.55346  -1.06688  -2.88892
C    -0.73070   1.52665  -0.05208
C    -1.34491   1.40674   1.32113
C    -1.68869   1.72415  -1.19879
C     0.59535   1.47308  -0.28275
C     1.65307   1.45033   0.73042
O     1.50637   1.49902   1.95007
H     3.34452  -1.07840   0.68467
H     2.11961  -0.90239   1.98140
H     2.39263  -2.49603   1.20820
H    -2.14620  -1.41190   1.34944
H    -2.43323  -2.54098  -0.01165
H    -2.96146  -0.84671  -0.14452
H    -2.41645   1.15155   1.28157
H    -0.84706   0.65976   2.00374
H    -1.20997   2.36971   1.75102
H    -2.58493   1.09070  -1.18106
H    -1.17684   1.59526  -2.17324
H    -1.97027   2.74359  -1.06470
H     0.99070   1.42565  -1.30024
H     2.69241   1.53123   0.31572
