13

O 4.508172670 3.721807854 1.116127297
C 2.341845141 3.340611129 0.905047383
C 0.813101833 -2.184216074 -1.513349731
C -0.954635630 -1.408718884 0.620053761
C -1.870274304 1.315202026 0.445013892
N 0.104880858 3.170349337 0.693520039
H -0.086209514 -1.926749147 -3.354055453
H 1.339557138 -4.169755149 -1.341840040
H -2.631808572 -2.617195698 0.612061883
H -0.036586912 -1.690172784 2.451052943
H -2.809478544 1.634292751 -1.367935533
H -3.266445048 1.691572656 1.916352309
H 2.560793383 -1.087643644 -1.507769502

