13

O 4.523966189 2.158408084 -0.532608253
C 2.332969154 1.676770922 -0.373242566
C 1.335181666 -1.659744641 -0.399146138
C -1.438819538 -1.485841650 0.220111803
C -1.907709212 1.397871459 0.725316363
N 0.129335086 2.880227131 -0.359889383
H 1.891456944 -2.758905315 -2.046329769
H 2.558876161 -2.162351621 1.175997392
H -2.596474152 -2.110390370 -1.367997327
H -1.975300180 -2.596937702 1.865017275
H -3.701338549 2.039241142 -0.053848162
H -1.947088874 1.753734252 2.759365464
H 0.807859695 0.657302701 -1.938467490

