21

C -2.959525293 -2.094594905 -0.518212036
C -1.053132596 -0.242496875 -1.601253895
C -1.012066145 2.496825190 -0.983980374
C -2.377168506 3.231991278 1.398348993
C 1.545007047 0.002531175 -0.314809664
C 1.880713813 -1.312579880 2.205197438
C 3.714540195 -0.352013477 -2.159878253
H -2.356160402 -4.041352133 -0.849219658
H -4.778617933 -1.851764607 -1.461267198
H -3.274877535 -1.872179885 1.503240320
H -0.812823948 -0.604267745 -3.616968835
H 1.620681980 2.202731384 -0.008381446
H -4.285245138 3.679468805 0.723601777
H -1.628431615 4.971990508 2.208486620
H -2.600624633 1.824134052 2.903299572
H 3.733718137 -0.871733005 2.996132462
H 1.759236718 -3.361398891 1.976277527
H 0.458612550 -0.753535643 3.585431819
H 3.453861849 0.869721675 -3.799007078
H 5.532070145 0.095392543 -1.290489889
H 3.772509414 -2.311247300 -2.811775109

