9

N 5.975353596 0.288411815 -0.342612033
C 3.822926381 0.402472150 -0.107350995
C 1.145782504 0.478698033 0.151701979
C -0.591317641 -1.280640617 -0.615992003
N -2.799692163 -0.264381718 0.095311720
N -2.478488346 1.969605925 1.225929153
N -0.101203753 2.436770865 1.270545303
H -0.416103765 -3.073571417 -1.559443118
H -4.557256813 -0.957365056 -0.118089987

