9

N 5.043048293 1.390628120 1.711541070
C 3.244075547 1.255739639 0.459034337
C 1.263683651 -0.328537296 -1.557426459
C -0.861902687 -1.770651552 -0.961276165
N -2.402576876 -0.235132253 0.355708081
N -1.478078144 1.980789022 0.887248941
N 0.705738385 1.973748280 -0.399717837
H -1.387722628 -3.683250506 -1.413953652
H -4.192523117 -0.592853875 0.921360671

