12

C -4.075138471 -0.075627614 0.383385690
C -1.409428854 -0.858668213 0.772581853
N 0.431100235 0.506405386 0.081423744
C 2.859429580 -0.312541048 0.687156727
N 3.487345112 -1.069202166 2.865045052
H 5.359257696 -1.488145471 2.957095294
C 4.648952448 -0.092403469 -1.399899853
N 6.114942165 0.009185864 -2.993404775
H -1.067156821 -2.681487734 1.694430829
H -4.172542060 1.758280498 -0.539992736
H -5.040152892 0.007457086 2.207737022
H -5.067943318 -1.485381463 -0.752651837

