14

C -1.070168005 -1.313934587 -0.723402959
C -0.695170772 0.777840847 -2.657238352
O 1.545428645 2.075097902 -1.928190064
C 2.234168282 1.401636814 0.570120791
C 0.034245768 -0.111191731 1.654943508
O 0.952760114 -1.819575636 3.481732474
H -0.451531444 -2.614319478 4.302633623
H 0.060714992 -2.974787326 -1.198960210
H -3.041092694 -1.883988784 -0.524626504
H -0.454982008 0.071857006 -4.580548519
H -2.290600852 2.102013025 -2.653028723
H 2.639239524 3.112982033 1.649113722
H 3.928272396 0.209512443 0.560577390
H -1.354026865 1.174973009 2.504958533

