14

C -1.112147515 -1.641972353 -0.624714053
C -0.809193614 0.622566190 -2.358884291
O 1.480216048 1.904342967 -1.812686923
C 2.305265107 1.389322093 0.663767813
C 0.181001785 0.217323493 2.181241021
O 0.699718511 -1.359489950 4.049091903
H -0.318964284 -2.139778654 1.818463022
H 0.078606730 -3.222523599 -1.232825841
H -3.076125193 -2.224461325 -0.422001317
H -0.746189390 0.055149635 -4.340609899
H -2.415384967 1.908710842 -2.118371704
H 2.873543321 3.148515404 1.588594752
H 3.917474387 0.093330455 0.662156614
H -1.461402955 1.481871637 2.403546456

