13

O 5.713617438 -3.792259755 -1.045214285
C 4.558030467 -1.862894357 -1.211630521
N 1.980411228 -1.679155851 -0.561530871
C 0.734764635 0.465972617 -0.765648429
C -2.969410715 2.479917432 1.413800131
C -1.978407513 0.207265313 -0.058137179
H 5.304460816 -0.038705049 -1.867273155
H 1.209723070 -3.337037392 0.070473689
H -2.610772727 4.221452708 0.374114504
H -2.034997724 2.634014790 3.245333084
H -4.996977885 2.310366631 1.746706285
H -2.955488214 0.124139907 -1.888681730
H -2.423446217 -1.570624760 0.934126111

