13

O 5.727034758 -2.402878041 0.112662920
C 4.134682569 -1.015164389 -0.733430223
N 1.603934131 -1.259455276 -0.247695020
C -0.182409386 0.396249603 -1.258431498
C -2.122170885 1.671340662 1.340529761
C -2.839359441 -0.262864646 -0.598088038
H 4.536208250 0.590713193 -1.997292416
H 1.129883218 -2.752316426 0.855012349
H -0.145065015 2.473465454 -0.003669716
H -1.541469858 1.000700954 3.183690029
H -3.100156519 3.472594156 1.291009733
H -4.285899720 0.287957450 -1.940130468
H -3.146333167 -2.160274850 0.127710866

