9

C 5.338155067 -1.609520672 0.766926923
C 2.913100920 -1.525292045 -0.760043406
O 1.722252775 0.868658307 -0.679402821
H 1.324380124 1.255652920 1.045679252
H 3.309451454 -1.876194797 -2.753463584
H 1.610919315 -3.010254046 -0.124890110
H 4.963050460 -1.285217402 2.773279139
H 6.250425135 -3.452715144 0.591733778
H 6.654360406 -0.161720324 0.116674866

