8

C -4.594556870 1.501022764 0.810526495
C -4.608884320 3.555176302 -0.626233071
H -5.321694362 5.351000689 0.047473549
H -3.894977368 3.499257984 -2.549045031
C -3.611309483 -0.914704167 -0.172013360
O -3.544000254 -2.847047698 1.021138380
H -2.912395920 -0.840306406 -2.149976164
H -5.292965404 1.495486169 2.737387571

