11

N 0.027502564 3.185025121 -0.858485306
C 2.863249416 -1.767344380 0.585858468
O 1.013018019 -1.871754716 -1.131294503
C -1.411805374 -1.115228486 -0.290075303
C -1.729171251 1.704388249 -0.246873859
O 2.607885981 -1.280880178 2.774653027
H -0.522129646 5.019626460 -0.705605953
H 4.662022474 -2.247074487 -0.326976023
H -1.796320477 -1.867555007 1.595827055
H -2.762675829 -1.941746165 -1.612151341
H -3.610706660 2.324683121 0.363565505

