11

N 0.649309575 1.859511086 -1.196039260
C 2.151848127 -0.168579916 -0.630416641
O 0.998069341 -2.336768297 -0.808653965
C -1.613969333 -1.679366896 -0.192044835
C -1.080547552 0.953546222 0.934019606
O 0.621917900 0.745929930 2.810632656
H 1.475195235 3.491809439 -0.633962051
H 4.198600911 -0.205443635 -0.735375337
H -2.273054990 -3.047593428 1.188978337
H -2.740437589 -1.686279778 -1.915924910
H -2.767819135 2.119338904 1.240289446

