11

O 4.358563053 -2.339131041 -0.069697068
C 2.271514448 -0.949425636 -0.020038353
N 1.740507227 -3.507996776 -0.144803590
C -3.155878627 0.646760713 -0.683652437
C -1.250844209 2.057998696 0.144917314
C 1.436479169 1.392522589 0.075524624
H 1.470333782 -4.164201981 1.652878283
H -2.857215350 -1.171675570 -1.580264083
H -5.089080396 1.290158506 -0.505708304
H -1.667486320 3.894933205 0.959451748
H 2.842463373 2.876330138 0.152530510

