13

C -3.486051821 1.331885454 -0.364317843
C -1.352090841 -0.253096557 0.635638219
O -1.832914891 -2.775800374 0.176449435
C 2.917850766 -0.868979938 -0.052750193
O 0.931341297 0.536346132 -0.651353333
N 4.910061179 -0.009459043 -1.287599288
H -3.093576833 3.330837503 -0.063932685
H -5.228576520 0.829983588 0.610180623
H -3.722146002 0.977559992 -2.380079724
H -1.009765252 0.087521040 2.650533283
H -0.336996712 -3.679481070 0.707493657
H 6.579222231 -0.872066957 -1.050176157
H 4.816933472 1.483534634 -2.482036004

