13

C -3.255124776 0.466228883 -0.738164800
C -1.167715592 -0.265795875 1.017313102
O -0.582706556 -2.719276908 1.284572079
C 1.868773994 0.777474902 -1.038478356
O 1.315380152 2.448552079 0.620800505
N 4.334755357 0.173237109 -1.152434775
H -3.139467244 2.470956483 -1.162592166
H -5.043692519 0.087213431 0.232266162
H -3.185153187 -0.609129954 -2.488406233
H -1.294165500 0.529751649 2.899628685
H -0.390203614 -3.446174670 -0.377074779
H 4.988930732 -0.950193885 -2.529982910
H 5.587510533 1.066764948 -0.010784478

