14

C -3.173121452 0.269108112 -1.659953796
C 0.229024356 0.492716286 4.458786454
O -1.932793625 -1.594243729 -0.206801215
C 0.665474122 -1.700005615 -0.634123018
C 2.084609933 0.597184768 0.320099556
N 3.954319398 1.513475833 -0.779141168
O 1.113851084 1.755198241 2.530729427
H -2.544244994 2.178383132 -1.158739657
H -5.182010702 0.103033273 -1.256539428
H -2.850853927 -0.034847778 -3.683215301
H 0.458322666 -1.558706258 4.029546485
H 1.134854294 -1.868410486 -2.642426036
H 1.368414087 -3.388427682 0.320943923
H 4.673642683 3.023323788 0.172834389

