14

C 2.240406230 -2.528475268 0.176211802
C 0.879428895 -0.088694636 -0.217818091
C 2.076062739 2.336270657 -0.810950323
O 0.636253779 0.912730518 -2.619215815
C -2.385628659 -0.566487282 0.775189750
O -0.998773301 0.560857599 2.444335344
N -4.682668185 0.405584057 0.435478012
H 4.182846529 -2.329955929 -0.491504310
H 2.264995195 -2.999644178 2.175959407
H 1.307182312 -4.030935320 -0.869235146
H 1.197882178 4.075195257 -0.178852902
H 4.091070959 2.427441079 -1.193937129
H -5.251347871 1.928041985 1.447644067
H -5.876590707 -0.371203136 -0.813206580

