16

C 3.649714349 0.475836270 0.081703745
C 0.818332273 0.799892855 0.098380408
C -0.673048579 -0.444761878 -1.749195111
C -3.306203468 -0.026353062 -1.691895988
O -3.090344985 -0.705576378 2.504743066
C -0.663523509 -0.746604657 2.698716159
H 4.578516629 1.759932270 -1.239835534
H 4.420716013 0.851410304 1.958782462
H 4.172995292 -1.454901145 -0.427674823
H 0.197537456 2.722180321 0.488642981
H -1.955051878 0.803072055 -3.593478386
H -0.005441523 -2.165001376 -2.645695886
H -4.596840699 -1.411349345 -2.462360667
H -4.040986924 1.703633644 -0.904097645
H 0.185682543 0.461937863 4.177035413
H 0.289340729 -2.616478585 2.708703475

