13

N -3.804743304 -0.652724480 -0.878107920
C -2.077091317 0.185439883 0.754398643
O 0.169337697 2.085707278 -0.622723604
C -0.218665671 -1.807807215 1.568492015
O 2.084267779 -0.568892015 2.188347601
C 2.414963180 1.427055841 0.594837048
N 2.847750543 0.927013012 -1.987660860
H -5.232215490 0.481164334 -1.400242574
H -3.536690208 -2.210518246 -1.961216883
H 0.127925218 -3.247606255 0.100152008
H -0.880510575 -2.742716447 3.279171824
H 3.426965358 2.949414993 1.541429304
H 3.541082177 2.531813148 -2.796208282

