17

C 4.162471445 -0.419768322 -0.531807992
C 1.416151744 -0.280343970 0.330122927
C -0.014532977 2.039521313 -0.642268607
C -2.756850881 1.914447994 0.190518238
O -3.904954026 -0.326970297 -0.671138576
C -2.668941275 -2.539830594 0.191443562
C 0.081421911 -2.713588587 0.356472966
H 5.105728108 -2.033053895 0.331658198
H 5.184585057 1.306621422 -0.047818405
H 4.253021736 -0.650997856 -2.580235452
H 1.449132283 -0.178388748 2.440004262
H 0.867510846 3.778014035 0.044410850
H 0.066686092 2.089841583 -2.707190976
H -3.856774003 3.471851115 -0.590499730
H -3.394062014 -4.106187427 -0.943477099
H -3.234723463 -3.015765356 2.157947558
H -2.883489441 2.033026154 2.266088742

