14

N 3.448863769 -3.517092387 -0.524538877
C 1.913840258 -1.700865800 -0.560558153
O 2.591215838 0.671827230 -1.367078655
C 0.650882413 2.524825129 -1.301486205
C -1.743929786 1.259075365 -0.396080038
C -2.366546734 -1.125500357 -1.928988208
C -0.785764998 -2.156986708 0.125385936
H 5.140511088 -2.991316136 -1.274484438
H 0.444093312 3.314937499 -3.198730832
H 1.224204438 4.034191205 -0.015117166
H -3.372136258 2.442438286 0.009195124
H -1.590261131 -1.042446214 -3.833766568
H -4.347096648 -1.660736880 -1.904340699
H -1.295245139 0.460701000 1.581517576

