14

C 3.977367272 0.254692279 -1.224542189
C 1.868862584 0.786974725 0.196967156
O 1.089957992 2.480215423 1.523186795
C -0.541787900 -1.538840247 -0.502995168
C -3.049469812 -0.254790432 -0.019247390
O -3.435110077 1.764811354 -1.715145062
H 4.194876393 -1.609402224 -2.031879601
H 1.069633666 0.001857431 -2.023753514
H 5.573895983 1.535884470 -1.238703021
H -0.565154156 -2.561608629 -2.311960898
H -0.010011013 -2.900781436 0.946511867
H -3.124962462 0.394760424 1.938605781
H -4.581652970 -1.605279994 -0.313208008
H -2.522147066 3.187532069 -1.044164069

