14

O -1.803476757 3.645870835 0.191979110
C -1.426628650 1.221185789 1.143873994
C -2.078626039 -0.998881961 -0.643014274
C 0.638654128 -2.003052603 -0.617735785
C 2.768589689 0.994472852 -0.949858648
C 1.371595630 0.407973899 1.236935012
H -0.551477017 3.848947816 -1.126956618
H -2.374767571 1.109197614 2.968567972
H -2.684403940 -0.355130599 -2.500505337
H -3.461487083 -2.328855277 0.102325665
H 1.030847188 -3.679543638 0.504852126
H 1.550961763 -2.213805954 -2.459519029
H 4.680317479 0.201489856 -0.767221418
H 2.203213509 -0.159993492 3.035224168

