15

C 3.611393236 -0.204261234 1.708477730
C 1.084544361 0.810014096 1.151693757
C -1.018403266 -1.361164247 -1.840101463
C -1.516774085 -0.171689555 0.680677914
O -2.922019010 -1.276378831 2.600395882
C -1.886068522 2.566477074 -0.338259370
O 0.620256132 3.128760453 0.495205225
H 5.082572538 1.037629831 0.977878543
H 3.799334152 -2.074406564 0.855412234
H 3.865606885 -0.430091254 3.746559298
H -2.725079804 -1.720123583 -2.938876274
H 0.301098435 -2.944140106 -1.902267368
H -3.876045732 -2.630615399 1.865729324
H -1.094622006 1.138878088 -2.532237977
H -3.280269793 3.947735970 0.266540427

