15

C -4.969960905 -1.140894425 0.039484523
N -2.742912280 -0.054138953 0.051717798
C -0.463778400 -1.510879500 -0.181398269
C 1.489326758 0.043845690 -0.116142171
C 4.226593122 -0.563891271 -0.286067723
C 0.420507111 2.651948102 0.179252012
N -2.294247796 2.357599107 0.263565337
H 0.991077467 3.878795870 -1.396291743
H -6.618649703 0.037847492 0.216583250
H -5.052379874 -3.163656702 -0.151121663
H -0.587621658 -3.536974819 -0.367952580
H 5.079722699 0.388470905 -1.906483951
H 4.548456151 -2.588192068 -0.481295575
H 5.218916316 0.095554512 1.399429935
H 1.130985684 3.554107322 1.909924009

