12

C 3.355705732 0.505246965 -0.282580196
C 0.100883105 1.327182946 -0.012878502
O -0.206250057 3.385789548 0.867018516
C -1.350536352 -0.814961531 -0.526336366
C -4.055042065 -0.932238407 0.074017776
O -5.379355821 -2.699032461 -0.491767984
H 4.047059597 -1.392047474 -0.738035732
H 4.307530092 1.307993496 1.348174100
H 3.669907811 1.689329116 -1.935831455
H -0.568801781 -2.280740865 -1.722698089
H 1.271923613 -0.797009530 0.790161843
H -4.811021426 0.700023324 1.136504270

