13

C 3.356997776 0.576573469 -1.212323049
O 2.206299262 0.966345658 0.880635504
C -0.970796303 -1.005206213 1.611303553
C -3.014223094 0.957080066 1.692692848
O -3.280886902 0.695740562 -1.053225609
C -1.491473770 -1.180214297 -0.940140410
O -0.262067975 -2.028128438 -2.779300071
H 1.727350633 -0.981531289 -2.575447906
H 5.011049447 -0.675792556 -1.194345045
H 3.338787298 2.113196217 -2.604406977
H -0.098917733 -2.216985833 2.986895727
H -2.394093782 2.863096858 2.151396633
H -4.751891518 0.451608507 2.675007730

