14

C 2.108170263 1.353693914 2.800204203
C 0.499671631 0.717111739 0.581522718
C -1.769263586 -1.521406711 -2.535840267
C -0.583040376 -1.878331076 0.088339689
C -0.352626466 2.248109679 -1.207948522
O -1.855913671 1.155592545 -2.991391329
H 1.134091411 0.925095450 4.573258617
H 3.863197314 0.261698307 2.797056278
H 2.605102812 3.353996059 2.816335680
H -3.685549075 -2.257937125 -2.694000952
H -0.604875500 -2.376189420 -4.014301403
H 0.854823395 -3.360054332 0.085222642
H -1.979650103 -2.383971690 1.530443419
H -0.055919868 4.255631655 -1.449158475

