11

C -3.550107112 -0.066439596 1.747057490
C 0.672020890 -0.807606622 0.190073605
N -1.331917296 0.635325224 0.307931401
O 2.366022391 0.474877404 -1.318403865
C 4.657954914 -0.622086823 -1.770326312
O 5.388343642 -2.597850288 -1.021451451
H -3.196682935 -1.905827612 2.591246716
H -5.203888911 -0.181941376 0.520852059
H -3.913976050 1.312742396 3.236126811
H -1.370011586 2.316605770 -0.619879888
H 5.740762220 0.673026318 -2.980813303

