14

O 4.178544681 -0.538686746 0.203891887
C 2.285648106 0.525145725 -1.310015616
C -0.316993602 0.167095159 -0.164478965
C -0.973075388 -2.164783415 1.264762326
N -0.400735039 0.172096319 2.580812952
C -2.465644727 1.399277831 -1.503649219
O -4.418829103 1.962412210 -0.486220730
H 3.783372070 -0.079941613 1.924303917
H 2.614388586 2.557532018 -1.597394091
H 2.379753047 -0.392085290 -3.158382118
H 0.445881144 -3.630799438 1.425420038
H -2.924744052 -2.784213132 1.201244851
H -2.016551635 1.029835164 3.161420117
H -2.171014069 1.777115209 -3.541715330

