15

O 4.730583533 0.755736286 2.069967579
C 3.184755305 -0.395828799 0.243800956
C 0.414345640 -0.309252263 0.932787731
O -0.339379978 2.390049957 1.004749012
C -2.475000648 2.932154348 -0.055736811
C -3.542032709 0.484083715 -1.045056001
C -1.401857893 -1.470335974 -0.951970455
H 4.220347464 2.490272130 2.229471537
H 3.435563196 0.469334365 -1.627056064
H 3.782165556 -2.367130035 0.111674065
H 0.148474138 -1.001787490 2.859092226
H -2.030704437 -3.337537433 -0.361659754
H -4.391926924 0.755341749 -2.901295706
H -5.102750958 0.026576881 0.241215754
H -0.502802454 -1.653758480 -2.801959078

