14

C -2.143076509 2.794388023 -0.076474590
C -0.396501769 0.789702488 0.996708908
C -1.696778794 -1.760115044 1.162352436
O -1.029263239 -3.393733730 2.606285610
H -3.281135325 -2.105812074 -0.158103861
N 1.842324234 0.557415463 -0.601609770
C 3.722813812 -0.696046112 0.180937554
O 3.995455145 -2.051506069 2.291818648
H 2.359371330 -2.454169082 3.038534024
H 5.444674110 -0.706310424 -0.940074742
H 0.149799705 1.287035791 2.937578845
H -1.169707533 4.607154030 -0.135985637
H -3.846300290 2.997651160 1.072315754
H -2.690074933 2.306600426 -2.004719871

