15

C 4.404219516 -0.828754869 -0.170497611
C 1.675437966 -0.208642602 0.067735589
C -0.413093866 -1.558448537 -0.247269378
C -2.626880866 0.106093325 0.406634348
N -4.701067201 0.130343444 -1.386199471
C -1.536352026 2.715446358 0.884581536
N 0.909669842 2.297667993 0.763927304
H 5.377122940 -0.623080932 1.640016429
H 4.644859093 -2.768557659 -0.811192000
H 5.331874714 0.420377816 -1.529149240
H -0.505859879 -3.524285460 -0.785945580
H -5.733023791 1.717041515 -1.119554277
H -5.849235920 -1.376641010 -1.149791615
H -3.222112526 -0.421040240 2.349581377
H 2.189271450 3.675737409 1.074147749

