10

C -2.631846915 -2.126975287 0.108968789
C -0.672474254 -1.106627455 -1.746966198
C -0.695526286 1.732574705 -1.854231342
O 1.131663397 3.057169463 -1.637308225
H -2.591800689 2.590822340 -2.156900064
H -1.109030071 -1.781415168 -3.656506705
H 1.236015604 -1.728319363 -1.279097372
H -4.527780261 -1.456083906 -0.356481016
H -2.671749862 -4.186143459 0.069054240
H -2.205939780 -1.539311904 2.039414600

