14

C -3.427412051 -0.827817432 -0.918480615
C -0.689365457 0.577526098 -0.935105764
O -0.749945863 2.728038302 0.290512321
C 0.527113856 -1.451484104 0.425740102
C 3.960144233 1.161368058 1.377659686
O 5.427611622 0.996172434 -0.347939057
H -4.565214356 0.479279143 -2.023505185
H -3.445120391 -2.672688205 -1.826005580
H -4.176906666 -0.921478023 0.992746228
H -0.128640857 0.629960443 -2.943950794
H 1.884237510 2.095352553 1.125596526
H 1.197006895 -3.148360881 -0.518415768
H 0.179098075 -1.582615980 2.444657183
H 4.620498104 0.924457214 3.361648486

