14

O 4.027727585 -0.383788031 0.015073627
C 2.129756737 1.015595284 -1.146893663
C -0.450108537 0.001791933 -0.692390663
C -1.039641804 -1.374554960 1.689533792
N 0.437122112 -0.739555355 3.682935905
C -2.567789678 0.397882006 -2.353589675
O -4.756679196 0.374949744 -1.644723321
H 3.472166038 -0.803887660 1.731270529
H 2.260341083 3.041830708 -0.685904934
H 2.439998933 0.887499878 -3.193931872
H -1.496802496 -3.379857320 1.486301628
H -2.956511161 -0.348289715 1.683086633
H 0.508122694 1.183089194 3.793956029
H -2.108145016 0.561039334 -4.382392934

