16

C -4.500548797 1.376256753 0.278659921
C -2.126799070 -0.089570751 -0.426291714
C 0.165139821 1.626786362 -0.619740407
C 5.277550209 -2.771384311 -0.059016090
C 3.559775820 -1.022174819 0.439127130
O 2.370482580 0.312830989 -1.383105725
H -6.137896612 0.130436135 0.397006571
H -4.294313858 2.310700697 2.108758422
H -4.924034211 2.832125173 -1.123058170
H -1.755139603 -1.562630066 0.976458905
H -2.377763505 -1.049944118 -2.237693849
H -0.141468394 3.080348050 -2.051354362
H 0.510757161 2.588264464 1.186969841
H 5.767744410 -3.263463854 -1.982363938
H 6.233043812 -3.714218185 1.478367632
H 3.048814890 -0.518221012 2.369358646

