16

C -4.555287870 0.748350991 -0.176629564
C -2.007909521 -0.642204186 -0.228165835
C 0.045853411 1.276462867 -0.031713592
C 3.455524675 -1.892160130 0.673031572
C 4.881606684 0.125267054 -0.177521741
O 3.933719909 1.943851604 -1.357703649
H -6.097349420 -0.613289732 -0.316645098
H -4.800295945 1.806054135 1.577013811
H -4.728042116 2.067825706 -1.752440923
H -1.886858919 -2.007902586 1.307596899
H -1.857978896 -1.680225247 -2.006310038
H 0.007246382 2.709826709 -1.481791324
H 0.598040871 1.928120597 1.821092670
H 2.115472751 -2.636254512 -0.678119281
H 4.202266545 -3.232247165 2.031895266
H 6.933750480 0.183589935 0.160975318

