11

C -2.250707599 0.531541673 -1.489333845
C -1.203247224 -1.770689045 -0.734217710
O -1.025734969 -3.923212975 -0.484233532
C 2.029162874 -0.686255743 2.593902462
O 1.713077833 -2.094616373 4.241502815
C 2.585295005 0.991303120 0.751310831
O 1.342963955 3.083111246 0.428481963
H -4.129767618 0.760082996 -0.683019077
H -2.223001701 0.703863757 -3.540794731
H -0.760249878 2.183833971 -0.646545019
H 4.081539672 0.350211491 -0.528210804

