11

C -2.702895817 -0.236541328 0.154208568
C -0.041464106 0.544721360 0.376922902
O 0.582270577 1.927707598 2.276634982
C 2.058050040 -0.348669739 -1.240242298
O 3.362681505 -1.343695109 0.758073877
H -3.887717871 0.630401958 1.591821383
H -2.735666862 -2.291157697 0.380020447
H -3.399170907 0.167702781 -1.744879486
H 2.990996300 1.209548157 -2.287318719
H 1.356920641 -1.722461231 -2.643479767
H 2.436919549 1.473764618 2.367417538

