11

N -3.511810735 -0.075200498 0.145556041
C -0.794082174 -0.386792753 -0.034487426
N 0.649755362 -2.358202289 -0.478584763
N 2.926438305 -1.253542814 -0.367592568
C 2.818397635 1.282525751 0.125616407
C 0.304618579 1.968366321 0.369746025
H -4.491979532 -0.373386072 -1.474848054
H -4.355931061 -0.968015306 1.617163291
H 4.468197139 -2.326429813 -0.641898939
H 4.560467307 2.340255106 0.248816497
H -2.698993079 2.097226557 0.527062682

