16

C 3.451385193 0.332944345 1.166501707
C 1.446049800 -0.174739554 -0.789364454
N -0.529043531 -2.207250947 -0.326325466
C -1.815054296 -0.728169131 1.704483151
C -1.002996027 1.375889957 -1.004333991
O -1.618503201 3.748813175 -0.741955137
C -2.098516049 -0.949345682 -2.342177487
H 4.511913232 -1.390975149 1.563206092
H 4.768506311 1.737136730 0.431458905
H 2.697767970 1.065242188 2.936023789
H 2.308792546 -0.475082382 -2.642622322
H -0.780402976 -0.697613432 3.478504595
H -3.778950659 -1.292450064 1.957460050
H -2.107929512 2.190521221 1.062899551
H -1.383807550 -1.273009544 -4.247237284
H -4.117059078 -1.322602194 -2.207549713

