9

O 3.827787721 -1.110790899 -1.323640182
C 1.690172879 -0.758207178 -0.698337669
C 0.642372901 1.606548529 0.580465435
O -1.977579379 1.033516861 0.901503202
C -2.261890110 -1.281814137 -0.061969071
N -0.366654697 -2.441359630 -0.992123128
H 1.507167266 1.931091984 2.420218300
H 0.841843263 3.278016200 -0.604263814
H -4.170207909 -2.020923876 0.029816855

