9

O 3.735854000 -1.037984344 -0.250250251
C 1.374259161 -0.711418183 -0.559992445
C 0.494006232 1.673309927 0.335688133
O -2.113215719 1.191704229 0.791053226
C -2.465422722 -1.142630177 -0.030715382
N -0.546511044 -2.390848026 -0.918346614
H 3.001384522 0.898352027 1.192213491
H 0.805272792 3.414705949 -0.694506703
H -4.365424686 -1.882407385 0.141689794

