11

C -2.905959456 -0.676925258 -0.186296647
N -0.310340670 0.178338122 -0.605216029
N 1.240237139 -1.631917196 -0.939024357
C 3.701009755 -0.854170268 -0.667066765
O 4.260355517 1.206465106 0.207628953
C 0.573478135 2.367882562 1.807540046
O 0.230877913 4.492177594 1.861948719
H -3.642980386 -1.206825874 -2.035345925
H -2.979999304 -2.311403921 1.063626000
H -4.015916533 0.883863270 0.561340311
H 5.100331069 -2.334227163 -1.026148743

