15

C -1.141889253 2.590866919 -0.541874903
C -0.846864813 0.037795883 0.760387299
C -1.709519366 -2.126199214 -0.934794167
C 1.878411919 -0.368499467 1.691012068
C 3.719415140 -0.409320083 -0.369762522
N 5.135308955 -0.436559257 -2.011501191
H -0.562635926 4.141559339 0.690833038
H -3.107563168 2.909728383 -1.077642287
H 0.002794130 2.679086553 -2.258608790
H -2.016252926 0.036666507 2.467150801
H -0.576417528 -2.208640992 -2.659414088
H -3.679952518 -1.871978138 -1.487487714
H -1.550274526 -3.948550385 0.020993780
H 2.030555375 -2.157188020 2.710579935
H 2.424884507 1.131231991 3.000128761

