13

C -2.442286881 -3.310068090 -0.189575019
N -2.012931052 -0.917007195 0.466358802
C -0.219307611 0.662615628 -0.203511957
C 0.833027823 2.989406549 1.019382976
O 3.241572548 2.434718433 -0.128332038
C 2.319639971 0.148307124 -1.292087180
H -4.119206298 -4.208224908 0.524514537
H -1.231893715 -4.188611819 -1.570512510
H -3.299203091 -0.181205101 1.677293450
H 0.941825592 2.987475589 3.093576303
H 0.111575081 4.822814489 0.381724772
H 3.256211671 -1.559828755 -0.554785134
H 2.540158046 0.199559425 -3.350892978

