13

C -2.509609244 -2.640856128 -0.801844545
N -1.892443570 -1.156451634 1.218360800
C -0.132065381 0.265698951 0.136816285
C 0.578395278 2.992296829 0.495588915
O 3.166426682 2.365359627 -0.032358669
C 2.575059303 -0.241166583 -0.587880815
H -2.528693096 -4.686290242 -0.632987085
H -3.336869320 -1.754706761 -2.438246477
H -2.651481623 -1.049799554 2.974424819
H 0.293743300 3.733920186 2.414893071
H -0.169434810 4.358691743 -0.869394223
H 3.575516615 -1.583711114 0.636872928
H 2.981226907 -0.670599683 -2.566151947

