9

C -2.142485894 -2.166526726 -0.436246148
C -0.364372078 -1.683778386 1.706432234
C 2.119859485 -1.961397522 1.603830310
H 3.309564592 -1.578830216 3.225004393
H 3.056659408 -2.584708226 -0.110992195
H -1.216837964 -1.054841740 3.467932560
H -3.218756656 -0.465169710 -0.899037941
H -3.516618841 -3.627052017 0.059196597
H -1.134509343 -2.774896272 -2.128530475

