15

C -1.963314176 2.196323209 -1.167276212
C -0.207150379 0.304970314 0.062483870
C -1.596056581 -1.482910042 1.819599503
C 1.772185859 -0.897156284 -1.669144479
C 3.615092016 -1.116970096 0.229249517
O 5.443056996 -1.836075666 1.183021013
O 1.861989273 1.563610361 1.391813167
H -0.912452823 3.493746635 -2.375958666
H -3.376766352 1.230911926 -2.319838978
H -2.946118404 3.289781465 0.278706352
H -0.277190262 -2.708588466 2.825155183
H -2.679963518 -0.415721341 3.210843504
H -2.904173287 -2.670772023 0.754516392
H 1.602958314 -2.192688472 -3.247425087
H 2.618255022 1.530900884 -0.960791677

