15

C 5.241188137 -1.232739707 -2.516547449
C 3.774092381 -0.103135828 -0.432513637
C 1.229826241 0.497673926 -1.121450599
C -0.425505058 0.900000189 0.765903390
C -3.170283140 1.111197228 0.431706043
C -4.888625921 -0.101582700 2.245204037
O -4.482114727 2.525266777 2.301892816
H 6.168718687 0.453762511 -3.322830526
H 6.782712513 -2.436411912 -1.869282028
H 4.182045947 -2.143296473 -4.054009235
H 0.535938574 0.430674877 -3.074178718
H 0.296260547 1.001201524 2.685013604
H -3.843221549 1.393706862 -1.488988119
H -6.736409215 -0.708361438 1.589498929
H -4.103100729 -1.153027790 3.823826023

