15

C 5.112990382 -1.104157923 -3.083522393
C 3.465668253 -1.260326987 -0.845698323
C 1.798374893 0.179732815 0.158344763
C -0.474753192 0.962731727 1.219199290
C -2.948614279 -0.005101335 0.399815725
C -5.136753103 0.104470561 2.101265204
O -4.931887440 1.786544225 0.043578596
H 7.075208763 -1.505577401 -2.592308534
H 4.542577364 -2.611964898 -4.378628146
H 5.019622662 0.687293751 -4.120574630
H 1.838273814 2.341922506 -0.247974586
H -0.461078907 2.482517185 2.593603790
H -2.888048027 -1.491598814 -1.013318901
H -6.597251163 -1.329844418 1.939555897
H -4.921177625 0.950555258 3.960365709

