12

N -4.150819054 0.107908653 -0.417954374
C -1.769644026 -0.091543360 -0.194056524
C -0.088986976 2.206590790 0.221415657
N 2.394287573 1.124616854 0.734305941
C 2.284912020 -1.417650769 0.240987437
C -0.066225754 -2.262013642 -0.229410881
H -0.772836909 3.351704464 1.791248169
H -4.954744452 -1.619538847 -0.673841905
H -0.072883260 3.370309082 -1.485999461
H 3.954222682 2.092431207 0.252995683
H 4.006427519 -2.519631652 0.321762552
H -0.616303146 -4.203418636 -0.516675198

