11

O 1.452852568 -1.683670445 3.866535213
C 0.802822497 -1.266575046 1.793930900
C 1.590263626 -0.923589754 -0.949039603
C -0.594838787 0.768947777 -1.600230570
N -2.638973620 0.208666185 0.245682500
C -1.036531730 2.198731249 0.690106683
H 3.410978464 0.029268418 -1.102834585
H 1.705540453 -2.788765199 -1.847592904
H -1.192880942 1.135362007 -3.523403694
H -1.801780255 -1.682508717 1.185557139
H -1.612197280 4.070906977 1.247077154

