12

C -2.915835921 -0.983721633 -1.574968560
C -0.441476343 -0.123119720 -0.536990434
C 0.297061186 2.314814177 0.053684568
O 2.412760761 2.390263874 1.252105091
C 3.327592466 -0.378129473 1.425533856
O 5.551252812 -0.778886659 1.663406042
N 1.332002920 -1.733255630 0.273955883
H -2.630549353 -2.362841661 -3.076832480
H -4.059234063 -1.874671867 -0.106820246
H -3.972466457 0.609510261 -2.342856220
H -0.764046527 4.053352876 -0.154922110
H 1.795327898 -1.041727079 3.094049491

