16

C -0.299403124 2.833377362 0.495187178
C 0.166582438 0.008120059 0.285213605
C 0.975135794 -0.916947593 -2.302152162
C 3.546125894 -0.866525411 -1.120908398
C 3.375733787 -0.554827237 1.238089692
C -1.440981101 -1.899737440 1.904655263
N -3.714872219 -1.121673095 0.896166181
H 1.375118250 3.848123385 -0.147159172
H -0.663424053 3.361176376 2.454548860
H -1.902423175 3.412689233 -0.652009068
H 0.666417285 0.370173348 -3.873678435
H 0.346702553 -2.814391038 -2.772043164
H 4.087393004 -0.436679481 3.133992008
H -0.851816274 -3.815390116 1.385356219
H -1.070642723 -1.590650150 3.924815860
H -4.504240282 0.186221285 2.061177461

