10

O -3.404740761 0.607013593 -0.036120811
C -1.127095702 -0.718244762 0.347739710
C 0.977147540 1.057825466 -0.474788738
C 5.318450440 -1.094089764 0.110671470
N 3.377363430 -0.100393817 -0.163022685
H -4.796218181 -0.450948444 0.432360456
H -0.855617515 -1.227265813 2.337206695
H -1.043751731 -2.451847856 -0.782648084
H 0.914274689 2.786594679 0.646095378
H 0.727374105 1.566979252 -2.456531353

