10

O -3.414601333 0.537228180 -0.438375340
C -1.177536291 -0.685798561 0.331653303
C 0.999582312 0.996724838 -0.515821892
C 3.444128682 -0.065400870 0.189030627
N 5.344353180 -0.935474525 0.762664891
H -4.838952372 -0.468558878 0.048698734
H -1.107653595 -0.926859566 2.387831626
H -0.991130493 -2.555010197 -0.541015834
H 0.807187916 2.864372934 0.338696577
H 0.934621975 1.238776683 -2.563362692

