11

C -3.058097432 -0.331650053 -1.142506267
C -0.346709375 -0.206427861 1.458283679
C 2.264957684 -0.335958836 0.183295781
O 1.454016772 0.858909058 -2.089693523
C -1.016882150 1.358658300 -1.064040473
H -1.283456063 -2.029614424 1.718591109
H -2.452618448 -2.069236293 -2.119456369
H -0.589246955 0.916681085 3.153141642
H 2.977168267 -2.243805072 -0.146827997
H 3.699959899 0.784357133 1.159408828
H -1.327653564 3.366653804 -0.748963942

