14

C -4.338264352 -0.459146454 0.984566133
N -1.822889611 -0.113690667 1.202665434
C -0.225467759 1.149385513 -0.212908998
O -1.251661610 2.164517115 -2.353888876
N 2.392158248 0.987040975 -0.007528669
C 3.617758929 -1.402212273 -0.628965124
H -5.289904501 -1.300857172 2.571976650
H 0.058850380 3.144222608 -3.135577035
H -5.316408250 0.512969558 -0.507455564
H -0.994368369 -0.979637254 2.685907104
H 3.142137484 1.862942488 1.506927592
H 5.659338060 -1.127261752 -0.726522405
H 3.226363409 -2.917322247 0.732642226
H 2.968774444 -2.028880473 -2.481432955

