14

C -4.273235248 -0.609662913 0.463958075
N -1.688154765 -0.432918189 0.600503808
C -0.156118609 1.325886027 -0.187690717
O -1.153023255 3.498525847 -1.077997027
N 2.410713375 0.927804542 -0.669150603
C 3.507390344 -1.488760899 -0.024664743
H -5.073848410 -1.984394241 1.741184826
H -1.144366892 3.481504668 -2.904148437
H -5.264364305 1.144063780 0.153517514
H -0.823263211 -1.973618286 1.320132284
H 3.453629393 2.401031061 -0.045835175
H 5.512989202 -1.453928805 -0.482424478
H 3.324791287 -1.989056725 1.987204321
H 2.635252806 -2.979952892 -1.154068783

