13

C -2.922505350 -0.857335200 0.218409783
N -0.903349049 -0.229907066 -1.490987922
C 1.988374307 2.910112243 -0.173147687
C 1.950580049 0.579867545 1.020619688
O 1.879875681 -0.067674570 3.216167391
C 1.276959979 -1.582295747 -1.144399452
H -3.777186335 -2.616922746 -0.459680377
H -2.250250531 -1.196588887 2.156564524
H -4.347601659 0.624513912 0.197453514
H 2.115871861 3.012584021 -2.202089595
H 2.404536162 4.594513898 0.923492074
H 1.209067599 -3.351290822 -0.094364230
H 2.551753141 -1.585445164 -2.753323688

