16

C 3.071186413 2.304735587 -0.504291671
O 1.465456796 0.457490506 0.580467230
C 0.274160124 -1.066590904 -1.152165886
C -0.515601890 -3.556105783 -0.046954233
C -3.357150295 1.065763809 -1.472710037
O -2.668675202 3.307842087 -0.482804843
H 4.638347683 1.398010845 -1.508922746
H 2.031190361 3.530935425 -1.799181900
H 3.821244242 3.430656522 1.044951254
H 1.416445747 -1.294921240 -2.872454895
H 1.107476055 -4.812357897 0.183906427
H -1.880728250 -4.485967198 -1.283143314
H -1.384501760 -3.283241519 1.801205589
H -1.600355935 0.020350763 -2.554946551
H -4.030351829 -0.241725583 -0.010673060
H -2.292166868 3.183966345 1.298878761

