15

C -0.489891826 2.024497442 -0.360702797
C -0.697583725 -0.870421667 -0.277086252
C -2.917840032 -2.349994301 0.637689063
N 1.021042968 -1.957489285 -2.084022795
C 2.075601079 -1.126649934 0.330067275
C 2.308566931 1.684601021 0.330457144
N 4.108742261 3.094371765 0.971214140
H 3.620477678 4.950557915 0.819345922
H -1.501989189 2.982981197 1.160940489
H -0.957545884 2.916314569 -2.163315249
H -4.497801778 -2.170721370 -0.679430411
H -2.428791402 -4.345075454 0.783331598
H -3.543649597 -1.678149440 2.484744719
H 1.466996620 -0.789492539 -3.536550992
H 3.098592506 -2.469911124 1.480872293

