15

C 2.252102142 -0.913293430 2.836618942
H 3.577542572 -1.268741617 4.351323531
H 0.287748427 -1.232758963 3.306740320
C 2.868647589 1.441410239 1.247619014
H 4.656382246 2.298073755 1.761703283
C 3.047260968 -1.330392873 0.215780910
H 4.958480856 -1.998962442 -0.084773076
C 1.133458429 -2.037858297 -1.683427615
H 1.483577928 -3.721129178 -2.797258120
C -0.952070572 -0.684486562 -2.008838359
H -2.350187941 -1.249061064 -3.396671064
C -1.350384116 1.777400445 -0.646813493
H -2.433868472 3.094073207 -1.812324530
H -2.569874008 1.522786835 1.030438365
C 0.872105866 3.071184768 0.473525286

