15

C -2.583764799 -1.501611868 -1.031048652
O -1.210082137 -3.513015265 -0.618832526
C 0.211620545 -2.048939273 1.409683419
C 2.870470645 -1.505884066 0.742956975
C 3.082940244 0.798347796 -0.235241007
C 0.627344627 2.196179004 -0.436642197
C -1.364547481 0.303615059 0.559767586
H -4.437161128 2.837351948 -1.254489793
H -4.346096870 -1.530418513 -2.069880557
H -0.180676299 -3.008947848 3.183129404
H 4.396185100 -2.831437067 1.047874414
H 4.853613907 1.625867823 -0.846424847
H 0.598409651 3.909616358 0.716072976
H 0.179926512 2.781254048 -2.355884464
H -2.967434496 1.459500247 1.395559228

