10

N 3.421556867 -0.640949483 -0.129386090
C 1.057127780 0.058264886 0.348399300
N -0.411417660 -1.792832723 -0.561535104
N -2.703519143 -0.739171627 -1.039238007
N -2.891557192 1.489334638 0.075436261
C -0.637757301 2.080878347 0.938408665
H 1.723124109 -2.595155274 -1.214019570
H 4.816375342 -0.101471622 1.052754745
H -4.255536923 -1.828682831 -1.174426104
H -0.288295484 3.886298895 1.808980811

