12

C -3.255238084 0.384487324 -1.284954484
C -1.238624012 0.133836943 -2.742968083
C 1.244320176 -0.832470637 -1.868735519
H 2.143549735 -2.162213879 -3.150846154
C 3.000741221 0.757499835 -0.367851669
H 2.410126407 2.645991043 0.160058801
H 5.016019181 0.513858410 -0.653309936
N 1.570018139 -1.271024935 0.826745145
H 2.674663668 -2.799402279 1.137525459
H -1.324572006 0.671602372 -4.723695897
H -5.009961305 1.134404407 -2.023832618
H -3.188158211 -0.152441655 0.690449763

