15

C -3.694897795 -0.298069752 -0.665745884
C -1.305268303 0.937206686 -0.782311278
O -1.266271272 1.928741618 2.427435240
C 1.091282897 -0.563108792 -1.041672503
C 3.573028488 0.328209504 -0.144509927
N 2.199100993 -1.627101701 1.245437344
H -3.113261014 0.788834272 1.870731448
H -5.290841673 0.615779616 -1.563849261
H -3.703197699 -2.348428172 -0.700407845
H -1.213220877 2.801981717 -1.634593086
H -0.154667923 0.692744779 3.222036635
H 1.081052657 -1.751824627 -2.714702505
H 3.697941294 2.129582599 0.820951547
H 5.236985234 -0.217189304 -1.205715830
H 2.922020238 -3.369520027 0.946375070

