18

C -3.353078654 0.965091069 -0.823822891
C -2.449580657 -1.680331506 -0.206295751
C 0.389059876 -1.838421610 -0.631586854
C 1.750012285 0.071650572 1.057611379
C 4.557290054 0.270619628 0.424435965
C 0.613874168 2.688932045 1.203548163
N -1.681175477 2.879768211 0.316263733
H -2.461291913 4.618700597 0.402182758
H -3.393291043 1.259353797 -2.871426147
H -5.264106017 1.291616978 -0.116333978
H -2.880221311 -2.112885753 1.770103173
H -3.477259304 -3.043867644 -1.364431187
H 1.081703781 -3.749245960 -0.262510152
H 0.815504903 -1.430446596 -2.617900358
H 1.612324591 -0.585383523 3.027060646
H 5.472114653 -1.579363572 0.505247816
H 4.820409869 1.024716180 -1.480430740
H 5.504684385 1.544936560 1.735505783

