15

O -0.329059427 2.514869032 -4.368310714
C 0.217964999 1.860427678 -2.049619801
C 0.771981600 -0.754655306 2.654443107
C 3.135010382 -1.361250664 1.165832895
O 3.334675008 -3.194506916 -0.162524440
C -1.635037644 -1.182996049 1.125993992
C -2.121341390 0.930028089 -0.790639830
H 1.176027647 3.177067635 -5.149955296
H 0.889078498 1.181132912 3.362709908
H 0.792957031 -2.009880845 4.301514035
H 4.754804020 -0.068006557 1.444000298
H -3.260031015 -1.342047173 2.385910379
H -1.463258685 -2.986010296 0.138068361
H -3.626865406 0.442676962 -2.126040893
H -2.746985981 2.629750661 0.237717455

