17

C -0.575287982 -2.463409011 0.560880692
H -1.342333712 -3.066314812 2.360188240
H -0.221743922 -3.964021271 -0.785719040
C -1.417716872 0.064220339 -0.472395985
H -1.719908154 0.246365768 -2.487014563
C -2.814792926 1.812747545 1.328312474
H -4.192343253 0.787675171 2.473481346
H -3.816261204 3.305749424 0.321116001
C -0.663947942 2.879128047 2.950053192
H -1.182192141 3.201246851 4.918427941
H 0.031402448 4.664341017 2.154093632
O 1.298811694 1.044471603 2.901867594
C 1.184207156 -0.250903322 0.578946870
C 3.584529002 -0.172373787 -0.919423210
H 5.120669946 -1.060511882 0.132702861
H 3.361771621 -1.177378423 -2.705945703
H 4.121664095 1.777798610 -1.327002364

