19

C -1.520999758 -3.088609744 -0.773258904
C -1.354191952 -0.393367185 -0.373223177
C -2.224274129 1.000482067 2.037732404
C -0.936054557 3.541795492 1.631163327
O 1.531203108 2.792824047 0.768947342
C 1.330790736 0.634983542 -0.509674858
C 3.718348427 -0.840718234 -0.444931481
H 0.243392208 -1.998855767 -3.743337164
H -0.389122426 -4.361327760 0.362932163
H -3.184458694 -3.868702200 -1.662458722
H -2.381258422 0.548019745 -1.906268447
H -1.509369307 0.077745090 3.739045067
H -4.275260940 1.120420849 2.152768329
H -0.665683617 4.720569345 3.294430323
H -1.884193252 4.635658659 0.153534541
H 0.932222590 -0.667103614 -4.120344310
H 4.062624685 -1.453081150 1.508694278
H 3.607982620 -2.506728186 -1.636339457
H 5.297854995 0.359299543 -0.999637776

