13

C -4.305837823 -0.401427944 -0.460742555
C -1.463650860 -0.607868354 -0.416150196
O -0.471642570 1.881630387 0.084125996
C 1.941600089 2.435924041 0.245655250
N 3.441795173 0.399766081 -0.111724086
C 8.136819559 0.858329517 0.077117947
N 5.944267790 0.673995445 -0.004766740
H -4.909713639 0.902446062 -1.935963433
H -5.142122703 -2.249131379 -0.829897964
H -5.007686093 0.288697844 1.348337769
H -0.745562341 -1.274684011 -2.239092795
H -0.842275897 -1.901198954 1.075098962
H 2.905990051 -1.401386142 -0.472043400

