13

C -4.156247557 -0.049648170 -0.463661860
C -1.386158767 -0.698092515 -0.391519033
O 0.012802876 1.635164010 -0.034812119
C 2.438343552 1.567972095 0.181659694
N 3.799268711 -0.526681789 0.140625481
C 5.720187978 2.931299020 -0.085095312
N 6.262707845 0.586668291 -0.103008839
H -4.560019064 1.251081464 -2.008211121
H -5.260799223 -1.766981118 -0.746013966
H -4.748873380 0.822984590 1.305000907
H -0.755131479 -1.554784736 -2.162236178
H -0.939752940 -1.966355105 1.177091336
H 3.414564087 -2.335589637 -0.357124052

