11

O 1.145271579 0.929512477 3.311709412
C 0.345201676 0.233558622 0.931585544
C -2.065010544 1.267245275 -0.260749589
C -2.124475028 -1.376876224 0.429849369
C 2.113302646 -0.281078714 -0.860027285
N 3.635541441 -0.892833800 -2.419233621
H 0.154925625 2.408089131 3.706659583
H 4.016843840 0.167185960 -3.968479607
H -1.967485974 1.720978457 -2.266177256
H -2.834309281 -1.889056254 2.288046925
H -2.052241022 -2.952212752 -0.898486046

