11

O 1.018997963 0.485657554 3.122035938
C 0.396613073 -0.637810176 0.860994560
C -1.062890783 0.729820960 -1.206280556
C -2.425390443 -1.056378144 0.516692186
C 2.513910336 -0.923145120 -0.782822411
N 3.638092760 0.488757196 -2.137633078
H 2.154036052 1.875542313 2.804060756
H 1.528133399 1.969545869 -2.095521551
H -0.942408346 -0.243061714 -3.010377671
H -3.396183193 -0.389278517 2.191722160
H -3.156436777 -2.805648976 -0.258420048

