17

C 3.186152418 -1.491346157 0.640116152
C 1.417933661 0.794166720 0.609307153
C 0.228013938 1.246250569 -1.992702970
C -3.082322965 0.312876266 1.887277077
O -3.970737395 0.090305098 -0.500807489
C -2.082800558 -0.417924894 -2.342961345
C -0.667509924 0.571869071 2.528043957
H 3.925487960 -1.828644413 2.536618664
H 4.789032403 -1.200120011 -0.629337702
H 2.197693166 -3.205316471 0.050810729
H 2.547805238 2.459175288 1.094727490
H -0.351695474 3.221144476 -2.168630822
H 1.584220130 0.862390463 -3.502644959
H -4.604792950 0.269938533 3.255173984
H -2.980532735 -0.108746539 -4.170040006
H -1.564033943 -2.420359954 -2.203875235
H -0.210863767 0.690676984 4.519728629

