17

C 3.405822819 -1.377130449 0.132180295
C 1.573147658 0.699920220 0.857372503
C 0.216900932 1.983020807 -1.289601491
C -3.016670819 1.125634490 0.967832532
O -4.331558130 -0.215516405 -0.701465600
C -2.271149598 -1.669575374 -1.569144424
C -0.813788219 0.026205286 2.174972932
H 4.044835484 -2.432976956 1.785897901
H 5.068160410 -0.599984530 -0.814017273
H 2.481650689 -2.707890250 -1.150562661
H 2.605974429 2.099908947 2.007607070
H -0.103235663 3.993949789 -1.003351843
H 0.746385449 1.602891777 -3.237311405
H -4.259067820 2.467735823 1.950785065
H -1.972394896 -1.452450548 -3.584356452
H -2.384199742 -3.635634718 -0.981085333
H -0.808017865 0.009418735 4.255142821

