14

C 2.246455980 1.376244904 2.328653908
C -0.171932291 1.018359387 0.843706117
C -1.724418156 -1.152298110 -2.354850992
C -1.333748138 -1.655841544 0.502954274
C -0.023815217 1.154072336 -2.037506279
O 1.172062113 2.426919137 -3.465157176
H 1.932048733 1.072249330 4.344459120
H 3.697104882 0.050006141 1.699213026
H 2.982022841 3.284197607 2.068630957
H -3.654530146 -0.599263807 -2.831194634
H -1.084248619 -2.569302952 -3.704359654
H 0.059795753 -3.135601318 0.843362263
H -3.023390023 -2.064740918 1.601515811
H -1.625840781 2.350803784 1.472984236

