14

C 2.503681135 1.018688105 2.328274299
C 0.223851155 0.583197941 0.821170774
C -1.637000143 -1.213038349 -2.158234003
C -1.483482553 -1.676458626 0.673555272
C -0.396928072 1.684387917 -1.600215849
O 0.815883188 3.102176806 -3.042391673
H 2.434962303 0.182605861 4.207614395
H 4.105258872 0.207405096 1.285030999
H 2.883657060 3.045976181 2.411447533
H -3.446681815 -1.182271774 -3.121681350
H -0.237708309 -2.281733180 -3.212757777
H -0.463269043 -3.396249334 1.186788220
H -3.222620730 -1.609295398 1.771637649
H -2.371824663 2.321685354 -0.877235188

