14

C 2.195639978 -2.014989909 -2.591982027
C 1.361986713 1.029774636 1.579521232
O 1.169209912 2.493789836 3.705116754
C -0.541652879 0.293521654 0.103961865
O -0.255801794 -1.198630925 -1.986798086
C -3.265939565 0.934199602 0.472571409
H 3.013860682 -3.144665276 -1.060931118
H 3.449353624 -0.415508955 -2.991288357
H 2.026313412 -3.177553219 -4.279550769
H 3.306070526 0.528851175 1.215513852
H -0.575156892 2.816581854 4.074871622
H -4.350158477 -0.747188885 0.979483676
H -4.044449092 1.676612658 -1.286872934
H -3.569795507 2.357595479 1.931297718

