14

C 2.955419504 -1.590176849 -2.254099658
C 1.141592188 0.712024559 1.184179434
O 1.212048397 2.901792912 2.601324210
C -1.065373070 -0.269772936 0.125756776
O -0.802127399 -1.974031494 -1.519064414
C -3.668794423 0.550904071 0.865327041
H 2.739309895 -3.562871305 -2.735708625
H 4.680677227 -1.180536514 -1.236643522
H 2.522096762 -0.272817436 -3.750485091
H 2.371645328 -0.729585009 1.962707385
H 0.810524454 4.307125199 1.533953283
H -4.791017447 -1.133316189 1.258952835
H -4.582967671 1.537256071 -0.699938721
H -3.631180841 1.772654492 2.522070098

