16

C 4.241824447 -0.448883370 -0.396024877
C 1.550116470 -0.954394198 0.597574165
C -0.202966753 0.425038882 -1.094952519
C -4.146421586 -1.285980416 0.518797700
C -0.849011826 3.021219408 -0.781463811
O 0.814684025 4.620959273 -0.742123379
H 4.694412436 1.554676832 -0.294946488
H 5.584381733 -1.501198320 0.761013970
H 4.423769130 -1.063510897 -2.353540146
H 1.194213199 -2.982366545 0.471860607
H 1.438706230 -0.378667176 2.584400257
H -2.764588478 -0.919465143 -1.106336569
H -3.592729072 -0.456857372 2.309606149
H -5.940516154 -0.512905175 -0.123184008
H -4.219643503 -3.336128510 0.663248875
H -2.873193136 3.547914198 -0.841018095

