19

C 4.346813322 -0.334567903 1.585721272
C 2.696467460 -1.068371272 -0.650369145
C 1.192347208 1.061235855 -1.782839190
C -1.244852228 0.185719336 -2.888450558
C -2.187584794 1.093815206 -0.345333012
C -3.263005595 -0.862801819 1.442865593
O -3.688522634 3.242469790 -0.643800759
H 5.622606602 -1.864344136 2.121560012
H 3.185018280 0.115562327 3.234978576
H 5.467420139 1.335549803 1.135962240
H 1.617622532 -2.799614079 -0.235087146
H 3.905349035 -1.561980529 -2.268119725
H -0.266223936 1.876299413 0.510088765
H -1.503423510 -1.841220956 -3.185580700
H -2.004855534 1.302357123 -4.434088773
H -5.034992371 -1.595276748 0.686369637
H -3.635325238 -0.030277608 3.294877848
H -1.960098883 -2.437330904 1.699147566
H -3.790898264 4.131164938 0.934582102

