15

C -0.267930982 -2.982138360 -0.968742662
C -0.494644185 -0.276681435 -0.078419099
C 0.437353244 1.773835987 -1.708835361
C 1.909715988 1.150139854 0.803160777
C 4.304233200 0.315484088 -0.016495249
C -2.682126915 0.280587348 1.463001475
C -4.498420946 0.711255005 2.742889282
H -1.803341622 -3.423976473 -2.271904997
H 1.538337485 -3.252533659 -1.914876112
H -0.378699056 -4.272336740 0.633805865
H 1.565392354 2.521158135 2.295974288
H 1.356546380 1.256233954 -3.456779397
H -0.473710554 3.601184104 -1.662221770
H 5.738679685 1.544600151 0.873697696
H -6.111498990 1.090716074 3.882582106

