8

C -4.776004045 1.766925768 2.204633223
C -2.287687480 1.390027433 0.907312390
N -1.283537889 2.779991012 -0.751657350
H -2.414694499 4.291662099 -1.150380492
H -1.226737918 -0.291044260 1.475133384
H -5.722144109 3.474316962 1.541406155
H -6.009346480 0.144920394 1.869907754
H -4.500865269 1.903903115 4.246891823

