14

C 0.518374647 2.830028371 -0.711862760
C 0.074932611 0.659963341 1.064474336
C -3.279611129 -1.383425145 -0.928751201
C -1.571188201 -3.276072390 -1.048266117
N 0.469418552 -4.130562815 -0.582462800
C 1.664186953 -1.562070480 1.036737484
C 3.589861318 -1.048589430 2.275608483
H 1.132354772 2.159353363 -2.561222010
H -1.221977414 3.911353829 -0.940834317
H 1.953487771 4.122099507 0.013586394
H -0.883497702 1.084623843 2.824853072
H -4.826080805 -1.560862114 0.402910340
H -3.662680289 -0.302249996 -2.625773997
H 5.362894171 -0.986810258 3.236693181

