18

C -4.819383691 1.281537821 -0.390168087
C -2.686107453 -0.617912399 -0.605444799
C -1.708772055 -1.776056339 1.550964144
N 1.704061289 -0.426063756 2.383774875
C 2.763229122 0.670464492 0.457494531
O 1.397389371 2.027177660 -1.023686052
C 5.497615487 0.370807446 -0.241435680
H -4.848742212 2.572174447 -2.000330566
H -6.674971233 0.372944991 -0.299112975
H -4.606517287 2.434177632 1.309961740
H -2.625003933 -1.727584108 -2.333961090
H -0.570925398 0.995037861 -0.974903887
H -2.437077832 -1.266154884 3.393248316
H -0.964515137 -3.679554051 1.435978807
H 2.862990580 -1.652385424 3.285687600
H 5.620963656 -0.704158970 -1.998366423
H 6.567390296 -0.593186316 1.229856968
H 6.322099178 2.226316243 -0.586279480

