15

C -4.923382671 -0.655771890 0.891596275
N -2.588296627 -0.097137649 0.221062184
C -0.700816026 -1.411066188 -0.814053555
C 1.524974306 0.263160520 -1.178344621
C 3.971724078 -0.543328216 0.151817328
C 0.420930693 2.633983156 -0.114934485
N -1.838056118 2.455251177 0.666810990
H 1.970302402 0.604015901 -3.183715824
H -6.042100971 0.825374772 1.711844617
H -5.589101626 -2.556518501 0.596599407
H -0.933456883 -3.366547960 -1.318138056
H 5.471522394 0.847836208 -0.126065897
H 4.626279022 -2.341061471 -0.614180474
H 3.650448659 -0.790670406 2.173254699
H 1.387317943 4.432788264 0.041316273

