9

N -2.373140876 -1.790037421 -1.429188813
C -1.081106193 -0.279148605 0.265956011
C 1.138226340 1.235791823 -0.540533500
N 3.370553310 0.543992984 0.257005304
N 5.280653574 -0.071392511 0.907906369
O -0.727415093 -1.635237520 2.306490028
H -3.952805387 -2.309068295 -0.443856113
H -2.584570011 1.328151034 0.364357206
H 1.055968470 2.950303391 -1.635660705

