16

C -2.894940387 0.968438813 0.725433564
C -1.007683662 1.350690251 -1.408592159
C 1.711679512 1.775925249 -0.552084111
C 2.326360555 -0.583858722 1.010851486
C 0.626383493 -2.631975681 -0.156899557
C -1.588309687 -1.404487258 -1.533023462
H -2.149249300 1.171349271 2.623126396
H -4.709579114 1.868046809 0.410241344
H -1.683888349 2.561241569 -2.920690873
H 2.920145082 1.875195359 -2.224654096
H 1.965638199 3.536339229 0.494486468
H 1.850861242 -0.289772475 2.998062837
H 4.327391397 -1.073253228 0.953075472
H 0.066119684 -4.122030116 1.153055909
H 1.616234396 -3.587899783 -1.705501241
H -3.516536052 -1.171627778 0.385747602

