16

C -3.841954317 -0.178810251 -1.807143260
C -1.065368611 0.469006270 -1.475311567
O -0.765261073 2.909717838 -0.385704025
C 0.254922637 -1.400169064 0.264671639
C 3.046290367 -1.039992367 0.486628987
O 4.565026290 -2.869413476 0.982247136
N 4.395589704 0.998482435 0.263217268
H -4.805770312 -0.169850568 0.017118708
H -4.068114037 -2.039482177 -2.668093260
H -4.771781055 1.195520077 -3.035893264
H -0.123640831 0.423455310 -3.324884696
H -1.605893890 4.123008068 -1.436780504
H -0.550109404 -1.245462647 2.163610406
H -0.078279202 -3.330481687 -0.376231716
H 3.633290683 2.728011203 0.016215872
H 5.976928815 -0.858152488 0.803515252

