14

C 4.153483700 0.038884460 0.540496839
N 2.293688041 0.693916050 -1.333788730
C -0.200905005 0.347592746 -0.820310571
N -1.952190946 1.473713293 -2.545464151
N -4.158447916 0.974980856 -1.921231998
C -4.161003355 -0.591977458 0.352986724
C -1.450102355 -0.913152381 0.990344348
H 4.091817590 -1.991443959 0.913884631
H 6.029732166 0.493106269 -0.169805857
H 3.860007211 1.033704322 2.336923236
H 2.659859988 2.160404372 -2.484112926
H -5.171617813 -2.340430964 -0.103281073
H -5.289212956 0.389181933 1.784054511
H -0.696107565 -1.947914685 2.572698034

