14

C 3.857520483 3.359690560 -0.386913355
H 2.545860824 4.935270257 -0.410863593
H 5.760667631 3.752947990 -1.043495976
C 2.864820874 0.759887806 -0.769246637
H 3.901490271 -0.665407793 -1.808532020
N 3.768176310 1.600693175 1.762835834
C 1.115998059 1.462871367 2.497733940
H 0.352911210 2.154925640 4.263101308
C 0.243281036 0.532032643 0.311398746
C -2.148856766 -0.292533497 -0.745122734
C -4.130634776 -1.046001204 0.601910368
H -4.059135986 -1.145270313 2.647273505
H -5.878812647 -1.605613247 -0.301001246
H -2.271762096 -0.284953427 -2.795358813

