13

O 4.102451703 -0.347658187 -1.450431357
C 2.008621702 0.371704083 1.252816309
C -0.198709275 0.069567924 -0.201318269
C -2.540073840 1.571333653 -0.465891491
C -2.643675183 -1.202858999 0.274223525
H 4.851355797 -2.006948085 -1.321302251
H 2.780103904 2.232873649 1.627624418
H 2.619804125 -1.091264359 2.557601068
H 1.899405642 -0.467978165 -1.917679312
H -3.031552336 2.931792844 0.987598104
H -3.179241198 2.088562484 -2.342421318
H -3.200936180 -1.622146083 2.203187752
H -3.354392335 -2.538145261 -1.108130033

