10

C 1.115380534 2.911346744 -1.202870261
C -0.860608962 4.850250175 -0.765802215
H -2.767007252 4.084089725 -1.014246568
H -0.675780953 6.451375191 -2.063848608
H -0.712834873 5.573314400 1.158054783
O 2.633168344 2.383359608 0.617735426
C 4.505699850 0.788184169 0.738965798
H 5.471930613 0.733736888 2.524299275
H 4.969586172 -0.342492054 -0.897797638
H 1.362454741 1.907824977 -2.974285452

