18

C -1.532065541 -4.378770367 0.572230878
C -1.450176527 -1.499429687 0.293679918
C 0.699375204 2.244974945 -1.009873175
C -1.078608637 4.403771292 -0.918590842
O 2.398878379 2.068794569 0.737267917
C 3.532159722 -0.262784824 0.976460341
H -0.582397189 -5.303262559 -1.012203736
H -0.579296847 -4.989605383 2.299410925
H -3.471208609 -5.093046383 0.629958761
H -2.379143176 -0.583553021 1.895881889
H -2.494308925 -0.982586059 -1.407669122
H 1.068603841 1.288801834 -2.789473506
H -2.955784618 3.763512258 -1.499558812
H -0.524192301 5.923146548 -2.206304648
H -1.198133417 5.155069462 0.994214110
H 4.757491532 -0.272725973 2.620086167
H 1.003910390 -1.319121035 0.713166822
H 4.440414783 -0.917250573 -0.756994560

