16

C -3.971150111 1.368309264 2.297533539
C -2.133214917 0.007680905 0.558959709
N -0.947866706 1.791746754 -1.143167048
C 1.370967580 1.668518167 -1.658758487
C 3.297223849 -0.193757210 -0.676916981
C 3.072807287 -2.836993599 -1.735987947
O 1.395317967 -3.572897474 -3.064314272
H -5.344849536 2.433151208 1.190861997
H -4.981864327 0.023095382 3.490473743
H -2.974748907 2.696723065 3.521728528
H -0.783146102 -1.098411795 1.681467704
H -3.154613380 -1.341930690 -0.626171183
H 2.087184911 3.067128245 -2.993978212
H 3.199253662 -0.377773222 1.384348447
H 5.212495178 0.470462871 -1.081857227
H 4.626396903 -4.126197926 -1.166419013

