16

C -2.425338740 -0.094042428 2.110772057
C -2.470650045 0.444828453 -0.697914106
N -1.033199614 3.162115574 -2.022104142
C 0.260775043 0.990643832 -1.993283456
C 2.553586440 0.607676962 -0.294870540
C 3.293714722 -2.096002241 0.149186130
O 2.075079099 -3.895001121 -0.510805576
H -1.757197364 1.549119979 3.155090555
H -4.345786936 -0.497734680 2.743135891
H -1.258401224 -1.726830542 2.569188699
H -3.172560487 -1.074621466 -1.897001041
H -3.793189727 2.020864973 -1.104780493
H 0.437064154 -0.148102806 -3.731597127
H 2.332989279 1.556778170 1.527643034
H 4.166943596 1.545527024 -1.195280309
H 5.106368933 -2.366369496 1.170418014

