16

C 4.484337441 0.810201840 4.546687197
C 3.242776908 1.593146516 2.170361774
C 2.176303356 0.285293370 0.415575247
C 0.342359660 -0.449905013 -1.302542656
C -2.388493805 -0.160317202 -0.871217185
C -4.095742835 0.393407814 -3.041147175
N -4.058268621 -2.105245591 -1.917863088
H 3.493948288 1.726606213 6.112858308
H 6.415168851 1.533776065 4.625244265
H 4.511293647 -1.231556833 4.910257616
H 2.578637537 -1.883289547 0.178490132
H 0.912201282 -1.411883646 -3.022015210
H -2.895602850 0.672416579 0.930571101
H -3.308158503 0.509028156 -4.928059762
H -5.683667282 1.638788655 -2.684741880
H -5.566551373 -2.375485063 -0.773226060

