15

C -1.625311771 2.587518400 -0.495569395
C -0.448588044 0.014815680 -0.167952471
C -2.012853498 -1.900008427 1.237848449
N 1.019526878 -1.074472914 -2.352209268
C 2.299627166 -0.129458882 -0.232412030
C 4.621250612 1.292252852 0.185320679
N 4.974402045 -0.863861974 1.266321274
H -2.130910566 3.380329525 1.339821170
H -3.351492210 2.442547720 -1.619446591
H -0.328368184 3.893810821 -1.420386034
H -3.861677861 -2.099028751 0.344611798
H -1.096140835 -3.744527295 1.236553307
H -2.303300303 -1.299380956 3.190398613
H 1.179961319 0.122193546 -3.846336195
H 3.126610379 -2.129764031 1.192542473

