12

C -3.005597288 -0.277043752 -0.371848987
C -0.509121735 0.568243953 0.793751264
C 1.609246945 -1.272646565 0.700166433
C 3.469130533 -0.118958581 -0.531690168
N 2.701420716 2.368566246 -1.258003966
N 0.498449110 2.777711303 -0.545581563
H -4.357237958 1.275098032 -0.338281121
H -2.723141757 -0.858754460 -2.328745503
H -3.792252933 -1.865104221 0.678886529
H 1.596675145 -3.152403969 1.490838104
H 5.340304328 -0.762044003 -1.026161008
H -0.842441135 1.204664878 2.740175389

