18

C -4.502252706 0.219691528 0.666998602
C -2.496822185 0.003001849 -1.303356769
C 0.576422083 2.346483492 -0.158825982
C 1.886230264 -0.084043736 -0.964952892
C 4.268350835 -0.772714927 0.469412542
C -0.389984405 -1.838809060 -0.661613979
H -3.868306302 0.025577027 2.638628726
H -5.745739380 -1.396498346 0.285510292
H -5.658372523 1.914340790 0.467935514
H -1.327776415 2.228210542 -1.522651984
H 0.151609325 2.440663946 1.853324481
H 1.361849670 4.132424630 -0.832253149
H 2.310395733 0.076170211 -2.982050356
H 5.034707287 -2.571874132 -0.191064615
H 5.729400771 0.665428145 0.219389984
H 3.889614778 -0.948829049 2.491748327
H -0.385431885 -3.494991511 -1.894242343
H -0.473123511 -2.509046370 1.309580110

