11

O -0.785027041 1.974598147 -2.562397174
C -1.653156054 1.350213360 -0.078873427
C 0.901580964 0.358347971 0.652094635
C -0.297767226 -2.013327479 1.665721410
O -2.570069009 -1.169270118 0.345219156
C 1.543935988 0.796418178 -1.944242493
O 2.934586388 1.958097833 0.065132869
H -2.863082402 2.800689220 0.728913211
H 0.404560808 -3.815377303 0.957931614
H -0.617616733 -2.090428513 3.702009685
H 2.600721841 -0.202197124 -3.376619993

