17

C 0.170874516 -3.189007076 3.653271494
C -1.350537372 1.858306896 -1.318961013
C 0.639008130 -0.167339349 -1.316339358
C 2.204423974 -0.142068401 1.103695885
O 0.771789736 -0.630806322 3.296403046
C -2.129687460 3.140914623 -3.629846185
O -0.500662736 4.345438489 -1.875674367
H -1.105717533 -3.918211777 2.191537119
H 1.880102581 -4.365380013 3.678494141
H -0.772683444 -3.344450637 5.476128375
H 1.904007465 0.123828613 -2.924154741
H -0.258238237 -2.012409620 -1.575863894
H 3.024661922 1.733062216 1.364147161
H 3.763562846 -1.505273779 0.952411535
H -2.690174805 1.776942356 0.238059175
H -4.012499719 3.946160940 -3.773465805
H -1.258610851 2.611245102 -5.413748742

