17

C -1.506809314 -2.115269964 2.377966953
C -0.740351856 1.336993630 -0.715032247
C 1.646282478 0.061479103 -1.578241717
C 3.255246928 -0.368863504 0.842874392
O 1.630282545 -0.156150451 2.979106370
C -2.844826759 1.950687839 -2.366133999
O -1.178630102 3.879526419 -1.499420522
H -2.059061988 -2.670124451 0.494301766
H -0.552204449 -3.562369809 3.462546784
H -2.915206491 -1.047830214 3.398719754
H 2.701076294 1.158943313 -2.972413716
H 1.181889672 -1.763702576 -2.427143580
H 4.697417970 1.092744242 1.037855899
H 4.180435446 -2.209252110 0.889983639
H 0.272913264 1.059578452 2.208297874
H -4.760036464 2.034984704 -1.618757143
H -2.728796290 1.579579530 -4.388416644

