13

C -3.359144845 -0.217946460 1.116947155
C -0.956263213 -1.430526928 0.202008019
C 0.018907617 -0.937213904 -2.422493833
N 1.203694352 0.149032211 -0.309501008
C 2.934160104 1.504654327 0.625228606
O 4.811890039 2.446420714 -0.792331721
H -3.315154534 0.171283793 3.145209687
H -4.937330305 -1.494057461 0.747002274
H -3.695291312 1.532505224 0.084287303
H -0.408764353 -3.138978939 1.223817724
H 1.149218631 -2.418651717 -3.301303597
H 4.461131964 2.085632860 -2.545121071
H 2.988889577 2.017022668 2.601287398

