11

C -1.760201991 2.058425132 -0.563501553
N 0.673664365 1.055512026 0.258084772
C 0.541681660 -1.623576190 1.508029548
O -1.073382145 -2.123876816 2.965476343
C 2.199727192 -2.912815987 -1.006797268
O 3.113707707 -4.927833165 -1.020592722
H -2.434942631 0.930871814 -2.152944168
H -3.144488039 1.934502618 0.962303798
H -1.560670477 4.013595987 -1.174365689
H 1.625326039 2.261726044 1.397109862
H 1.791975090 -0.149421174 -1.415147071

