9

N -4.244918949 0.950845727 -0.289952811
C -1.874282149 0.181142457 -0.360666382
C -0.131257882 2.241983509 -0.171359722
N 2.271590226 1.755726382 -0.149189437
C 4.456367416 1.306344407 -0.377596778
H 5.815092291 0.885616690 1.091787322
H -0.620115990 4.243697317 -0.032147511
H -4.802954412 2.782252542 -0.117815712
H -5.648947665 -0.321237303 -0.420454746

