15

O -0.810884711 4.677051825 -0.218832610
C -0.751884571 2.136167614 0.050549966
C -2.557130923 0.431450231 -0.379168218
C -1.653186082 -2.195584534 0.260752574
C 1.124091963 -1.817279808 0.925846673
C 2.845037029 -0.751715138 -1.048156343
C 1.664013646 0.981039941 0.875288789
H -4.417131713 0.839760388 -1.129588837
H -2.486795260 5.189504807 -0.689067674
H -2.686082489 -2.983654506 1.870592477
H -1.891880375 -3.522839063 -1.307757752
H 1.957383176 -2.996882325 2.372213795
H 2.177434055 -0.617493617 -2.978890847
H 4.841682554 -1.147826508 -0.844804143
H 2.823782448 1.941909362 2.257468435

