9

C -3.507311996 0.316274977 -0.076620193
C -0.687391412 0.087437514 -0.086353964
O 0.427082602 2.360613277 -0.350682921
H 2.225317787 2.056703553 -0.337982582
N 0.666724516 -1.866618686 0.113352670
H -0.399646878 -3.444886897 0.298770821
H -4.142379499 1.178047556 -1.838177533
H -4.097226893 1.551443927 1.464442372
H -4.400008904 -1.522516604 0.140726015

