13

C 4.672562006 -0.520691414 0.964373577
C 1.904888134 -0.046263746 0.610142979
O 0.772389630 1.808617360 1.438537439
C 0.270013517 -1.833039538 -0.509016667
C -5.198395629 0.311430021 -0.452658571
N -3.965787182 1.588932559 -2.048714264
H 5.329717969 -2.138240625 -0.133605659
H 5.030488908 -0.880777612 2.962737336
H 5.703245770 1.174890787 0.410644800
H -0.124930966 -1.524945223 -2.518592340
H -4.993487145 0.517438590 1.594089584
H -6.548658386 -1.097293663 -1.115576442
H -2.771744606 2.796374011 -1.134732274

