14

C -2.952974198 2.248524985 0.155708538
C -1.692277656 -0.223006826 0.823507251
C -0.877303331 -2.095031073 -1.225836632
C 0.956880190 -0.647627039 0.205634177
C 3.409895689 -0.060348744 0.542801946
C 5.200499102 -1.339404599 -1.010271321
H -2.192911800 3.006158178 -1.605396042
H -2.648506608 3.653809953 1.633293861
H -4.984120698 1.983218907 -0.081394321
H -2.329865487 -1.085010726 2.575289188
H -1.144036662 -1.580249797 -3.191847259
H -1.033659214 -4.099910305 -0.841836007
H 3.860735360 1.350126924 1.980874551
H 7.103090104 -0.642550535 -0.486862009

