15

O 5.070900834 -0.131976583 -0.106730371
C 2.819233745 -0.228127492 -0.426332532
N 1.283944652 -2.229090852 -0.232697114
C -1.446480317 -1.983735823 -0.464421662
C -2.450624296 0.322818909 1.017167801
C -0.684964266 2.608627661 1.032020444
N 1.369379945 2.093587266 -0.968647174
H 2.086499092 -3.840225426 0.371734810
H -1.937438289 -1.797012174 -2.467814020
H -2.293642914 -3.748529357 0.173170382
H -2.820237359 -0.231430318 2.973701319
H -4.297469303 0.769892753 0.191683651
H 0.437431592 2.593315607 2.771751598
H 0.565926600 2.060000237 -2.714003061
H 2.624540383 3.545605388 -0.946711007

