9

O 3.761381516 -0.706597775 2.924253366
C 2.581972583 0.179683135 1.357297943
N 1.418843432 1.546279078 -0.242084688
C -1.241097947 1.087414382 0.363252396
C -1.870551981 -1.464831504 0.397118103
O -0.294330097 -3.185631458 0.113023556
H 2.085530872 1.645456290 -2.041730289
H -2.365526319 2.707776621 0.856114059
H -3.877984100 -1.911501382 0.729999652

