11

C -1.548130953 1.597153057 0.091404333
C -1.163616738 -1.255501458 -0.310612356
C 1.819292082 -1.232674171 0.533093497
O 3.358196089 -1.539346297 -1.320102729
C 1.222900281 1.561911460 0.274682842
H -2.467921866 1.992795831 1.892702141
H -2.409779264 2.706307000 -1.409773540
H -2.239143401 -2.442798317 0.975489438
H -1.258844554 -1.867947938 -2.261267975
H 2.137912606 -2.103100204 2.395127972
H 2.524287710 2.686916766 -0.851321449

