16

C -2.061261081 2.450179681 -0.023150959
C -0.284733085 0.260905963 -0.101051706
C -1.367940673 -2.325090716 0.360112787
O -3.099779273 -2.390079493 2.145031809
N 1.943083316 0.739635819 -1.260795054
C 4.004733001 -0.864873733 -1.662516038
O 4.024067677 -3.095218268 -1.348833936
H -1.174353576 4.110485873 0.814282250
H -3.709224263 1.909324758 1.077628492
H -2.637992474 2.923739625 -1.953437069
H -0.044575143 0.266354422 3.780956603
H -2.199802686 -2.501457003 -1.597222391
H 0.142932478 -3.747843651 0.424625731
H -1.287103481 -0.682015764 3.783869900
H 2.259791097 2.554573538 -1.760079687
H 5.652168854 0.213984706 -2.345853836

