13

C -3.263043579 -0.033875419 -2.704942183
O -2.705175715 0.002737363 1.087821222
C -0.338206722 -0.029775489 0.844766972
N 0.523743416 -0.128744943 -1.437725764
N 1.073892674 0.053779924 3.057564038
C 3.652231616 0.035450336 3.255844176
O 4.761947828 0.103807796 5.234426054
H -4.948778625 -0.957626273 -2.018299859
H -2.403459699 -0.974526585 -4.294347740
H -3.400102920 1.992990662 -2.882119654
H 2.393072460 -0.138907210 -1.822230474
H 0.080243044 0.124694372 4.681949485
H 4.622640581 -0.047362735 1.414468092

