12

O -0.310501844 3.100043041 -1.068896370
C 0.172001889 0.817934127 0.095722395
C -1.140005668 -1.395084529 -1.183228183
C -1.970916998 -0.525648109 1.375909875
C 2.791859512 0.967490794 1.713090041
C 3.569967586 -0.390159224 -0.045160883
H 0.085258830 4.403544298 0.136657170
H -2.292173047 -0.872762452 -2.789129312
H -0.208393951 -3.204512505 -1.336653441
H -3.707095241 0.547070951 1.502616730
H -1.511312455 -1.683960669 2.995411154
H 4.339602864 -1.490710794 -1.557230438

