8

N 2.710048809 1.693394371 0.497700250
C 2.161649380 -0.202890748 -1.342253267
C 1.643931375 -2.520342548 -0.631257664
N 1.375077620 -4.726190770 -0.027367505
H -0.434444824 -5.261898136 0.334050855
H 2.142954395 0.188413650 -3.359781871
H 4.517642919 2.295153750 0.363672596
H 1.560324600 3.205241486 0.309676129

