12

N 3.820261773 0.264737950 -0.135017492
C 1.126642753 -0.032651557 0.076692248
C 1.309089159 2.413690204 0.096865320
N -3.397078772 1.306743820 -0.015499137
C -3.257772188 -1.134579131 0.210924673
O -4.683448964 -2.932064133 0.460577487
N -0.480817304 -1.881332018 0.148789514
H 4.619764267 -0.273260709 -1.786555525
H 4.900629215 0.019817860 1.416194981
H 1.286403602 4.118544365 -0.995137487
H -5.230798838 1.845198905 0.065883393
H -0.003531898 -3.694032093 0.459621191

