17

C 4.605162656 -0.573047939 2.133834936
C 1.908181606 -0.101034510 1.758461213
C 0.760484639 -1.869591206 -0.045730295
C -1.566186455 -0.922137008 -1.434779020
C -3.512376273 0.612006079 0.067678425
C -2.682110682 2.811090008 -1.618196593
O -0.956717938 1.221841732 -2.992520497
H 5.338759647 0.789984208 0.725417690
H 5.347152979 -2.440129173 1.602413336
H 5.340006300 0.063624962 3.949100995
H 0.183950798 -3.383881870 1.281736734
H 2.086351901 -2.768183039 -1.376828735
H -2.364150863 -2.448964909 -2.582922189
H -3.065020614 0.836337130 2.061210153
H -5.461408901 0.003613667 -0.178248209
H -4.130999172 3.603418157 -2.859267649
H -1.689301054 4.336162561 -0.642398544

