13

C 0.929625293 -2.153175357 0.213962748
C 2.143560752 -0.095506985 -1.344447163
C 1.079146131 2.142280802 -0.929724769
C -1.105826060 1.914425639 0.834632030
N -3.207089941 0.334695195 -0.045204743
C -1.252979392 -0.810531238 1.511395811
H 2.257626586 -2.910688118 1.605623849
H 0.299025027 -3.752180345 -0.937154756
H 3.666132063 -0.452918389 -2.664113762
H 1.644717785 3.906480055 -1.796886563
H -1.613567482 3.439371750 2.100475752
H -2.956762910 -0.103082255 -1.895414238
H -1.883607872 -1.459170754 3.346855786

