16

C 2.945871530 -1.342185407 0.964643808
C 0.914342228 0.571467599 0.430812657
C 1.669323342 2.815907695 -1.143316015
N -4.024707293 0.380974834 -0.660365626
C -3.517355475 -2.189590360 0.391234233
C -1.718841838 -0.127878636 0.591433349
O -0.671788548 1.189756847 2.594527167
H 4.526447815 -0.448745231 1.946641350
H 3.663127417 -2.144281021 -0.796745611
H 2.219073206 -2.866776854 2.140972885
H 2.302753548 2.203058684 -3.010544837
H 3.228354500 3.825404152 -0.244193622
H 0.088998428 4.115440452 -1.368402938
H -3.817452147 0.425811647 -2.563529857
H -4.694512346 -2.674686212 1.993942517
H -3.118602476 -3.722377607 -0.910682509

