12

C -3.141477384 1.000010845 0.440231222
C -0.604391617 -0.097833880 -0.023941639
C 0.111461489 -2.347493608 -0.897449059
O 2.707018312 -2.493016881 -1.001808561
C 3.683414553 -0.252912838 -0.165414795
O 5.890137284 0.223437834 -0.026526464
N 1.633963656 1.213419355 0.435177981
H -3.380736893 1.514617492 2.424961532
H -3.442230017 2.692996109 -0.701580723
H -4.597935153 -0.369911130 -0.045427769
H -0.937789723 -3.980272915 -1.499287939
H 1.814243849 2.977864480 1.100480232

