12

C -3.280957275 0.937908133 0.409658628
C -0.702483067 -0.078470008 -0.008577864
C 0.036111778 -2.370465931 -0.826006394
O 2.681953154 -2.476991021 -0.930410664
C 3.387077246 -0.218254996 -0.161935318
O 5.512285941 0.830539432 0.148390517
N 1.503316533 1.294355399 0.412968502
H -3.523927942 1.514948496 2.374450948
H -3.613112395 2.588042024 -0.781359423
H -4.699747266 -0.486083385 -0.033508416
H -0.958306593 -4.051290014 -1.385594362
H 3.631212740 2.516474278 0.783080340

