12

C -3.821357342 2.363086418 0.081708866
C -1.480026773 -1.332389539 -0.301413263
O -1.424092770 1.139234414 0.049147997
N 0.898689192 -2.234770254 -0.279371611
C 3.183734022 -0.958964955 0.047235122
N 5.224953027 -2.188912005 0.004708857
H -3.836015796 3.794883979 -1.398795101
H -5.303476061 0.972756648 -0.242882190
H -4.063402856 3.264274395 1.918062228
H 1.074045477 -4.114832962 -0.532748811
H 2.982986772 1.068741167 0.319425074
H 6.727180643 -1.026854462 0.263891787

