8

C -2.509529932 -0.708303612 -1.390874824
C -0.232478568 -2.157647810 -0.485424645
C 0.235727517 -2.591642330 1.901889630
O 0.646417293 -2.973844862 4.019634059
H 1.134361113 -2.911759233 -1.807240089
H -3.691783432 -1.876811434 -2.612856490
H -3.670912182 -0.080192475 0.189501131
H -1.944597856 0.963016357 -2.460227506

