14

C 2.949583406 0.865871490 -1.123749356
C 1.402818781 0.507894623 1.024324893
C -1.286508085 1.495982033 0.709111584
C -2.534129385 -0.212900325 -1.166320747
O -1.321302308 -2.609779733 -0.710479859
C 0.253808417 -2.178247223 1.273502347
H 2.315122996 0.222529311 -2.958814151
H 4.812610081 1.704294538 -1.021767829
H 2.218782018 1.085901789 2.818749143
H -1.814820499 3.481171301 0.782354439
H -1.458477414 -0.579578530 2.601421757
H -2.242826156 0.251787090 -3.154887560
H -4.563525035 -0.402393916 -0.826998009
H 1.280624819 -3.886553195 1.797523515

