17

C 0.972646496 2.092754199 -1.538190427
C 2.897342248 -4.009922605 1.448889302
C 0.745643693 -3.125467945 0.531629224
C -0.624611044 -0.857418254 1.528150274
N -1.255890685 0.935951114 -0.451343246
C -3.015259779 2.827715497 0.441188425
H 0.426544559 3.319581557 -3.103032663
H 2.032375238 3.240934161 -0.152904279
H 2.244792227 0.644825066 -2.265551663
H 3.776093242 -5.693377696 0.684920047
H 3.854422654 -3.085146216 3.009539729
H -0.165642829 -4.071375837 -1.048375192
H 0.494701424 0.028523073 3.054920992
H -2.401827807 -1.490590399 2.378209197
H -3.540158214 4.081062630 -1.110283980
H -2.227572571 4.003772737 1.976019693
H -4.731344129 1.924328692 1.143470311

