15

C 3.747156603 0.725399473 -1.116973478
C 1.641192803 -1.147624553 -0.654547272
H 2.269287916 -3.080743457 -1.119987157
C 0.737284622 -1.271083573 2.048690377
O -1.691009706 -1.240289654 1.909771092
C -2.626440484 -1.180980165 -0.739349753
C -4.762311638 0.667280115 -0.976468221
H -4.113331442 2.555571181 -0.471363704
H -5.444579284 0.688233360 -2.919949892
H -6.312401141 0.120380637 0.264295641
H -3.216512890 -3.134361525 -1.121965096
O -0.536641949 -0.494452623 -2.122210324
H 4.248062773 0.759411803 -3.114399233
H 5.403924132 0.192411366 -0.016883248
H 3.160442580 2.617596547 -0.549224483

