14

C 2.599838791 -0.027089394 -0.998892562
C 1.047605676 0.660396050 1.285321129
C -1.530970842 1.866435099 0.858917638
C -2.952603131 0.480921712 -1.222918177
O -1.407219878 -2.317141715 -1.048370146
C 0.967533615 -1.943066838 0.235322209
H 2.002691420 0.686167965 -2.821102230
H 4.617275025 -0.253763384 -0.764810600
H 2.018252578 0.999001996 3.055116843
H -1.372875938 3.859354254 0.321983216
H -2.548525186 1.807158586 2.660351733
H -2.150829848 1.045225547 -3.049322584
H -2.553199537 -3.242843653 0.016496402
H 1.688387598 -3.635222077 1.125242561

