12

N 4.968694373 0.207869647 -2.198934017
C 3.368294540 -0.066481850 -0.760444425
C 1.284936966 -0.464497913 1.032336179
C -0.710609513 1.673148336 0.949055269
C -2.256396563 -0.113023008 -0.746148666
N -0.668334506 -2.226958202 0.141401894
H 2.090241052 -0.935503646 2.872139235
H -1.564203962 1.957939512 2.797267549
H -0.111224196 3.471090727 0.159068755
H -2.026429838 0.324204551 -2.755253004
H -4.260874757 -0.327880692 -0.320760676
H -0.114093632 -3.499907463 -1.169728093

