12

N 6.096951198 -0.220618873 -0.170679459
C 3.922146527 -0.184905393 -0.112240434
C 1.252686201 -0.187013666 0.085126209
C -0.674047734 1.950571640 0.305713675
C -2.428756518 -0.100591048 -0.660916745
N -0.397936694 -1.366599043 -1.568845130
H -0.321945742 -1.396807317 2.514466388
H -1.016906112 2.810654880 2.134707857
H -0.354201856 3.356366683 -1.167971064
H -4.312152683 -0.112999726 -1.448075152
H -1.988415484 -1.388108832 2.246735263
H -0.292074785 -3.096282523 -2.362777013

