15

C 2.803559563 1.423016816 -0.263131664
C 0.356859661 -0.034511350 -0.095654044
O 0.347715144 -1.736541561 2.093623133
C -2.056320714 1.342091393 0.623072466
C -3.103257011 -1.074348117 1.799360234
O -0.464703062 -0.650670518 -4.494260053
C -0.104265696 -1.590566284 -2.473360215
H 2.707454706 2.706110185 -1.872860489
H 3.100294166 2.511009361 1.458864883
H 4.408459646 0.153373668 -0.533780318
H 0.623253049 -3.463273138 1.579225868
H -1.666516494 2.944226977 1.876730459
H -3.110545761 1.990273312 -1.024545500
H -3.461605077 -0.810113968 3.825680166
H -0.014013396 -3.678197076 -2.234762336

