15

C -2.096721811 1.171616270 -0.166486119
O -3.891687222 0.040691340 -1.802767372
C -1.426384649 0.495783463 -2.764223326
C 0.252980282 -1.667294229 -1.868322501
C -0.449524328 -0.955355294 0.905631876
C 1.754755611 -0.113112770 2.537008213
O 3.379494720 1.653313676 1.354747607
H -2.606631883 2.970917866 0.671670459
H 2.468216928 3.191136381 1.059114090
H -1.278776232 1.643677075 -4.449847445
H 2.248635779 -1.329508916 -2.246119306
H -0.304708076 -3.535578350 -2.530026052
H -1.547007284 -2.369962905 1.934092113
H 1.033924343 0.642966804 4.330227611
H 2.939516287 -1.740465294 2.989309890

