15

C -1.943514911 1.358597432 0.361735872
O -3.032346229 1.027032342 -2.296647352
C -0.666695093 0.584887621 -2.832670435
C 0.258866968 -1.776406524 -1.677993575
C -0.531358974 -1.046160735 1.056520630
C 1.926641055 0.039204920 2.307641136
O 2.656585641 2.077422662 0.934479527
H -3.422835947 2.279988981 1.439848626
H 0.046515949 2.611771296 0.325984597
H 0.347525000 1.830821075 -4.118553530
H 2.271923441 -2.093373084 -1.907910487
H -0.854025005 -3.346088103 -2.430612626
H -1.517234782 -2.498397895 2.128200736
H 1.430409501 0.498968728 4.291521598
H 3.352021352 -1.479399535 2.395024566

