12

C 2.407058833 0.323282497 0.415942326
C 0.812516244 -1.601723454 1.685000434
O -1.178774061 -1.094178714 2.791558914
C -3.211131328 0.684602573 -0.447310929
O -1.385390536 1.868261122 -1.295811490
C 0.823452014 0.119109740 -1.980499875
H 4.295886639 -0.393303143 0.015169002
H 2.483748512 2.157240082 1.367100047
H 1.382160125 -3.586006901 1.434476323
H -3.438312029 -1.304324876 -0.916166985
H -4.676848566 1.764237142 0.509999211
H 1.692748972 1.027753253 -3.608192153

