9

C -2.687003296 1.194484091 1.084536311
H -3.853842962 2.329682089 -0.158290925
H -3.650793458 0.004412265 2.444500053
C -0.094855237 0.743155472 0.479697982
N 1.623924637 -0.328269484 -0.718034020
C 4.173409577 0.190151102 -0.221830207
O 5.185830424 -0.071453549 1.783975293
H 5.210375358 0.738290127 -1.943354795
O -0.472530269 2.572417409 2.144912303

