11

C -2.849070744 0.390119767 0.176758991
C -0.149283054 0.871927646 0.382626001
O -0.300863088 2.982971597 1.439780275
N 1.488570735 -0.745140686 -0.446420925
C 4.031248977 -0.147531599 -0.186804303
O 5.716520548 -1.497674812 -0.874418664
H -2.997553102 -2.401768451 -1.219190503
H -3.905208383 1.389695049 -1.269248592
H -3.864675874 -0.182145788 1.864044652
H -1.460332010 -2.461909911 -1.268588171
H 4.400032790 1.704824152 0.718958342

