16

C 4.971649904 1.452321688 4.081360602
C 3.218337817 0.390140818 2.239746507
C 1.791540755 -0.488422035 0.715758090
C -0.000618640 -1.534575834 -1.106409229
C -2.706271530 -0.773739782 -0.561053545
C -4.443444543 1.424103655 -2.639699653
N -4.462186204 -1.267022268 -2.639169849
H 5.418034830 3.412168689 3.623320488
H 6.733175875 0.381925064 4.111871024
H 4.158397593 1.404842413 5.975177927
H 0.100018839 -3.598213398 -1.092311589
H 0.484007540 -0.936966067 -3.021629498
H -3.447731029 -1.447141344 1.235094967
H -2.725477837 1.943776468 -3.711823657
H -2.916142510 1.409449565 -0.164738935
H -6.125274810 -1.878999529 -1.912116904

