10

O -2.543819409 -1.191280798 -1.661763549
C -4.033178141 0.769428542 -1.800905501
C -0.279175382 -0.876385567 -0.424326039
N 1.204727503 -2.819308956 -0.318749913
O 3.269290276 -1.994353948 0.994581341
C 2.943246341 0.428585576 1.630585430
C 0.700391442 1.295219401 0.785671305
H -5.670140773 -0.007872580 -2.856820246
H 4.464905973 1.285972555 2.678996470
H -0.151159325 3.129499657 0.960398387

