19

C -1.788605141 -3.347890864 -1.092319374
C -1.114440301 -0.551550887 -1.214717578
C -1.877842279 0.815154226 1.232082744
C -0.308095599 3.182926069 1.621525062
O 2.297620466 2.636442597 1.926519376
C 1.725734577 -0.124939129 -1.717742150
C 3.139649546 0.397123035 0.723900429
H -3.784571442 -3.618308745 -0.637240008
H -1.414397946 -4.291271058 -2.889459671
H -0.681675198 -4.306191126 0.367699451
H -2.170385036 0.298166563 -2.777023783
H -1.600358977 -0.437513984 2.856185242
H -3.884109496 1.302022075 1.200111016
H -0.894239907 4.194376183 3.321869052
H -0.570270382 4.473110427 0.013223396
H 2.002965468 1.480596923 -2.987587707
H 2.945519909 -1.217518020 2.017903186
H 2.553670211 -1.770413730 -2.652956384
H 5.155265559 0.658655310 0.372630540

