19

C -1.919304571 -3.148821029 -1.336267408
C -1.056631745 -0.403297073 -1.104931199
C -1.743725827 0.791315142 1.441949586
C -0.568151658 3.459169258 1.615582422
O 1.825430593 3.522807694 0.642744780
C 1.748502715 -0.066544230 -1.536347490
C 3.484875788 -0.242664872 0.399210634
H -3.965772234 -3.273553612 -1.118687838
H -1.418750004 -3.959129809 -3.168038316
H -1.063308261 -4.317230207 0.136718718
H -1.967742258 0.690111143 -2.604980792
H -1.051748901 -0.424108173 2.970275737
H -3.798467883 0.861584041 1.648378090
H -0.675998820 4.081273485 3.607435450
H -1.822624822 4.758841118 0.555921786
H 2.444284095 0.583364634 -3.348293055
H 2.935190023 -0.923661941 2.242503693
H 3.074208330 -2.303290400 -1.210525032
H 5.434972823 0.266943128 0.069143114

