14

O -2.825232718 4.042386531 0.258157470
C -1.225585620 0.607165281 1.158758857
C -1.873059269 -1.426129649 -0.701853561
C 0.768776795 -2.357627510 -0.037778063
C 2.637475653 -0.701099617 -1.246980267
C 1.468745467 0.338430523 1.138287624
H -1.479769147 5.218299056 0.590678536
H -2.594400083 2.385615960 1.878876092
H -2.064402524 -0.887389159 -2.680895191
H -3.473344169 -2.579044055 -0.122197004
H 1.211377600 -4.111222526 0.906910502
H 2.161348233 0.154595792 -3.048286333
H 4.607895540 -1.201402587 -1.016415482
H 2.656494065 0.771958621 2.745917039

