14

O 3.170732895 -2.663280544 1.050763825
C 2.791922875 -1.486300343 2.968360575
C 0.797204795 0.419215369 3.347271336
C -0.649905670 0.875796180 -2.880274506
C -1.765666719 -0.523586909 -0.604785341
C -1.168608128 0.811862872 1.813063337
H 1.407698696 0.881589816 -2.772070055
H 4.020060286 -1.800713353 4.637700376
H 0.963232958 1.532716136 5.061567911
H -1.202469526 -0.051795560 -4.636207152
H -1.303172124 2.832176328 -2.960010763
H -3.818840982 -0.633240648 -0.805137469
H -1.016379615 -2.439934191 -0.564904618
H -2.482791705 2.296402197 2.358200021

