14

O 2.712794354 -2.330677653 0.132300104
C 2.384807819 -0.929035907 2.100811651
C 0.935148887 1.356042825 2.033897337
C -0.209249733 1.056968381 -1.916434663
C -2.126513098 -0.625206837 -0.467962556
C -1.491833933 0.258839945 2.116668343
H 2.083834049 -1.076952235 -1.236242692
H 3.330263669 -1.519574565 3.820310963
H 1.477059374 2.817862276 3.388555068
H 0.237393726 0.498502873 -3.873174388
H -0.797929354 3.025720452 -1.937463668
H -4.133160527 -0.375754428 -0.928687441
H -1.708915409 -2.636123875 -0.810382177
H -2.794847415 0.483236210 3.679047566

