15

C -3.409999416 -1.508761268 -1.722175977
O -1.197960885 -2.941698505 -1.541228199
C -0.183633966 -1.864767718 0.705411330
C 2.608654042 -1.421868109 0.555644071
C 3.108081085 0.968444010 -0.002163680
C 0.768747655 2.550898531 -0.393849538
C -1.341221098 0.804560800 0.553217247
H -2.795913920 0.800814229 -1.384893727
H -4.620628382 -1.938184504 -0.065405727
H -0.797580945 -2.948170174 2.363209723
H 3.993905059 -2.899396721 0.830524900
H 4.987181714 1.750615259 -0.221032610
H 0.816543837 4.335248481 0.639557814
H 0.555661514 3.020954771 -2.398563721
H -2.348831231 1.475149145 2.210156873

