10

C -2.243082025 1.148469015 0.458230617
O -0.837303971 0.584004117 -1.739736427
C 1.054274350 -1.203505738 -1.350336041
C 3.084732631 -0.289272037 0.336371137
N 4.641976127 0.424934248 1.663114287
H -3.703791640 2.483796530 -0.096439678
H -1.052495173 2.010018436 1.916081776
H -3.131533550 -0.557235599 1.230492955
H 1.882691695 -1.639414193 -3.185849003
H 0.304531557 -2.961794778 -0.541457331

