8

C -4.225041506 0.149811383 -0.519614270
C -2.661995492 1.771422183 1.222097204
C -0.529371171 2.821717676 0.547407152
O 1.361459800 3.749481136 -0.055385208
H -3.257911876 2.138393258 3.144297025
H -6.106466649 0.952753009 -0.787436234
H -4.446789396 -1.753964326 0.243705034
H -3.343098821 -0.015741438 -2.373332324

