27

C     4.38924  -1.98729  -0.16339
N     3.33822  -0.97374  -0.21302
C     2.03739  -1.27665  -0.18814
O     1.57876  -2.41638  -0.08404
C     1.02226  -0.13455  -0.44113
N     0.43350   0.38002   0.61096
C    -0.74182   1.12525   0.38783
C    -0.74255   2.47888   0.87783
N    -0.72942   3.60240   1.18928
C    -2.06477   0.41061   0.53614
O    -3.11362   1.06217   0.61122
N    -2.03182  -0.93581   0.51594
C    -3.25434  -1.71001   0.39320
C    -0.66462   1.14612  -1.86364
C     0.45929   0.25388  -1.99669
H     4.68100  -2.26095   0.86407
H     5.29608  -1.61334  -0.68504
H     4.05972  -2.90740  -0.68004
H     3.62159  -0.00539  -0.23477
H    -1.14860  -1.42102   0.42948
H    -3.97239  -1.44099   1.18011
H    -3.75056  -1.54132  -0.58510
H    -3.01441  -2.77570   0.47881
H    -1.70622   0.79639  -2.03782
H    -0.53513   2.24038  -2.02072
H     0.20785  -0.75046  -2.45488
H     1.36532   0.69721  -2.50593
27

C     4.39174  -1.98894  -0.16441
N     3.34145  -0.97578  -0.21257
C     2.04113  -1.27964  -0.18266
O     1.57979  -2.41861  -0.08434
C     1.03225  -0.13868  -0.41682
N     0.42829   0.38487   0.60332
C    -0.74375   1.12413   0.40696
C    -0.74266   2.47980   0.88248
N    -0.72942   3.60475   1.18837
C    -2.06537   0.41024   0.53962
O    -3.11441   1.06194   0.61137
N    -2.03255  -0.93614   0.51546
C    -3.25497  -1.71008   0.39239
C    -0.66613   1.14755  -1.88256
C     0.45043   0.25981  -2.02311
H     4.68186  -2.26150   0.86372
H     5.29672  -1.61381  -0.68547
H     4.06030  -2.90779  -0.68037
H     3.62231  -0.00586  -0.23303
H    -1.14893  -1.42146   0.43024
H    -3.97257  -1.44105   1.17989
H    -3.75076  -1.54134  -0.58532
H    -3.01459  -2.77572   0.47854
H    -1.70668   0.79690  -2.03797
H    -0.53539   2.24073  -2.02153
H     0.20707  -0.75028  -2.45584
H     1.36509   0.69751  -2.50627
27

C     4.39424  -1.99058  -0.16543
N     3.34469  -0.97781  -0.21212
C     2.04487  -1.28264  -0.17717
O     1.58082  -2.42084  -0.08464
C     1.04223  -0.14281  -0.39252
N     0.42309   0.38971   0.59568
C    -0.74568   1.12301   0.42608
C    -0.74278   2.48073   0.88714
N    -0.72943   3.60710   1.18747
C    -2.06596   0.40986   0.54311
O    -3.11521   1.06170   0.61151
N    -2.03327  -0.93647   0.51499
C    -3.25560  -1.71015   0.39158
C    -0.66765   1.14899  -1.90148
C     0.44158   0.26574  -2.04953
H     4.68272  -2.26206   0.86338
H     5.29735  -1.61429  -0.68589
H     4.06088  -2.90818  -0.68069
H     3.62303  -0.00633  -0.23129
H    -1.14927  -1.42190   0.43099
H    -3.97276  -1.44110   1.17968
H    -3.75097  -1.54136  -0.58554
H    -3.01478  -2.77575   0.47826
H    -1.70715   0.79742  -2.03811
H    -0.53564   2.24109  -2.02235
H     0.20628  -0.75009  -2.45679
H     1.36487   0.69781  -2.50662
27

C     4.39674  -1.99223  -0.16645
N     3.34793  -0.97985  -0.21168
C     2.04862  -1.28564  -0.17168
O     1.58186  -2.42308  -0.08494
C     1.05222  -0.14694  -0.36821
N     0.41789   0.39455   0.58803
C    -0.74761   1.12189   0.44521
C    -0.74289   2.48165   0.89179
N    -0.72944   3.60945   1.18656
C    -2.06655   0.40949   0.54659
O    -3.11600   1.06146   0.61166
N    -2.03400  -0.93680   0.51452
C    -3.25623  -1.71022   0.39077
C    -0.66917   1.15043  -1.92040
C     0.43273   0.27166  -2.07594
H     4.68359  -2.26262   0.86303
H     5.29799  -1.61476  -0.68632
H     4.06146  -2.90857  -0.68101
H     3.62375  -0.00680  -0.22955
H    -1.14960  -1.42234   0.43175
H    -3.97294  -1.44115   1.17946
H    -3.75117  -1.54138  -0.58576
H    -3.01496  -2.77578   0.47798
H    -1.70762   0.79794  -2.03826
H    -0.53589   2.24144  -2.02317
H     0.20550  -0.74991  -2.45775
H     1.36465   0.69811  -2.50696
27

C     4.39924  -1.99388  -0.16748
N     3.35117  -0.98188  -0.21123
C     2.05236  -1.28864  -0.16620
O     1.58289  -2.42531  -0.08524
C     1.06221  -0.15107  -0.34390
N     0.41268   0.39940   0.58039
C    -0.74955   1.12077   0.46434
C    -0.74301   2.48257   0.89644
N    -0.72944   3.61180   1.18566
C    -2.06715   0.40912   0.55008
O    -3.11680   1.06122   0.61181
N    -2.03472  -0.93713   0.51405
C    -3.25686  -1.71029   0.38996
C    -0.67068   1.15186  -1.93932
C     0.42387   0.27759  -2.10236
H     4.68445  -2.26318   0.86268
H     5.29862  -1.61524  -0.68675
H     4.06204  -2.90896  -0.68134
H     3.62447  -0.00728  -0.22781
H    -1.14993  -1.42278   0.43251
H    -3.97312  -1.44120   1.17924
H    -3.75138  -1.54140  -0.58597
H    -3.01514  -2.77580   0.47771
H    -1.70808   0.79846  -2.03841
H    -0.53615   2.24179  -2.02399
H     0.20472  -0.74973  -2.45871
H     1.36443   0.69841  -2.50731
27

C     4.40174  -1.99553  -0.16850
N     3.35440  -0.98392  -0.21078
C     2.05610  -1.29163  -0.16071
O     1.58393  -2.42754  -0.08554
C     1.07219  -0.15520  -0.31959
N     0.40748   0.40424   0.57274
C    -0.75148   1.11965   0.48347
C    -0.74312   2.48350   0.90109
N    -0.72945   3.61416   1.18475
C    -2.06774   0.40875   0.55356
O    -3.11759   1.06098   0.61195
N    -2.03545  -0.93746   0.51358
C    -3.25749  -1.71036   0.38914
C    -0.67220   1.15330  -1.95824
C     0.41502   0.28352  -2.12877
H     4.68531  -2.26374   0.86234
H     5.29926  -1.61571  -0.68718
H     4.06262  -2.90936  -0.68166
H     3.62519  -0.00775  -0.22606
H    -1.15026  -1.42322   0.43326
H    -3.97331  -1.44125   1.17903
H    -3.75158  -1.54142  -0.58619
H    -3.01533  -2.77583   0.47743
H    -1.70855   0.79897  -2.03856
H    -0.53640   2.24214  -2.02481
H     0.20393  -0.74954  -2.45967
H     1.36421   0.69871  -2.50765
27

C     4.40424  -1.99718  -0.16952
N     3.35764  -0.98595  -0.21033
C     2.05984  -1.29463  -0.15522
O     1.58496  -2.42977  -0.08584
C     1.08218  -0.15933  -0.29529
N     0.40228   0.40908   0.56510
C    -0.75341   1.11853   0.50260
C    -0.74324   2.48442   0.90574
N    -0.72945   3.61651   1.18385
C    -2.06834   0.40838   0.55705
O    -3.11839   1.06074   0.61210
N    -2.03617  -0.93779   0.51311
C    -3.25812  -1.71043   0.38833
C    -0.67371   1.15473  -1.97716
C     0.40617   0.28945  -2.15519
H     4.68617  -2.26430   0.86199
H     5.29989  -1.61619  -0.68761
H     4.06320  -2.90975  -0.68198
H     3.62590  -0.00822  -0.22432
H    -1.15059  -1.42366   0.43402
H    -3.97349  -1.44131   1.17881
H    -3.75179  -1.54143  -0.58641
H    -3.01551  -2.77585   0.47715
H    -1.70901   0.79949  -2.03870
H    -0.53665   2.24249  -2.02563
H     0.20315  -0.74936  -2.46062
H     1.36398   0.69901  -2.50800
27

C     4.40674  -1.99883  -0.17054
N     3.36088  -0.98798  -0.20989
C     2.06358  -1.29763  -0.14974
O     1.58600  -2.43200  -0.08615
C     1.09216  -0.16346  -0.27098
N     0.39707   0.41392   0.55745
C    -0.75534   1.11741   0.52173
C    -0.74336   2.48535   0.91039
N    -0.72946   3.61886   1.18294
C    -2.06893   0.40801   0.56053
O    -3.11918   1.06051   0.61225
N    -2.03690  -0.93812   0.51264
C    -3.25875  -1.71050   0.38752
C    -0.67523   1.15617  -1.99608
C     0.39732   0.29537  -2.18160
H     4.68703  -2.26485   0.86165
H     5.30053  -1.61666  -0.68804
H     4.06378  -2.91014  -0.68231
H     3.62662  -0.00869  -0.22258
H    -1.15092  -1.42410   0.43478
H    -3.97368  -1.44136   1.17859
H    -3.75199  -1.54145  -0.58662
H    -3.01569  -2.77588   0.47688
H    -1.70948   0.80001  -2.03885
H    -0.53691   2.24284  -2.02645
H     0.20237  -0.74918  -2.46158
H     1.36376   0.69932  -2.50834
27

C     4.40924  -2.00048  -0.17156
N     3.36411  -0.99002  -0.20944
C     2.06732  -1.30063  -0.14425
O     1.58703  -2.43423  -0.08645
C     1.10215  -0.16759  -0.24667
N     0.39187   0.41877   0.54981
C    -0.75727   1.11629   0.54086
C    -0.74347   2.48627   0.91504
N    -0.72947   3.62121   1.18204
C    -2.06953   0.40764   0.56402
O    -3.11998   1.06027   0.61239
N    -2.03762  -0.93845   0.51217
C    -3.25938  -1.71057   0.38671
C    -0.67675   1.15761  -2.01500
C     0.38846   0.30130  -2.20802
H     4.68789  -2.26541   0.86130
H     5.30116  -1.61713  -0.68846
H     4.06436  -2.91053  -0.68263
H     3.62734  -0.00916  -0.22084
H    -1.15126  -1.42453   0.43554
H    -3.97386  -1.44141   1.17838
H    -3.75220  -1.54147  -0.58684
H    -3.01588  -2.77590   0.47660
H    -1.70995   0.80053  -2.03900
H    -0.53716   2.24319  -2.02727
H     0.20159  -0.74899  -2.46254
H     1.36354   0.69962  -2.50869
27

C     4.41174  -2.00213  -0.17258
N     3.36735  -0.99205  -0.20899
C     2.07106  -1.30362  -0.13876
O     1.58806  -2.43646  -0.08675
C     1.11214  -0.17172  -0.22237
N     0.38667   0.42361   0.54217
C    -0.75920   1.11517   0.55999
C    -0.74359   2.48719   0.91969
N    -0.72947   3.62356   1.18113
C    -2.07012   0.40726   0.56750
O    -3.12077   1.06003   0.61254
N    -2.03835  -0.93878   0.51170
C    -3.26001  -1.71064   0.38590
C    -0.67826   1.15904  -2.03392
C     0.37961   0.30723  -2.23443
H     4.68876  -2.26597   0.86096
H     5.30180  -1.61761  -0.68889
H     4.06494  -2.91092  -0.68295
H     3.62806  -0.00963  -0.21910
H    -1.15159  -1.42497   0.43629
H    -3.97404  -1.44146   1.17816
H    -3.75240  -1.54149  -0.58706
H    -3.01606  -2.77593   0.47632
H    -1.71041   0.80104  -2.03914
H    -0.53741   2.24354  -2.02809
H     0.20080  -0.74881  -2.46349
H     1.36332   0.69992  -2.50903
27

C     4.41425  -2.00378  -0.17360
N     3.37059  -0.99409  -0.20854
C     2.07481  -1.30662  -0.13328
O     1.58910  -2.43870  -0.08705
C     1.12212  -0.17585  -0.19806
N     0.38146   0.42845   0.53452
C    -0.76113   1.11405   0.57912
C    -0.74370   2.48812   0.92435
N    -0.72948   3.62591   1.18023
C    -2.07071   0.40689   0.57099
O    -3.12156   1.05979   0.61269
N    -2.03907  -0.93912   0.51123
C    -3.26064  -1.71071   0.38509
C    -0.67978   1.16048  -2.05284
C     0.37076   0.31316  -2.26085
H     4.68962  -2.26653   0.86061
H     5.30243  -1.61808  -0.68932
H     4.06552  -2.91132  -0.68328
H     3.62878  -0.01010  -0.21736
H    -1.15192  -1.42541   0.43705
H    -3.97423  -1.44151   1.17795
H    -3.75261  -1.54151  -0.58728
H    -3.01624  -2.77595   0.47605
H    -1.71088   0.80156  -2.03929
H    -0.53767   2.24389  -2.02891
H     0.20002  -0.74862  -2.46445
H     1.36310   0.70022  -2.50938
27

C     4.41675  -2.00543  -0.17463
N     3.37383  -0.99612  -0.20809
C     2.07855  -1.30962  -0.12779
O     1.59013  -2.44093  -0.08735
C     1.13211  -0.17998  -0.17375
N     0.37626   0.43329   0.52688
C    -0.76306   1.11293   0.59825
C    -0.74382   2.48904   0.92900
N    -0.72948   3.62826   1.17932
C    -2.07131   0.40652   0.57447
O    -3.12236   1.05955   0.61283
N    -2.03980  -0.93945   0.51076
C    -3.26127  -1.71078   0.38428
C    -0.68130   1.16191  -2.07176
C     0.36190   0.31908  -2.28726
H     4.69048  -2.26709   0.86027
H     5.30307  -1.61856  -0.68975
H     4.06610  -2.91171  -0.68360
H     3.62950  -0.01057  -0.21562
H    -1.15225  -1.42585   0.43781
H    -3.97441  -1.44156   1.17773
H    -3.75282  -1.54153  -0.58749
H    -3.01643  -2.77598   0.47577
H    -1.71134   0.80208  -2.03944
H    -0.53792   2.24424  -2.02972
H     0.19924  -0.74844  -2.46541
H     1.36287   0.70052  -2.50973
27

C     4.41925  -2.00708  -0.17565
N     3.37706  -0.99816  -0.20765
C     2.08229  -1.31262  -0.12230
O     1.59117  -2.44316  -0.08765
C     1.14210  -0.18411  -0.14944
N     0.37106   0.43814   0.51923
C    -0.76499   1.11180   0.61738
C    -0.74394   2.48996   0.93365
N    -0.72949   3.63061   1.17842
C    -2.07190   0.40615   0.57796
O    -3.12315   1.05931   0.61298
N    -2.04052  -0.93978   0.51029
C    -3.26190  -1.71085   0.38347
C    -0.68281   1.16335  -2.09068
C     0.35305   0.32501  -2.31368
H     4.69134  -2.26765   0.85992
H     5.30370  -1.61903  -0.69018
H     4.06668  -2.91210  -0.68392
H     3.63022  -0.01104  -0.21387
H    -1.15258  -1.42629   0.43856
H    -3.97460  -1.44162   1.17751
H    -3.75302  -1.54154  -0.58771
H    -3.01661  -2.77601   0.47549
H    -1.71181   0.80260  -2.03959
H    -0.53817   2.24459  -2.03054
H     0.19845  -0.74826  -2.46637
H     1.36265   0.70082  -2.51007
27

C     4.42175  -2.00873  -0.17667
N     3.38030  -1.00019  -0.20720
C     2.08603  -1.31561  -0.11682
O     1.59220  -2.44539  -0.08795
C     1.15208  -0.18824  -0.12514
N     0.36585   0.44298   0.51159
C    -0.76692   1.11068   0.63651
C    -0.74405   2.49089   0.93830
N    -0.72950   3.63296   1.17751
C    -2.07250   0.40578   0.58144
O    -3.12395   1.05908   0.61313
N    -2.04125  -0.94011   0.50982
C    -3.26253  -1.71091   0.38266
C    -0.68433   1.16479  -2.10960
C     0.34420   0.33094  -2.34009
H     4.69220  -2.26821   0.85958
H     5.30434  -1.61951  -0.69061
H     4.06726  -2.91249  -0.68425
H     3.63093  -0.01151  -0.21213
H    -1.15291  -1.42673   0.43932
H    -3.97478  -1.44167   1.17730
H    -3.75323  -1.54156  -0.58793
H    -3.01680  -2.77603   0.47522
H    -1.71227   0.80311  -2.03973
H    -0.53843   2.24494  -2.03136
H     0.19767  -0.74807  -2.46732
H     1.36243   0.70112  -2.51042
27

C     4.42425  -2.01038  -0.17769
N     3.38354  -1.00222  -0.20675
C     2.08977  -1.31861  -0.11133
O     1.59324  -2.44762  -0.08825
C     1.16207  -0.19237  -0.10083
N     0.36065   0.44782   0.50394
C    -0.76885   1.10956   0.65564
C    -0.74417   2.49181   0.94295
N    -0.72950   3.63531   1.17660
C    -2.07309   0.40541   0.58492
O    -3.12474   1.05884   0.61327
N    -2.04197  -0.94044   0.50935
C    -3.26316  -1.71098   0.38185
C    -0.68585   1.16622  -2.12852
C     0.33534   0.33687  -2.36651
H     4.69306  -2.26876   0.85923
H     5.30497  -1.61998  -0.69104
H     4.06784  -2.91288  -0.68457
H     3.63165  -0.01198  -0.21039
H    -1.15324  -1.42717   0.44008
H    -3.97497  -1.44172   1.17708
H    -3.75343  -1.54158  -0.58814
H    -3.01698  -2.77606   0.47494
H    -1.71274   0.80363  -2.03988
H    -0.53868   2.24529  -2.03218
H     0.19689  -0.74789  -2.46828
H     1.36221   0.70142  -2.51076
27

C     4.42675  -2.01202  -0.17871
N     3.38677  -1.00426  -0.20630
C     2.09351  -1.32161  -0.10584
O     1.59427  -2.44985  -0.08855
C     1.17206  -0.19650  -0.07652
N     0.35545   0.45267   0.49630
C    -0.77079   1.10844   0.67477
C    -0.74428   2.49273   0.94760
N    -0.72951   3.63766   1.17570
C    -2.07369   0.40503   0.58841
O    -3.12554   1.05860   0.61342
N    -2.04270  -0.94077   0.50888
C    -3.26379  -1.71105   0.38104
C    -0.68736   1.16766  -2.14744
C     0.32649   0.34279  -2.39292
H     4.69393  -2.26932   0.85889
H     5.30561  -1.62046  -0.69146
H     4.06843  -2.91328  -0.68489
H     3.63237  -0.01245  -0.20865
H    -1.15358  -1.42761   0.44083
H    -3.97515  -1.44177   1.17686
H    -3.75364  -1.54160  -0.58836
H    -3.01716  -2.77608   0.47466
H    -1.71321   0.80415  -2.04003
H    -0.53893   2.24564  -2.03300
H     0.19610  -0.74771  -2.46924
H     1.36199   0.70172  -2.51111
27

C     4.42925  -2.01367  -0.17973
N     3.39001  -1.00629  -0.20586
C     2.09725  -1.32461  -0.10035
O     1.59530  -2.45209  -0.08885
C     1.18204  -0.20063  -0.05222
N     0.35024   0.45751   0.48866
C    -0.77272   1.10732   0.69390
C    -0.74440   2.49366   0.95225
N    -0.72951   3.64001   1.17479
C    -2.07428   0.40466   0.59189
O    -3.12633   1.05836   0.61357
N    -2.04342  -0.94110   0.50841
C    -3.26442  -1.71112   0.38022
C    -0.68888   1.16910  -2.16636
C     0.31764   0.34872  -2.41934
H     4.69479  -2.26988   0.85854
H     5.30624  -1.62093  -0.69189
H     4.06901  -2.91367  -0.68522
H     3.63309  -0.01292  -0.20691
H    -1.15391  -1.42805   0.44159
H    -3.97533  -1.44182   1.17665
H    -3.75384  -1.54162  -0.58858
H    -3.01735  -2.77611   0.47438
H    -1.71367   0.80467  -2.04018
H    -0.53919   2.24599  -2.03382
H     0.19532  -0.74752  -2.47019
H     1.36176   0.70202  -2.51145
27

C     4.43175  -2.01532  -0.18076
N     3.39325  -1.00833  -0.20541
C     2.10100  -1.32760  -0.09487
O     1.59634  -2.45432  -0.08915
C     1.19203  -0.20476  -0.02791
N     0.34504   0.46235   0.48101
C    -0.77465   1.10620   0.71303
C    -0.74451   2.49458   0.95690
N    -0.72952   3.64237   1.17389
C    -2.07488   0.40429   0.59538
O    -3.12712   1.05812   0.61372
N    -2.04415  -0.94143   0.50794
C    -3.26505  -1.71119   0.37941
C    -0.69039   1.17053  -2.18528
C     0.30878   0.35465  -2.44576
H     4.69565  -2.27044   0.85820
H     5.30688  -1.62140  -0.69232
H     4.06959  -2.91406  -0.68554
H     3.63381  -0.01339  -0.20517
H    -1.15424  -1.42849   0.44235
H    -3.97552  -1.44187   1.17643
H    -3.75405  -1.54163  -0.58880
H    -3.01753  -2.77613   0.47411
H    -1.71414   0.80518  -2.04032
H    -0.53944   2.24634  -2.03464
H     0.19454  -0.74734  -2.47115
H     1.36154   0.70232  -2.51180
27

C     4.43425  -2.01697  -0.18178
N     3.39649  -1.01036  -0.20496
C     2.10474  -1.33060  -0.08938
O     1.59737  -2.45655  -0.08945
C     1.20202  -0.20889  -0.00360
N     0.33984   0.46719   0.47337
C    -0.77658   1.10508   0.73216
C    -0.74463   2.49550   0.96155
N    -0.72953   3.64472   1.17298
C    -2.07547   0.40392   0.59886
O    -3.12792   1.05788   0.61386
N    -2.04487  -0.94176   0.50747
C    -3.26568  -1.71126   0.37860
C    -0.69191   1.17197  -2.20420
C     0.29993   0.36058  -2.47217
H     4.69651  -2.27100   0.85785
H     5.30751  -1.62188  -0.69275
H     4.07017  -2.91445  -0.68586
H     3.63453  -0.01386  -0.20342
H    -1.15457  -1.42893   0.44310
H    -3.97570  -1.44193   1.17621
H    -3.75425  -1.54165  -0.58901
H    -3.01771  -2.77616   0.47383
H    -1.71460   0.80570  -2.04047
H    -0.53969   2.24669  -2.03546
H     0.19375  -0.74715  -2.47211
H     1.36132   0.70262  -2.51214
27

C     4.43675  -2.01862  -0.18280
N     3.39972  -1.01240  -0.20451
C     2.10848  -1.33360  -0.08389
O     1.59841  -2.45878  -0.08976
C     1.21200  -0.21302   0.02071
N     0.33463   0.47204   0.46572
C    -0.77851   1.10396   0.75129
C    -0.74475   2.49643   0.96621
N    -0.72953   3.64707   1.17208
C    -2.07606   0.40355   0.60235
O    -3.12871   1.05764   0.61401
N    -2.04560  -0.94209   0.50700
C    -3.26631  -1.71133   0.37779
C    -0.69343   1.17340  -2.22312
C     0.29108   0.36650  -2.49859
H     4.69737  -2.27156   0.85751
H     5.30815  -1.62235  -0.69318
H     4.07075  -2.91484  -0.68619
H     3.63525  -0.01433  -0.20168
H    -1.15490  -1.42937   0.44386
H    -3.97589  -1.44198   1.17600
H    -3.75446  -1.54167  -0.58923
H    -3.01790  -2.77618   0.47355
H    -1.71507   0.80622  -2.04062
H    -0.53995   2.24704  -2.03628
H     0.19297  -0.74697  -2.47307
H     1.36110   0.70292  -2.51249
27

C     4.43925  -2.02027  -0.18382
N     3.40296  -1.01443  -0.20406
C     2.11222  -1.33660  -0.07841
O     1.59944  -2.46101  -0.09006
C     1.22199  -0.21715   0.04501
N     0.32943   0.47688   0.45808
C    -0.78044   1.10284   0.77042
C    -0.74486   2.49735   0.97086
N    -0.72954   3.64942   1.17117
C    -2.07666   0.40318   0.60583
O    -3.12951   1.05741   0.61416
N    -2.04632  -0.94242   0.50653
C    -3.26694  -1.71140   0.37698
C    -0.69494   1.17484  -2.24204
C     0.28223   0.37243  -2.52500
H     4.69824  -2.27211   0.85716
H     5.30878  -1.62283  -0.69361
H     4.07133  -2.91524  -0.68651
H     3.63596  -0.01480  -0.19994
H    -1.15523  -1.42981   0.44462
H    -3.97607  -1.44203   1.17578
H    -3.75466  -1.54169  -0.58945
H    -3.01808  -2.77621   0.47328
H    -1.71553   0.80673  -2.04077
H    -0.54020   2.24740  -2.03710
H     0.19219  -0.74679  -2.47402
H     1.36088   0.70322  -2.51283
27

C     4.43675  -2.01862  -0.18280
N     3.39972  -1.01240  -0.20451
C     2.10848  -1.33360  -0.08389
O     1.59841  -2.45878  -0.08976
C     1.21200  -0.21302   0.02071
N     0.33463   0.47204   0.46572
C    -0.77851   1.10396   0.75129
C    -0.74475   2.49643   0.96621
N    -0.72953   3.64707   1.17208
C    -2.07606   0.40355   0.60235
O    -3.12871   1.05764   0.61401
N    -2.04560  -0.94209   0.50700
C    -3.26631  -1.71133   0.37779
C    -0.69343   1.17340  -2.22312
C     0.29108   0.36650  -2.49859
H     4.69737  -2.27156   0.85751
H     5.30815  -1.62235  -0.69318
H     4.07075  -2.91484  -0.68619
H     3.63525  -0.01433  -0.20168
H    -1.15490  -1.42937   0.44386
H    -3.97589  -1.44198   1.17600
H    -3.75446  -1.54167  -0.58923
H    -3.01790  -2.77618   0.47355
H    -1.71507   0.80622  -2.04062
H    -0.53995   2.24704  -2.03628
H     0.19297  -0.74697  -2.47307
H     1.36110   0.70292  -2.51249
27

C     4.43425  -2.01697  -0.18178
N     3.39649  -1.01036  -0.20496
C     2.10474  -1.33060  -0.08938
O     1.59737  -2.45655  -0.08945
C     1.20202  -0.20889  -0.00360
N     0.33984   0.46719   0.47337
C    -0.77658   1.10508   0.73216
C    -0.74463   2.49550   0.96155
N    -0.72953   3.64472   1.17298
C    -2.07547   0.40392   0.59886
O    -3.12792   1.05788   0.61386
N    -2.04487  -0.94176   0.50747
C    -3.26568  -1.71126   0.37860
C    -0.69191   1.17197  -2.20420
C     0.29993   0.36058  -2.47217
H     4.69651  -2.27100   0.85785
H     5.30751  -1.62188  -0.69275
H     4.07017  -2.91445  -0.68586
H     3.63453  -0.01386  -0.20342
H    -1.15457  -1.42893   0.44310
H    -3.97570  -1.44193   1.17621
H    -3.75425  -1.54165  -0.58901
H    -3.01771  -2.77616   0.47383
H    -1.71460   0.80570  -2.04047
H    -0.53969   2.24669  -2.03546
H     0.19375  -0.74715  -2.47211
H     1.36132   0.70262  -2.51214
27

C     4.43175  -2.01532  -0.18076
N     3.39325  -1.00833  -0.20541
C     2.10100  -1.32760  -0.09487
O     1.59634  -2.45432  -0.08915
C     1.19203  -0.20476  -0.02791
N     0.34504   0.46235   0.48101
C    -0.77465   1.10620   0.71303
C    -0.74451   2.49458   0.95690
N    -0.72952   3.64237   1.17389
C    -2.07488   0.40429   0.59538
O    -3.12712   1.05812   0.61372
N    -2.04415  -0.94143   0.50794
C    -3.26505  -1.71119   0.37941
C    -0.69039   1.17053  -2.18528
C     0.30878   0.35465  -2.44576
H     4.69565  -2.27044   0.85820
H     5.30688  -1.62140  -0.69232
H     4.06959  -2.91406  -0.68554
H     3.63381  -0.01339  -0.20517
H    -1.15424  -1.42849   0.44235
H    -3.97552  -1.44187   1.17643
H    -3.75405  -1.54163  -0.58880
H    -3.01753  -2.77613   0.47411
H    -1.71414   0.80518  -2.04032
H    -0.53944   2.24634  -2.03464
H     0.19454  -0.74734  -2.47115
H     1.36154   0.70232  -2.51180
27

C     4.42925  -2.01367  -0.17973
N     3.39001  -1.00629  -0.20586
C     2.09725  -1.32461  -0.10035
O     1.59530  -2.45209  -0.08885
C     1.18204  -0.20063  -0.05222
N     0.35024   0.45751   0.48866
C    -0.77272   1.10732   0.69390
C    -0.74440   2.49366   0.95225
N    -0.72951   3.64001   1.17479
C    -2.07428   0.40466   0.59189
O    -3.12633   1.05836   0.61357
N    -2.04342  -0.94110   0.50841
C    -3.26442  -1.71112   0.38022
C    -0.68888   1.16910  -2.16636
C     0.31764   0.34872  -2.41934
H     4.69479  -2.26988   0.85854
H     5.30624  -1.62093  -0.69189
H     4.06901  -2.91367  -0.68522
H     3.63309  -0.01292  -0.20691
H    -1.15391  -1.42805   0.44159
H    -3.97533  -1.44182   1.17665
H    -3.75384  -1.54162  -0.58858
H    -3.01735  -2.77611   0.47438
H    -1.71367   0.80467  -2.04018
H    -0.53919   2.24599  -2.03382
H     0.19532  -0.74752  -2.47019
H     1.36176   0.70202  -2.51145
27

C     4.42675  -2.01202  -0.17871
N     3.38677  -1.00426  -0.20630
C     2.09351  -1.32161  -0.10584
O     1.59427  -2.44985  -0.08855
C     1.17206  -0.19650  -0.07652
N     0.35545   0.45267   0.49630
C    -0.77079   1.10844   0.67477
C    -0.74428   2.49273   0.94760
N    -0.72951   3.63766   1.17570
C    -2.07369   0.40503   0.58841
O    -3.12554   1.05860   0.61342
N    -2.04270  -0.94077   0.50888
C    -3.26379  -1.71105   0.38104
C    -0.68736   1.16766  -2.14744
C     0.32649   0.34279  -2.39292
H     4.69393  -2.26932   0.85889
H     5.30561  -1.62046  -0.69146
H     4.06843  -2.91328  -0.68489
H     3.63237  -0.01245  -0.20865
H    -1.15358  -1.42761   0.44083
H    -3.97515  -1.44177   1.17686
H    -3.75364  -1.54160  -0.58836
H    -3.01716  -2.77608   0.47466
H    -1.71321   0.80415  -2.04003
H    -0.53893   2.24564  -2.03300
H     0.19610  -0.74771  -2.46924
H     1.36199   0.70172  -2.51111
27

C     4.42425  -2.01038  -0.17769
N     3.38354  -1.00222  -0.20675
C     2.08977  -1.31861  -0.11133
O     1.59324  -2.44762  -0.08825
C     1.16207  -0.19237  -0.10083
N     0.36065   0.44782   0.50394
C    -0.76885   1.10956   0.65564
C    -0.74417   2.49181   0.94295
N    -0.72950   3.63531   1.17660
C    -2.07309   0.40541   0.58492
O    -3.12474   1.05884   0.61327
N    -2.04197  -0.94044   0.50935
C    -3.26316  -1.71098   0.38185
C    -0.68585   1.16622  -2.12852
C     0.33534   0.33687  -2.36651
H     4.69306  -2.26876   0.85923
H     5.30497  -1.61998  -0.69104
H     4.06784  -2.91288  -0.68457
H     3.63165  -0.01198  -0.21039
H    -1.15324  -1.42717   0.44008
H    -3.97497  -1.44172   1.17708
H    -3.75343  -1.54158  -0.58814
H    -3.01698  -2.77606   0.47494
H    -1.71274   0.80363  -2.03988
H    -0.53868   2.24529  -2.03218
H     0.19689  -0.74789  -2.46828
H     1.36221   0.70142  -2.51076
27

C     4.42175  -2.00873  -0.17667
N     3.38030  -1.00019  -0.20720
C     2.08603  -1.31561  -0.11682
O     1.59220  -2.44539  -0.08795
C     1.15208  -0.18824  -0.12514
N     0.36585   0.44298   0.51159
C    -0.76692   1.11068   0.63651
C    -0.74405   2.49089   0.93830
N    -0.72950   3.63296   1.17751
C    -2.07250   0.40578   0.58144
O    -3.12395   1.05908   0.61313
N    -2.04125  -0.94011   0.50982
C    -3.26253  -1.71091   0.38266
C    -0.68433   1.16479  -2.10960
C     0.34420   0.33094  -2.34009
H     4.69220  -2.26821   0.85958
H     5.30434  -1.61951  -0.69061
H     4.06726  -2.91249  -0.68425
H     3.63093  -0.01151  -0.21213
H    -1.15291  -1.42673   0.43932
H    -3.97478  -1.44167   1.17730
H    -3.75323  -1.54156  -0.58793
H    -3.01680  -2.77603   0.47522
H    -1.71227   0.80311  -2.03973
H    -0.53843   2.24494  -2.03136
H     0.19767  -0.74807  -2.46732
H     1.36243   0.70112  -2.51042
27

C     4.41925  -2.00708  -0.17565
N     3.37706  -0.99816  -0.20765
C     2.08229  -1.31262  -0.12230
O     1.59117  -2.44316  -0.08765
C     1.14210  -0.18411  -0.14944
N     0.37106   0.43814   0.51923
C    -0.76499   1.11180   0.61738
C    -0.74394   2.48996   0.93365
N    -0.72949   3.63061   1.17842
C    -2.07190   0.40615   0.57796
O    -3.12315   1.05931   0.61298
N    -2.04052  -0.93978   0.51029
C    -3.26190  -1.71085   0.38347
C    -0.68281   1.16335  -2.09068
C     0.35305   0.32501  -2.31368
H     4.69134  -2.26765   0.85992
H     5.30370  -1.61903  -0.69018
H     4.06668  -2.91210  -0.68392
H     3.63022  -0.01104  -0.21387
H    -1.15258  -1.42629   0.43856
H    -3.97460  -1.44162   1.17751
H    -3.75302  -1.54154  -0.58771
H    -3.01661  -2.77601   0.47549
H    -1.71181   0.80260  -2.03959
H    -0.53817   2.24459  -2.03054
H     0.19845  -0.74826  -2.46637
H     1.36265   0.70082  -2.51007
27

C     4.41675  -2.00543  -0.17463
N     3.37383  -0.99612  -0.20809
C     2.07855  -1.30962  -0.12779
O     1.59013  -2.44093  -0.08735
C     1.13211  -0.17998  -0.17375
N     0.37626   0.43329   0.52688
C    -0.76306   1.11293   0.59825
C    -0.74382   2.48904   0.92900
N    -0.72948   3.62826   1.17932
C    -2.07131   0.40652   0.57447
O    -3.12236   1.05955   0.61283
N    -2.03980  -0.93945   0.51076
C    -3.26127  -1.71078   0.38428
C    -0.68130   1.16191  -2.07176
C     0.36190   0.31908  -2.28726
H     4.69048  -2.26709   0.86027
H     5.30307  -1.61856  -0.68975
H     4.06610  -2.91171  -0.68360
H     3.62950  -0.01057  -0.21562
H    -1.15225  -1.42585   0.43781
H    -3.97441  -1.44156   1.17773
H    -3.75282  -1.54153  -0.58749
H    -3.01643  -2.77598   0.47577
H    -1.71134   0.80208  -2.03944
H    -0.53792   2.24424  -2.02972
H     0.19924  -0.74844  -2.46541
H     1.36287   0.70052  -2.50973
27

C     4.41425  -2.00378  -0.17360
N     3.37059  -0.99409  -0.20854
C     2.07481  -1.30662  -0.13328
O     1.58910  -2.43870  -0.08705
C     1.12212  -0.17585  -0.19806
N     0.38146   0.42845   0.53452
C    -0.76113   1.11405   0.57912
C    -0.74370   2.48812   0.92435
N    -0.72948   3.62591   1.18023
C    -2.07071   0.40689   0.57099
O    -3.12156   1.05979   0.61269
N    -2.03907  -0.93912   0.51123
C    -3.26064  -1.71071   0.38509
C    -0.67978   1.16048  -2.05284
C     0.37076   0.31316  -2.26085
H     4.68962  -2.26653   0.86061
H     5.30243  -1.61808  -0.68932
H     4.06552  -2.91132  -0.68328
H     3.62878  -0.01010  -0.21736
H    -1.15192  -1.42541   0.43705
H    -3.97423  -1.44151   1.17795
H    -3.75261  -1.54151  -0.58728
H    -3.01624  -2.77595   0.47605
H    -1.71088   0.80156  -2.03929
H    -0.53767   2.24389  -2.02891
H     0.20002  -0.74862  -2.46445
H     1.36310   0.70022  -2.50938
27

C     4.41174  -2.00213  -0.17258
N     3.36735  -0.99205  -0.20899
C     2.07106  -1.30362  -0.13876
O     1.58806  -2.43646  -0.08675
C     1.11214  -0.17172  -0.22237
N     0.38667   0.42361   0.54217
C    -0.75920   1.11517   0.55999
C    -0.74359   2.48719   0.91969
N    -0.72947   3.62356   1.18113
C    -2.07012   0.40726   0.56750
O    -3.12077   1.06003   0.61254
N    -2.03835  -0.93878   0.51170
C    -3.26001  -1.71064   0.38590
C    -0.67826   1.15904  -2.03392
C     0.37961   0.30723  -2.23443
H     4.68876  -2.26597   0.86096
H     5.30180  -1.61761  -0.68889
H     4.06494  -2.91092  -0.68295
H     3.62806  -0.00963  -0.21910
H    -1.15159  -1.42497   0.43629
H    -3.97404  -1.44146   1.17816
H    -3.75240  -1.54149  -0.58706
H    -3.01606  -2.77593   0.47632
H    -1.71041   0.80104  -2.03914
H    -0.53741   2.24354  -2.02809
H     0.20080  -0.74881  -2.46349
H     1.36332   0.69992  -2.50903
27

C     4.40924  -2.00048  -0.17156
N     3.36411  -0.99002  -0.20944
C     2.06732  -1.30063  -0.14425
O     1.58703  -2.43423  -0.08645
C     1.10215  -0.16759  -0.24667
N     0.39187   0.41877   0.54981
C    -0.75727   1.11629   0.54086
C    -0.74347   2.48627   0.91504
N    -0.72947   3.62121   1.18204
C    -2.06953   0.40764   0.56402
O    -3.11998   1.06027   0.61239
N    -2.03762  -0.93845   0.51217
C    -3.25938  -1.71057   0.38671
C    -0.67675   1.15761  -2.01500
C     0.38846   0.30130  -2.20802
H     4.68789  -2.26541   0.86130
H     5.30116  -1.61713  -0.68846
H     4.06436  -2.91053  -0.68263
H     3.62734  -0.00916  -0.22084
H    -1.15126  -1.42453   0.43554
H    -3.97386  -1.44141   1.17838
H    -3.75220  -1.54147  -0.58684
H    -3.01588  -2.77590   0.47660
H    -1.70995   0.80053  -2.03900
H    -0.53716   2.24319  -2.02727
H     0.20159  -0.74899  -2.46254
H     1.36354   0.69962  -2.50869
27

C     4.40674  -1.99883  -0.17054
N     3.36088  -0.98798  -0.20989
C     2.06358  -1.29763  -0.14974
O     1.58600  -2.43200  -0.08615
C     1.09216  -0.16346  -0.27098
N     0.39707   0.41392   0.55745
C    -0.75534   1.11741   0.52173
C    -0.74336   2.48535   0.91039
N    -0.72946   3.61886   1.18294
C    -2.06893   0.40801   0.56053
O    -3.11918   1.06051   0.61225
N    -2.03690  -0.93812   0.51264
C    -3.25875  -1.71050   0.38752
C    -0.67523   1.15617  -1.99608
C     0.39732   0.29537  -2.18160
H     4.68703  -2.26485   0.86165
H     5.30053  -1.61666  -0.68804
H     4.06378  -2.91014  -0.68231
H     3.62662  -0.00869  -0.22258
H    -1.15092  -1.42410   0.43478
H    -3.97368  -1.44136   1.17859
H    -3.75199  -1.54145  -0.58662
H    -3.01569  -2.77588   0.47688
H    -1.70948   0.80001  -2.03885
H    -0.53691   2.24284  -2.02645
H     0.20237  -0.74918  -2.46158
H     1.36376   0.69932  -2.50834
27

C     4.40424  -1.99718  -0.16952
N     3.35764  -0.98595  -0.21033
C     2.05984  -1.29463  -0.15522
O     1.58496  -2.42977  -0.08584
C     1.08218  -0.15933  -0.29529
N     0.40228   0.40908   0.56510
C    -0.75341   1.11853   0.50260
C    -0.74324   2.48442   0.90574
N    -0.72945   3.61651   1.18385
C    -2.06834   0.40838   0.55705
O    -3.11839   1.06074   0.61210
N    -2.03617  -0.93779   0.51311
C    -3.25812  -1.71043   0.38833
C    -0.67371   1.15473  -1.97716
C     0.40617   0.28945  -2.15519
H     4.68617  -2.26430   0.86199
H     5.29989  -1.61619  -0.68761
H     4.06320  -2.90975  -0.68198
H     3.62590  -0.00822  -0.22432
H    -1.15059  -1.42366   0.43402
H    -3.97349  -1.44131   1.17881
H    -3.75179  -1.54143  -0.58641
H    -3.01551  -2.77585   0.47715
H    -1.70901   0.79949  -2.03870
H    -0.53665   2.24249  -2.02563
H     0.20315  -0.74936  -2.46062
H     1.36398   0.69901  -2.50800
27

C     4.40174  -1.99553  -0.16850
N     3.35440  -0.98392  -0.21078
C     2.05610  -1.29163  -0.16071
O     1.58393  -2.42754  -0.08554
C     1.07219  -0.15520  -0.31959
N     0.40748   0.40424   0.57274
C    -0.75148   1.11965   0.48347
C    -0.74312   2.48350   0.90109
N    -0.72945   3.61416   1.18475
C    -2.06774   0.40875   0.55356
O    -3.11759   1.06098   0.61195
N    -2.03545  -0.93746   0.51358
C    -3.25749  -1.71036   0.38914
C    -0.67220   1.15330  -1.95824
C     0.41502   0.28352  -2.12877
H     4.68531  -2.26374   0.86234
H     5.29926  -1.61571  -0.68718
H     4.06262  -2.90936  -0.68166
H     3.62519  -0.00775  -0.22606
H    -1.15026  -1.42322   0.43326
H    -3.97331  -1.44125   1.17903
H    -3.75158  -1.54142  -0.58619
H    -3.01533  -2.77583   0.47743
H    -1.70855   0.79897  -2.03856
H    -0.53640   2.24214  -2.02481
H     0.20393  -0.74954  -2.45967
H     1.36421   0.69871  -2.50765
27

C     4.39924  -1.99388  -0.16748
N     3.35117  -0.98188  -0.21123
C     2.05236  -1.28864  -0.16620
O     1.58289  -2.42531  -0.08524
C     1.06221  -0.15107  -0.34390
N     0.41268   0.39940   0.58039
C    -0.74955   1.12077   0.46434
C    -0.74301   2.48257   0.89644
N    -0.72944   3.61180   1.18566
C    -2.06715   0.40912   0.55008
O    -3.11680   1.06122   0.61181
N    -2.03472  -0.93713   0.51405
C    -3.25686  -1.71029   0.38996
C    -0.67068   1.15186  -1.93932
C     0.42387   0.27759  -2.10236
H     4.68445  -2.26318   0.86268
H     5.29862  -1.61524  -0.68675
H     4.06204  -2.90896  -0.68134
H     3.62447  -0.00728  -0.22781
H    -1.14993  -1.42278   0.43251
H    -3.97312  -1.44120   1.17924
H    -3.75138  -1.54140  -0.58597
H    -3.01514  -2.77580   0.47771
H    -1.70808   0.79846  -2.03841
H    -0.53615   2.24179  -2.02399
H     0.20472  -0.74973  -2.45871
H     1.36443   0.69841  -2.50731
27

C     4.39674  -1.99223  -0.16645
N     3.34793  -0.97985  -0.21168
C     2.04862  -1.28564  -0.17168
O     1.58186  -2.42308  -0.08494
C     1.05222  -0.14694  -0.36821
N     0.41789   0.39455   0.58803
C    -0.74761   1.12189   0.44521
C    -0.74289   2.48165   0.89179
N    -0.72944   3.60945   1.18656
C    -2.06655   0.40949   0.54659
O    -3.11600   1.06146   0.61166
N    -2.03400  -0.93680   0.51452
C    -3.25623  -1.71022   0.39077
C    -0.66917   1.15043  -1.92040
C     0.43273   0.27166  -2.07594
H     4.68359  -2.26262   0.86303
H     5.29799  -1.61476  -0.68632
H     4.06146  -2.90857  -0.68101
H     3.62375  -0.00680  -0.22955
H    -1.14960  -1.42234   0.43175
H    -3.97294  -1.44115   1.17946
H    -3.75117  -1.54138  -0.58576
H    -3.01496  -2.77578   0.47798
H    -1.70762   0.79794  -2.03826
H    -0.53589   2.24144  -2.02317
H     0.20550  -0.74991  -2.45775
H     1.36465   0.69811  -2.50696
27

C     4.39424  -1.99058  -0.16543
N     3.34469  -0.97781  -0.21212
C     2.04487  -1.28264  -0.17717
O     1.58082  -2.42084  -0.08464
C     1.04223  -0.14281  -0.39252
N     0.42309   0.38971   0.59568
C    -0.74568   1.12301   0.42608
C    -0.74278   2.48073   0.88714
N    -0.72943   3.60710   1.18747
C    -2.06596   0.40986   0.54311
O    -3.11521   1.06170   0.61151
N    -2.03327  -0.93647   0.51499
C    -3.25560  -1.71015   0.39158
C    -0.66765   1.14899  -1.90148
C     0.44158   0.26574  -2.04953
H     4.68272  -2.26206   0.86338
H     5.29735  -1.61429  -0.68589
H     4.06088  -2.90818  -0.68069
H     3.62303  -0.00633  -0.23129
H    -1.14927  -1.42190   0.43099
H    -3.97276  -1.44110   1.17968
H    -3.75097  -1.54136  -0.58554
H    -3.01478  -2.77575   0.47826
H    -1.70715   0.79742  -2.03811
H    -0.53564   2.24109  -2.02235
H     0.20628  -0.75009  -2.45679
H     1.36487   0.69781  -2.50662
27

C     4.39174  -1.98894  -0.16441
N     3.34145  -0.97578  -0.21257
C     2.04113  -1.27964  -0.18266
O     1.57979  -2.41861  -0.08434
C     1.03225  -0.13868  -0.41682
N     0.42829   0.38487   0.60332
C    -0.74375   1.12413   0.40696
C    -0.74266   2.47980   0.88248
N    -0.72942   3.60475   1.18837
C    -2.06537   0.41024   0.53962
O    -3.11441   1.06194   0.61137
N    -2.03255  -0.93614   0.51546
C    -3.25497  -1.71008   0.39239
C    -0.66613   1.14755  -1.88256
C     0.45043   0.25981  -2.02311
H     4.68186  -2.26150   0.86372
H     5.29672  -1.61381  -0.68547
H     4.06030  -2.90779  -0.68037
H     3.62231  -0.00586  -0.23303
H    -1.14893  -1.42146   0.43024
H    -3.97257  -1.44105   1.17989
H    -3.75076  -1.54134  -0.58532
H    -3.01459  -2.77572   0.47854
H    -1.70668   0.79690  -2.03797
H    -0.53539   2.24073  -2.02153
H     0.20707  -0.75028  -2.45584
H     1.36509   0.69751  -2.50627
