17

C 4.946048802 -0.557061404 0.521079696
O 2.775371331 0.352145966 -0.707454898
C 0.555431062 -0.762346132 0.184418089
C -1.722870659 0.359623423 -1.196810193
C -4.180952891 -1.003143803 -0.821480406
C -1.950425696 3.220104655 0.864465666
O -2.251984695 3.587041941 -1.527905026
H 4.882983180 -0.160676647 2.555180461
H 6.565422638 0.407370717 -0.302184952
H 5.168949198 -2.601854826 0.249688662
H 0.383756114 -0.603259274 2.240781775
H 0.510683122 -2.791898384 -0.302229512
H -1.144229395 0.426086357 -3.178817295
H -5.733435468 0.185124317 -1.455800201
H -4.177461036 -2.723975410 -1.968766168
H -4.486143490 -1.488633418 1.153045969
H -0.155282915 4.176669959 1.499530656

