16

C -1.406321842 -2.007875638 0.184882943
C -1.196150565 -0.157140667 -2.002184199
C -1.644715630 2.532302530 -1.015750336
C 0.814273217 2.318738817 0.593637752
C 1.304594880 -0.169274977 -0.754090675
N 3.130682040 -1.884840200 -0.829834261
O 4.194474354 -1.952486783 1.371551864
H -2.784658446 -1.537993366 1.628016196
H 0.484551649 -2.513055783 2.483635506
H -1.357753424 -3.961539607 -0.421644140
H -1.650538198 -0.830173335 -3.884371412
H -1.469859669 3.948710558 -2.497056454
H -3.408710282 2.827736397 0.007152217
H 0.593900367 2.234204508 2.638279599
H 2.241208475 3.728447426 0.133584324
H 2.249460210 -2.542205904 2.748098369

