17

C -4.196998783 0.499413551 0.225553269
C -1.409554842 0.317667232 0.820520519
C -0.348868784 -2.346272108 0.512989816
C 2.493779801 -2.575250902 0.605233886
C 3.724347533 -0.291864836 0.093940893
C 2.443843524 2.240145466 -0.239464961
O -0.123201904 2.001685727 -0.836566978
H -5.278125838 -0.767835938 1.441796480
H -4.536850700 -0.032257549 -1.739067256
H -4.881553205 2.422842752 0.504773929
H -1.077823248 0.951497929 2.776386057
H -1.002243538 -3.165685115 -1.274366216
H -1.110718693 -3.595010274 1.973742838
H 3.571731777 -1.855948158 -1.639469297
H 5.778183824 -0.228092664 0.270897645
H 2.707111872 3.330529629 1.515614304
H 3.323010258 3.309470994 -1.768467445

