14

C -4.690589539 0.594276196 0.262316682
O -2.974159577 -1.413485964 0.467319179
C -0.471537615 -0.637629310 0.180047379
C 1.242253533 -2.878170391 0.397134978
C 4.610098224 0.178839561 -0.265525966
O 3.621455744 -2.331361337 0.164328637
H -4.360650142 2.035147221 1.720581161
H -4.578048355 1.510969621 -1.597561332
H -6.578952227 -0.184919830 0.507731672
H 0.031109635 0.785445880 1.628306118
H -0.194846089 0.281321884 -1.678943635
H 3.882534976 0.948929073 -2.031912425
H 4.128381769 1.423905441 1.303029015
H 6.647989704 -0.038581253 -0.384970735

