10

C -1.664751300 2.854711671 -1.371335717
C -2.085160844 0.566164574 -0.509493199
C -2.302563612 -2.137986570 -1.024225210
H -3.968520822 -2.818423940 -2.002383376
H -0.595532429 -3.203519511 -1.406363151
C -2.654396015 -1.071705921 1.639680002
H -4.550638898 -1.049934764 2.413800942
H -1.179097261 -1.434462321 3.013341272
H -1.272137190 3.186197639 -3.354188055
H -1.698095915 4.481513264 -0.127209484

