15

C -0.651741577 2.526930738 -1.100526890
C -1.057762992 0.102484856 -0.195451293
C -2.174888650 -2.303840821 -0.940457279
C -2.474245551 -1.262726032 1.735243603
O 2.414466749 -1.443406168 0.813448597
C 4.275430826 -0.030106531 0.514106379
O 4.224172307 2.130781951 -0.487796724
H -0.919624220 2.810485352 -3.116217906
H 1.836646741 2.512163454 -0.887844564
H -1.226683343 4.073895409 0.119755233
H -3.742744678 -2.204935995 -2.254238212
H -0.951427253 -3.926379948 -1.132773157
H -4.252114251 -0.426547280 2.313197138
H -1.438692397 -2.244726144 3.194658132
H 6.131872373 -0.714762828 1.183879402

