9

C -3.295279075 0.884206482 -0.680651514
C -2.820510500 -0.330599233 1.826464935
C -1.814238293 -2.596949418 2.158745419
H -1.250412105 -3.762308125 0.567801133
H -1.518963711 -3.374430083 4.029243750
H -3.356512910 0.766151814 3.480315728
H -2.278814441 2.675747445 -0.834361667
H -5.301880433 1.310768162 -0.924224078
H -2.701286281 -0.335721732 -2.232555986

