16

C -2.959272372 1.195276964 -0.597784359
C -1.492576180 -0.313454863 1.312555030
C -1.115342456 -2.896180747 0.963246526
O 2.163950367 -2.647999973 -1.005613694
C 2.048336356 -0.688990592 0.483257848
C 2.931850764 1.813675363 -0.533723494
H -2.508483723 3.203976730 -0.473602897
H -4.999740230 1.003815960 -0.328182216
H -2.519184543 0.570066386 -2.515546933
H -1.407638717 0.408276520 3.227304095
H -1.844516997 -3.880722767 -0.672115981
H -0.473483542 -4.086210187 2.498399029
H 2.617933391 -0.943779153 2.473738916
H 4.955609399 1.588577669 -0.899833497
H 2.655139471 3.354791331 0.808129944
H 2.009806428 2.248490969 -2.322575093

