11

O 3.477631410 -0.549978484 1.772321144
C 1.662748021 -1.335791688 0.003487055
C -0.872349622 -0.591926945 0.953738671
O -2.208829587 3.099805578 -1.275360987
C -2.988460817 -0.888083425 -0.445525932
N -4.484779675 -0.010734703 -1.851921511
H 5.120889324 -0.646845372 1.019809884
H 1.917689914 -0.463897169 -1.858680646
H 1.688518820 -3.399034110 -0.254453437
H -1.058728907 -0.082956501 2.930922341
H -2.234751300 4.827490900 -1.893929367

