11

O -1.331746919 2.695032383 -0.880407603
C -1.980852649 0.460003804 0.345484454
C -0.368595011 -1.889183376 -0.566936224
C 1.916695861 -1.760218072 0.953250253
C 3.609282147 0.170316367 0.378771961
N 5.104379732 1.765225809 0.152799683
H 0.141347187 3.441788993 -0.127860155
H -3.920024591 0.013497974 -0.183378645
H -1.450122727 -3.601586899 -0.198417312
H -0.109832451 -1.597586295 -2.597116867
H -1.912867881 0.631924133 2.405333041

