12

O 4.838916940 1.550650960 1.704034757
C 3.199483529 -0.072211556 0.339404204
C 0.635447206 -0.255989633 1.524631982
C -1.443356014 0.478926142 0.375544800
C -4.083305678 0.948821094 0.051177582
H -4.935187582 2.630016299 0.857921941
H -5.356893138 -0.588439531 -0.414661413
O -2.160408737 1.457456017 -1.866506701
H 0.480153292 -0.979006294 3.432756197
H 3.018835689 0.532455148 -1.633325949
H 4.129975885 -1.913139000 0.344687557
H 4.030368345 3.167540789 1.842092932

