9

C -2.289391295 0.662451279 -2.076289809
C -1.251893480 -2.035379449 -1.743436265
H 0.636796848 -2.220158268 -0.954824697
H -1.640777989 -3.272598676 -3.324921583
C -3.165997808 -1.641542081 0.186147888
H -5.099876722 -2.295813094 0.252878426
O -2.214896798 -0.342297828 2.282995498
C -2.719196765 1.464680874 0.378511160
H -3.788183048 3.106367784 0.982628785

