14

C 3.455734378 1.093819439 0.691682356
C -0.113615191 0.901357769 -1.384553293
C -0.742877815 -1.928453019 -1.469835329
C -3.069406309 -1.154937434 0.036174177
O -2.233753619 -0.516153104 2.467030974
C -2.032950187 1.415344169 0.548158715
H 2.531004609 0.105646859 2.226729677
H 4.132603946 2.942644558 1.289237681
H 4.941745669 -0.039449639 -0.164087338
H 2.198996586 1.716814124 -1.162812867
H 0.429448255 -3.261096027 -0.422729920
H -1.041594269 -2.600732083 -3.392576878
H -5.030475340 -1.671759501 -0.232487752
H -2.982215007 3.172416868 0.976203830

