10

N 3.296910494 -0.127653022 -0.049511769
C 0.848045949 0.418046196 0.620973037
N -0.717331061 -1.552698081 1.498986944
C -2.794186483 -1.386205972 0.209778025
N -3.176961338 0.702937055 -1.333599663
N -1.128590286 1.973389119 -0.811129053
N 0.078022785 2.961669640 1.078702046
H 3.549921900 -1.663765317 -1.140938928
H 4.391973033 1.364023592 -0.477286181
H -4.353515708 -2.696417723 0.401612363

