17

C -5.008483501 -0.733650263 1.142504888
C -2.200875559 -0.493022951 1.297844703
C -0.564511025 -2.096027185 0.262538422
C 2.208434596 -1.956760587 0.454534729
C 3.773215624 -0.017008064 0.097154354
C 3.325817049 2.626239077 -0.819968871
O 0.883765080 3.257358697 -1.651338912
H -5.839931494 -0.882208399 3.027702189
H -5.571604822 -2.389363589 0.050867875
H -5.835861156 0.941040827 0.259806615
H -1.474277622 1.122797577 2.334741339
H 0.066436383 1.759003470 -2.263734993
H -1.301190123 -3.763891885 -0.691966703
H 3.094367267 -3.741681537 0.958391819
H 5.769163311 -0.382991039 0.423432652
H 3.814033349 3.952672369 0.693735751
H 4.697604826 2.971215989 -2.343342087

