17

C -4.304546611 0.186729829 0.690328084
C -1.495632869 -0.067063130 0.930495342
C -0.243919234 -2.331616091 0.001116261
C 2.476562204 -2.224686354 0.403527071
C 3.682072300 0.011466650 0.402098608
C 2.359444274 2.362012317 -0.517467050
O -0.222849563 1.804600652 -1.240937830
H -5.197312116 -0.907616504 2.195695007
H -4.966898566 -0.541534242 -1.119156320
H -4.895919432 2.149825496 0.884149091
H -0.722644819 0.812877031 2.636548969
H -0.157316412 -0.203099657 -2.023959834
H -1.247295341 -4.111357869 -0.032105445
H 3.546504727 -3.953045231 0.690853579
H 5.689819984 0.167817922 0.763673098
H 2.348421482 3.921056382 0.840213318
H 3.226748403 3.068263006 -2.255971337

