11

N 4.200137542 0.582820846 -0.116881677
C 1.885774235 0.093401603 0.104660478
C 0.855076675 -2.500932793 0.071830342
N -1.429956477 -2.627651610 0.851661411
C -2.787417617 -0.857670494 1.744593949
C -2.561898495 1.308134583 -0.141466712
O 0.069820883 1.937643286 0.258971318
H 4.503719342 2.479402028 -0.224957684
H 1.834360664 -4.053838630 -0.819323095
H -2.901057318 0.783586389 -2.114479189
H -3.616699662 2.986281982 0.381428122

