15

C -1.566349104 -0.948328631 -0.750914612
C -3.373992385 1.337056142 -0.603917295
C -1.549279132 2.640679174 1.215608659
O -1.411118175 4.699045024 2.087878856
C 0.099353863 0.210498539 1.397320510
C 2.835578629 0.369309611 1.589973269
C 4.204482174 -1.637124695 0.246763990
H -0.376328337 -0.585273390 3.268689438
H -0.567968714 -1.047704811 -2.549675765
H -2.404193631 -2.784841788 -0.357575300
H -5.179585219 0.945020533 0.313391009
H -3.726792990 2.376563170 -2.346486384
H 6.112575038 -1.070393865 -0.289173999
H 4.485502930 -3.017647032 1.786456239
H 3.246771298 -2.622596630 -1.306797828

