15

C -1.850272101 -0.934764479 -0.959386061
C -3.465537635 1.330767530 -0.334152409
C -1.435992810 2.738679161 1.192249509
O -1.347572524 4.889168329 1.850600082
C 0.487620507 0.676036747 1.318482251
C 3.005296274 0.495753416 1.555737403
C 4.332259369 -1.787089089 0.661486196
H -0.553671273 -1.166372337 1.751697165
H -0.833831335 -0.892939284 -2.737187203
H -2.610269436 -2.804677241 -0.569824671
H -5.119750575 0.892459199 0.814080106
H -4.059175368 2.435868351 -1.966369353
H 5.397537235 -1.215849127 -1.021205428
H 5.762135438 -2.396937139 2.016756274
H 3.119880497 -3.395846463 0.128576890

