14

C 3.819241529 -0.759372081 -0.114579235
C 1.696472545 0.959405223 -0.813838127
C -0.687321548 0.091076333 -1.437831362
C -3.117604417 -1.383394494 1.386563206
O -3.429464747 1.299285865 1.648907704
C -2.128533120 2.099705953 -0.244102367
H 3.800603254 -2.448761007 -1.304062695
H 3.611392990 -1.410693931 1.840624690
H 5.652304877 0.166535554 -0.286532936
H 1.965442764 2.977295521 -0.556165522
H -1.192298793 -1.333717941 -2.820595406
H -3.126632186 -2.251121298 3.251111356
H -4.572611103 -2.136795683 0.147674859
H -2.201959468 4.096026691 -0.716060106

