8

N -4.278329515 -2.036669660 -0.314933460
C -3.305349614 -0.429877563 1.264494249
C -0.840492033 0.543237868 0.521975388
N 1.296197712 -0.510834300 0.854065842
H 1.080976256 -2.252588841 1.657731421
H -0.865382542 2.463830685 -0.251328888
H -3.438713558 -2.590840633 -1.954917915
H -5.959843517 -2.852325325 0.062342140

