12

O 5.685753237 0.186717394 -2.485074041
C 3.569635353 0.077648525 -1.903479192
C 1.202558589 -0.043360295 -1.245894053
C -0.525874403 -2.210428144 -0.487255261
H -0.937120306 -3.548998240 -2.000355851
H 0.065622440 -3.261356488 1.183964912
C -2.630742956 -0.222031538 -0.021173965
H -4.315774173 -0.469424675 -1.175687364
H -3.204709642 -0.069409319 1.948996326
C -0.852495593 1.936622418 -0.904365022
H -1.444577174 2.866757976 -2.646408804
H -0.457504207 3.376512618 0.516034032

