14

O 5.390658689 -1.205311731 0.498995203
C 3.492493803 0.126343215 0.583984672
C 0.978232167 -0.022131811 -0.044496323
C -0.616152554 -2.109920433 -1.105136536
C -2.969450342 -0.544813446 -0.336341695
C -1.235239191 1.778744645 0.136572038
H 3.774671412 2.405493517 1.087506110
H 2.896561357 1.324603905 2.557033054
H -0.394017024 -2.312034636 -3.149390290
H -0.359171722 -3.964836650 -0.244460376
H -4.432688751 -0.305617696 -1.761895469
H -3.827584348 -1.238999689 1.400872647
H -1.287828833 3.104847934 -1.445439929
H -1.509394856 2.831289668 1.887640018

