11

C -2.937998100 0.250160244 0.418048105
C -0.425483308 -0.961368459 0.410927919
C 1.073998593 -2.688339975 0.731589914
O 4.880093751 -0.955254232 -0.486098805
N 3.911646869 1.049085219 -0.981297398
C 1.906928547 2.084115788 -0.980921928
H -4.365079603 -1.064071163 1.108616732
H -2.951722179 1.919455523 1.627955366
H -3.472037367 0.843343781 -1.483229349
H 2.131679420 -4.356320515 1.106306674
H 1.087212106 3.880274694 -1.438551121

