14

N 3.154208431 -5.357259084 -0.636143626
C 1.408067930 -3.932605462 -0.153485068
O 1.690982230 2.875413942 -0.914590916
C -0.175371762 4.122978834 -2.381284934
C -0.853971544 2.086375787 -0.651922122
C -1.460806104 -0.537114853 -1.581304075
C -0.602594638 -2.555723625 0.235184788
H 4.883231206 -4.746450089 -0.062870735
H -0.100823635 3.742591837 -4.398667369
H -0.540956704 6.076020100 -1.865745047
H -1.693892710 2.602562925 1.155138671
H -0.560429028 -0.812266139 -3.417052289
H -3.502617558 -0.688162873 -1.872133851
H -1.609846952 -2.833419163 1.996219070

