10

C -2.229481685 -1.514688357 1.701910384
C 0.341870429 -0.621744178 1.122354133
C 2.576773096 -0.954365248 0.227301682
H 3.957434044 -2.144326809 -0.671729569
C 2.062597477 1.626027486 1.289767957
H 2.864974849 2.162366078 3.110929999
H 1.782762958 3.220298257 0.013729616
H -2.611273051 -1.330382177 3.722006880
H -2.488462774 -3.482779118 1.151324372
H -3.623198241 -0.357439769 0.711923534

