13

C -2.313910756 -1.261024504 1.343403089
C -0.077552697 -0.204291923 0.030045965
O -1.017612095 0.439889691 -3.101771252
C 2.433219635 -0.850420352 -0.537945010
C 1.883350680 1.643658310 0.770899316
H -1.753870992 -1.677715332 3.286770602
H -2.936908011 -3.012562270 0.456975216
H -3.889563302 0.065412964 1.400777575
H -1.178466735 2.234804307 -3.378122022
H 3.460736068 -2.422206481 0.263778423
H 0.999672225 -0.150003380 -3.081827857
H 2.117665079 1.867538283 2.805717649
H 2.144242546 3.405189382 -0.257133220

