11

C 2.444487316 -1.122516801 -0.289629914
C 0.333275047 0.714779496 -0.762903545
C -0.027052469 2.731659717 1.213797584
H -1.588992747 3.988448418 0.741271850
H 1.693388494 3.857054627 1.409123437
H -0.396808452 1.874941040 3.056112143
N -0.989784876 0.479173413 -2.744099746
H -2.344557956 1.845128456 -2.829842100
H 2.537140021 -2.499404345 -1.812433926
H 4.249827796 -0.126568281 -0.159727249
H 2.166435527 -2.102284012 1.507481584

