10

O 3.895272543 -0.680425862 -0.106593422
C 1.394708662 -0.339652060 -0.025840021
N -0.457233636 -2.029008899 -0.029926175
C -2.910297776 -0.922580678 0.074192405
C -2.292147366 1.580534068 0.139715465
N 0.359230077 1.919213694 0.077332998
H 4.298176911 -2.447188642 -0.179114138
H -0.183844576 -3.906959384 -0.099802881
H -3.487126811 3.226101871 0.225362067
H 1.352623044 3.537106023 0.104074871

