10

O 3.966214128 -0.547732695 -0.180954750
C 1.463243454 -0.381062763 0.029239184
N -0.130717307 -2.237978631 0.518493095
C -2.730721562 -1.127601733 0.510127750
C -2.304254104 1.374835358 0.075657963
N 0.286654653 1.824383382 -0.098708408
H 4.434416471 -2.276240331 0.137170703
H -1.707127898 -3.144511188 -0.703596134
H -3.620180802 2.917359002 -0.116374135
H 1.169991597 3.506444347 -0.177055168

