13

N -4.107829542 -0.751913294 0.612358116
C -1.601602568 -0.079183814 0.135704672
C -0.363970379 2.145405200 0.147507297
C 2.326604745 1.620290070 -0.290817531
C 2.453540691 -1.049437123 -0.442287640
O 4.628696039 -2.088896852 -0.086593714
N 0.127740233 -2.072907879 -0.293477642
H -4.969440928 -1.559641086 -0.889673611
H -5.134986983 0.727392832 1.231591547
H -1.247946069 3.977215357 0.287035660
H 3.474693944 2.756244751 -1.549837036
H 4.539938248 0.272593277 0.820009783
H -0.187945811 -3.846297550 0.318149377

