13

C 3.551266856 0.574288544 0.737259980
O 1.584293697 -1.027888558 -0.173455863
C -0.741071747 0.018280606 -0.436809287
C -2.904148739 -1.452765660 0.672466638
C -0.963388010 2.848661165 -0.660447300
N -1.259535287 2.044460244 -2.902050803
H 3.117633027 1.270951859 2.628713352
H 3.849888653 2.177160668 -0.525836495
H 5.239074176 -0.596751095 0.787309679
H -1.263233688 -0.240451530 -2.936691751
H -2.725147796 -3.463864188 0.263149786
H -2.878433970 -1.186200307 2.719671804
H -4.699175812 -0.753255416 -0.047134872

