16

C 2.788466736 1.026605037 -2.619133008
N 2.575765928 0.283942556 0.019301814
C 2.436664738 -2.461656272 0.524697727
C 0.287491462 -0.784925317 0.793366062
C -2.113506906 -0.282131235 1.211638742
O -3.807482141 -2.073523306 2.009995760
C -3.294822177 2.255275804 0.912764968
H 4.768293396 0.958301547 -3.189266044
H 2.123181832 2.965903364 -2.829431160
H 1.668098969 -0.190191240 -3.874497442
H 2.486746883 -3.713405943 -1.107035428
H 3.498898822 -3.105977253 2.155224897
H -2.943861901 -3.659371851 2.187954368
H -4.181805479 2.835478133 2.683475083
H -1.881182673 3.655824344 0.391319043
H -4.763300153 2.205038853 -0.536892508

