12

O 1.454640438 3.908513117 1.866262945
C 0.552593335 1.979452400 1.009834020
C -1.787619895 1.059344126 0.197835012
C -1.705388765 -1.773436933 0.090965180
O 1.024743524 -2.365204140 0.328408492
C 2.256747618 -0.273187010 0.123343445
H 0.455503251 1.019979638 -2.366068104
H -3.553256378 2.061769399 0.387782459
H -2.644173976 -2.778852376 1.630346625
H -2.293410912 -2.627816450 -1.707416252
H 2.006625546 0.418126528 -2.734445248
H 4.305249873 -0.389222222 0.241323733

