12

O 2.671534754 3.246007830 2.721431461
C 1.670087452 1.252621478 2.340770151
C -2.659030455 0.618035949 -1.647891334
C -1.821497015 -1.675767459 -1.073943470
O 0.505761065 -2.345426474 -0.252837192
C 2.265952662 -0.379239857 0.061823845
H -1.534324444 2.319386048 -1.524273803
H -4.588497237 0.816489072 -2.283984845
H 0.278095385 0.430795573 3.675664938
H -3.011909502 -3.335072172 -1.221293050
H 2.426990625 0.801134140 -1.629597613
H 4.091906086 -1.282473878 0.393478925

