12

O -4.016867481 -1.905893147 -0.397618540
C -2.310695443 -0.075830382 -1.235865201
C 0.186728506 -0.068714354 0.107638120
O 0.056021649 -0.985767772 2.395840134
C 2.379111126 0.917837692 -0.938955533
C 4.705520095 1.115473036 0.274551241
H -4.152948737 -1.816927789 1.409265979
H -3.070100973 1.853551438 -1.053123601
H -1.977589659 -0.400803825 -3.242870393
H 2.184216131 1.580970066 -2.875864642
H 1.740570779 -0.848928602 3.139385192
H 4.603430949 0.339539017 2.237186193

