13

N -2.267252662 -1.585454462 -2.572493036
C -0.608662379 0.109369600 -1.345740397
O 0.807748560 1.500557268 -3.079982634
C -1.428174522 1.383405681 1.051439099
C 0.686661902 -0.514465560 1.112162047
O 3.098279605 0.484431405 1.545000187
H -3.988879465 -1.711603016 -1.783040087
H -1.524579712 -3.301694676 -2.929223421
H -3.209889967 0.883459095 1.925139176
H -0.873709942 3.341394250 1.265857101
H 0.320072570 -2.340281392 1.979286916
H 2.273623666 2.123983643 -2.199057095
H 4.324285273 -0.713534091 0.951149161

