13

N -2.909393618 -1.140202181 -2.764189802
C -1.088476465 0.222582790 -1.750750582
O 0.512714955 1.232698700 -3.373696246
C -0.895996483 0.675878010 0.978937697
C 1.632828970 -0.637672131 1.260532816
O 3.214840086 0.769939108 2.958887699
H -4.338813809 -1.767218922 -1.685171038
H -2.813016111 -1.669618082 -4.587116206
H -2.555827371 0.001935911 2.032189440
H -0.655505855 2.699837239 1.307719467
H 1.339838216 -2.556122263 1.971679994
H 2.070579378 1.168655731 -2.333412068
H 4.875665555 0.770339277 2.254651477

