9

C 4.479059568 -0.417256120 0.704620933
C 2.085002485 -0.302668004 0.176187009
C -0.354373764 0.498200347 0.351251747
C -3.048954068 0.179810389 0.387439908
O -1.692239786 2.588775861 0.029002836
H 5.743902699 -1.102529905 -0.767683645
H 0.987931546 -1.065208003 -1.696747160
H -4.022150531 0.022943297 2.183540761
H -4.052517013 -0.461955173 -1.279639951

