17

C 2.455136301 -0.491917971 2.182112790
C 2.825583791 1.384579126 0.110280902
C 2.030452234 -1.313996645 -0.485941486
C -0.516281700 -0.407778104 -1.442041389
C -2.932915398 -1.758799908 -0.324254477
C -3.786401150 0.171416395 1.456924512
C 0.269351338 2.380256489 -0.750885435
H 4.167116846 -1.211018534 3.040742679
H 0.852474465 -0.296136713 3.451489883
H 4.626686183 2.286032987 -0.232678123
H 3.108797556 -2.832015115 -1.331328099
H -0.639734484 -0.555097752 -3.488769815
H -2.317998309 -3.506073961 0.583641479
H -4.226799480 -2.185137788 -1.881943174
H -4.845127676 1.585176710 0.331626469
H -0.808053316 3.376711644 0.699641523
H 0.358450054 3.556698193 -2.436597861

