17

C 2.461951938 -0.682252849 2.086171394
C 2.632266415 1.388313810 0.168372519
C 2.219485091 -1.368841354 -0.634139364
C -0.411417471 -0.701876219 -1.636183233
C -2.764050322 -1.517807047 -0.159812475
C -3.429159972 0.975145659 1.143191293
C 0.018361637 2.052147745 -0.792872522
H 4.238004498 -1.199642760 2.958291623
H 0.837039995 -0.764379534 3.334567671
H 4.288755720 2.572791613 0.000840796
H 3.537493833 -2.646299446 -1.534594429
H -0.548714824 -0.928867513 -3.676780972
H -2.354526564 -3.022812542 1.193300235
H -4.282627470 -2.169662669 -1.397199057
H -4.530140396 2.110763270 -0.212821561
H -1.281006298 2.477508164 1.037074271
H -0.174061955 3.575135665 -2.153221183

