14

O 2.642206375 -0.846036206 2.140344967
C 0.605330773 0.463691661 1.082961356
C 1.269028930 2.386197202 -0.963378996
N -1.180379818 2.704634271 -2.179499922
C -1.869479240 -3.544199053 0.123947514
C -1.258657528 -1.161937074 -0.348218567
O -2.178505378 0.157816944 -2.340510200
H 3.155745817 -2.140206034 0.973650281
H -0.353915751 1.417946190 2.642745249
H 1.911550383 4.189211165 -0.209333259
H 2.722986252 1.587557935 -2.211250496
H -0.979896279 3.170573194 -4.026309592
H -3.174613504 -4.574179198 -1.061961661
H -1.066849702 -4.466753048 1.759173035

