15

O -1.315410841 2.698858323 1.045839973
C -2.552836370 0.393578702 1.511839047
C -2.034747921 -1.603043144 -0.474163371
O 0.253438049 -2.900773122 -0.097809597
C 2.501135617 -1.544401938 -0.545885129
C 3.126633774 0.943157131 0.388924855
C 1.324928276 2.736857767 1.381066068
H 1.882072961 2.402953668 3.404459513
H -4.567660077 0.840090939 1.523212155
H -2.044779192 -0.359050515 3.380967213
H -2.092433739 -0.721588840 -2.355019707
H -3.507184118 -3.046429772 -0.391744874
H 2.719002955 -1.001167849 -2.587948445
H 4.023700844 -2.895689910 -0.219205793
H 1.891229799 4.685606086 1.016560500

