15

C 3.054922144 -1.392538463 -0.695072638
C 0.722264814 3.589648327 0.734251366
O -1.281796865 3.733873718 -0.768810772
C -2.568237430 1.530495330 0.253054095
C -1.870032589 -0.841205896 -1.244561248
C 0.455782798 -1.240485827 0.500618705
C -0.277943640 1.201376943 2.004180241
H 3.396756933 0.190532128 -1.971996485
H 4.535041533 -1.366740451 0.741125868
H 3.240958916 -3.140728145 -1.776718669
H -4.513786877 1.943874507 0.771254320
H -3.276845515 -2.337619770 -1.104233021
H -1.470327905 -0.476282056 -3.232985897
H 0.152228645 -2.877903108 1.716076054
H -0.282992213 1.121032213 4.055321442

