15

C 3.196474234 -0.479725553 -0.777670677
C 1.327210442 2.104029854 0.830850594
O -0.329310855 3.082901713 -0.969777023
C -2.416696172 1.669567211 0.001306727
C -2.155150631 -1.035884253 -1.046241597
C -0.024645676 -1.375922196 0.818244212
C -0.816808096 0.832784672 2.300859003
H 3.877471304 0.930105719 -2.108849280
H 4.686347879 -0.901298431 0.569368699
H 2.818079028 -2.163382486 -1.937302153
H -4.207330936 2.678872693 -0.025267698
H -3.784842013 -2.156516790 -0.459748200
H -1.798861838 -1.276319891 -3.065186400
H 0.721389777 -3.127894467 1.554457095
H -1.078380603 1.014049469 4.319119763

