13

C 1.318059179 1.161424864 1.709015073
O 2.067561504 -1.285641664 0.839139934
C 0.030447305 -2.839020802 0.139357059
C -1.705043039 -1.361896346 -1.421904089
O -2.303393296 1.169777699 -1.050564194
C -0.132085771 2.550984986 -0.327479484
C 0.617236085 -2.418600468 -2.652940718
H 3.060444416 2.155028158 2.173314508
H 0.171001506 0.947025722 3.417016668
H -0.277888365 -4.534754522 1.242652795
H -3.325360850 -2.448291410 -2.086658509
H -0.780501544 4.379786983 0.362770441
H 1.096756981 2.834309186 -1.971711779

