13

C 1.250218256 1.215210589 2.022685894
O 1.372790976 -1.460119057 2.021061297
C 0.314129930 -2.495903873 -0.156096234
C -1.967321208 -1.407583612 -1.322015868
O -2.576108876 1.028086015 -0.447436124
C -0.161623438 2.123240489 -0.270435399
C 0.619134032 -1.259045923 -2.744171196
H 3.163044979 2.002693914 2.062438041
H 0.236603878 1.819145118 3.719765174
H 0.552241582 -4.532198969 -0.220687546
H -3.560813261 -2.500632874 -1.990151689
H -0.243455779 4.173210759 -0.462154841
H 0.940914442 1.447777860 -2.091452725

