13

C 4.200047761 -0.236391945 0.144611556
C 1.870263646 1.098714964 -0.451262101
N 0.385909268 2.587033194 -1.097097830
C -3.057840089 1.246079454 -0.236540288
C -2.443956719 -1.402152464 -0.389548540
O -0.573870159 -2.233209983 0.901889160
H 4.171449610 -0.763021577 2.131936007
H 5.819310557 0.972057846 -0.260925125
H 4.292358369 -1.963652532 -0.965961363
H -2.918101986 2.133224479 1.600918431
H -4.366846800 2.069575838 -1.585871203
H -2.902226378 -2.269706339 -2.231621120
H -4.502019703 -1.310209294 0.639744481

