10

C -2.346233860 0.882059999 -0.557840670
C -3.759397927 -1.187391401 0.807224199
H -2.431603598 -2.289413121 1.942779978
H -4.684438537 -2.424801661 -0.548122980
H -5.150481736 -0.391803872 2.107703954
C -1.276683209 2.974283373 1.061597020
H -0.237891631 2.201421066 2.668397412
H -2.828752900 4.101142444 1.828887734
H -0.052634277 4.181848244 -0.064189159
O -2.086406817 0.865118906 -2.820352689

