13

C -2.842833041 -1.224954961 0.165726789
C -0.380137175 0.060070614 0.714693211
C 1.153127057 3.094131599 -0.289093099
C 1.691244448 0.495056409 -1.214527868
C 3.306563310 -0.981284321 0.631778076
O 5.356747667 -1.832983394 0.793531149
O 1.369481763 -1.160829279 2.388836393
H -4.010550920 -1.311847082 1.859813669
H -2.505570691 -3.142395072 -0.509612819
H -3.868035939 -0.175177990 -1.280768344
H -0.661155078 2.095493224 1.602403283
H -0.303476655 3.830043884 -1.592834352
H 1.494807739 -0.057615992 -3.176710741

