10

C -1.695854340 2.154510316 0.066370885
C -1.755711170 0.665898479 2.485491198
O 0.039417722 -0.333640842 3.444011500
H -3.651114032 0.519955724 3.385534813
C -3.622822810 1.157034935 -1.837217136
H -5.530565375 1.166983077 -1.048878369
H -3.177331516 -0.777328599 -2.396728853
H -3.640976199 2.320354249 -3.537012633
H 0.222383556 2.110663303 -0.685850472
H -2.149020511 4.117269367 0.548807704

