16

C -3.227649329 -1.374988652 -1.893976156
C -2.073787925 -1.193152156 0.673451677
N -0.218656109 0.316420070 1.157226081
C 1.524137592 1.380110131 2.644331239
H 2.657867253 0.332864750 3.980839814
C 1.808718876 1.654257424 -0.126585345
C 3.530071631 0.050894312 -1.772580528
O 4.184111134 -2.287185115 -0.695003134
H 2.664512777 -3.241079103 -0.417538464
H 2.683919414 -0.192536560 -3.653671644
H 5.295325691 1.088858681 -2.030894921
H 1.298737334 3.457097343 -0.985839052
H -2.863756732 -2.217601072 2.261970991
H -5.218063142 -0.817617711 -1.867564872
H -3.150802067 -3.303405974 -2.633213055
H -2.245371145 -0.144252055 -3.223782610

