18

C -3.732265977 -1.137099666 -1.689534624
C -2.570195432 -0.889573115 0.867824673
N -0.136531579 -0.408053948 1.130656040
C 1.249606609 1.026291267 2.735850260
C 1.576572182 1.384127122 -0.022977426
C 3.667841566 0.298503728 -1.644240742
O 4.830421147 -1.842854548 -0.590523937
H -5.699450161 -0.527993807 -1.624706851
H -3.715045791 -3.095502010 -2.356178411
H -2.738011275 0.025130107 -3.070307671
H -2.904701522 2.408752576 2.642198797
H -3.457003481 -1.840941314 2.453956488
H -1.417854633 2.644121763 3.264554811
H 2.516752276 0.393982348 4.202260952
H 0.687932327 3.076248686 -0.816845909
H 2.919007354 -0.115361468 -3.538629615
H 5.138349505 1.728855308 -1.865298448
H 3.528753320 -2.992912917 -0.062978392

