12

C 3.714005062 0.191479901 0.001325473
N 1.174666855 1.189726895 -0.001412684
C -0.908802004 -0.311699156 -0.000637688
O -0.797170043 -2.603971187 -0.000837300
C -3.414696311 1.061694662 0.000883957
H 3.577119065 -1.859937502 0.015946359
H 4.753555894 0.804089710 1.675617339
H 4.749036784 0.779876366 -1.684495707
H 0.929260274 3.069118221 -0.007608774
H -4.465328781 0.497366014 1.679985989
H -4.493518695 0.449768424 -1.642985378
H -3.238472641 3.114547482 -0.029303038

