17

C -2.705851916 -0.578835320 0.924790921
C -1.376522448 -2.752987865 -0.361384213
O 1.031781431 -2.196861800 -1.336919723
C 2.727192952 -1.083907826 0.377400549
C 2.684016622 1.751817181 0.418268843
C 0.928240597 3.288414229 -0.540699040
C -1.519726385 2.723025104 -1.725566712
H -1.793034432 0.042852715 2.660751202
H -4.673347584 -1.068654164 1.320948457
H -1.237015269 -4.326512788 0.993269399
H -2.479316820 -3.419631633 -1.970438425
H 2.457815573 -1.846510261 2.295857389
H 4.617568027 -1.676237037 -0.215266715
H 4.301631255 2.595319983 1.365476886
H 1.258903249 5.307338359 -0.302874078
H -1.287738674 1.419214858 -3.319287554
H -3.080341342 1.353817843 -0.220394317

