18

C 3.786203277 0.007140595 -0.504520233
C 1.715756369 -1.837796205 0.252034625
C -0.920662190 -0.637816752 0.388349981
C -3.004620129 -2.564916274 0.930977714
C -1.474296443 4.102962893 -3.040963210
C -0.974427166 1.394300387 2.277596531
N -1.016001670 2.987133095 3.750133942
H 3.390680991 0.843792761 -2.349990087
H 5.608784257 -0.947955297 -0.619406398
H 3.967885987 1.537172148 0.868855821
H 2.149297903 -2.696832820 2.081818675
H 1.606799768 -3.379414595 -1.118452643
H -2.689828172 -3.489685368 2.747268117
H -4.858080426 -1.668424531 0.976288868
H -3.013460552 -4.004708208 -0.543054149
H -3.111113623 4.918594634 -2.019208174
H 0.135572562 5.114806315 -2.162234250
H -1.306164902 0.254229372 -1.455717166

