13

O -4.503375582 -0.483176457 0.469282888
C -2.255628371 -0.383973924 0.165078518
C -0.668768652 1.835258189 1.012251924
C 1.310710638 -1.419770040 -2.905882658
C 2.111789826 1.272603914 0.692624347
O 2.625186481 0.365197926 -1.854718816
C -0.767015022 -2.408045554 -1.197857120
H -1.120299718 2.295845635 2.971079966
H -1.217102639 3.460600404 -0.139838316
H 3.290701081 2.940125553 0.917259701
H 2.762834944 -0.176842668 2.011723404
H -2.021712496 -3.676138409 -2.215025394
H 0.220575769 -3.531378339 0.251317569

