13

O -4.644877726 -0.812478412 1.039031668
C -2.543853972 -0.554922045 0.262073361
C -0.924153365 1.837312454 0.362821085
C 0.753865589 -0.074416073 -2.038716063
C 2.565585464 0.898152415 0.556976309
O 3.404053241 -0.058876969 -1.676446929
C -0.733698413 -2.344737537 -1.045273074
H -0.702105745 2.384620414 2.353524914
H -1.640300153 3.464162462 -0.665540244
H 3.241860202 2.793852021 0.954911114
H 2.525125010 -0.411086429 2.140541914
H -1.577167521 -3.454129188 -2.560589632
H 0.174400726 -3.629239091 0.309391252

