16

C 4.447094379 0.248422470 -0.099242085
C 1.828040003 1.090660384 -0.633315179
C -0.633486369 0.850728547 0.811674088
C -1.614415119 2.233526550 -1.570300200
N 1.011040024 2.299327305 -2.559843002
C -3.630679214 -2.831646997 0.649209287
C -1.546152845 -1.732272462 1.490684300
H 5.129296035 1.060087261 1.672076540
H 5.692014127 0.821297121 -1.635542956
H 4.516434421 -1.806210170 0.094807824
H -0.642563725 2.050208678 2.499310652
H -2.864635435 1.132599114 -2.782047242
H -2.422967663 4.107378275 -1.276404683
H -4.901845689 -1.901502520 -0.659652972
H -4.150831942 -4.714885521 1.258310479
H -0.358775333 -2.757214577 2.820471345

