13

C 3.942286094 1.388958434 -0.647875065
O 2.599082239 -2.270306251 0.061634835
C 0.309490898 -1.527877549 0.127718557
C -2.051608360 -2.578651257 0.496281349
N -3.742140079 -0.574149177 0.302786886
C -2.451888258 1.547266876 -0.154764356
N -0.015480391 1.008835942 -0.265167976
H 3.389354762 3.313816967 -1.021915001
H 4.745608840 0.402517334 -2.240249515
H 4.871756109 1.088954887 1.140879327
H -2.654850891 -4.482435413 0.861267172
H -5.627271750 -0.694160713 0.474985647
H -3.314339193 3.377228031 -0.386416168

