15

C -1.733297166 2.070046135 -0.225586906
C -0.241495906 -0.312801981 0.282835517
C 2.402762806 -0.310367995 -0.875523909
C 3.938788362 1.725272860 0.176407975
N 5.111655858 3.359388430 0.982423297
C -0.663788071 -2.012348733 2.462660359
N -1.647510913 -2.663880173 -0.257350973
H -0.867900734 3.638748590 0.794094552
H -1.774960260 2.566994765 -2.232267973
H -3.668482486 1.879286314 0.462238103
H 2.339469169 -0.061869369 -2.928625889
H 3.326178761 -2.101274180 -0.435792576
H -2.358503776 -1.394383289 3.479751645
H -0.776904148 -4.114548879 -1.133485395
H -3.471398772 -2.433609769 -0.771511417

