10

N 4.540148915 1.277669590 -0.986603465
C 4.003840068 -1.034641947 -0.281319257
C 1.103383437 -0.453495493 0.118580125
C 2.398319115 1.809138603 0.477374922
O -3.584651381 2.074011441 0.034762079
C -3.459915435 -0.178638834 -0.253427164
C -1.073060457 -1.633433096 -0.205038421
H 2.436631668 3.028177966 2.127061307
H -5.186593779 -1.314576130 -0.564766573
H -1.123233933 -3.662150505 -0.462747724

