16

C -1.625339248 3.493055430 -0.126375926
C -0.984668934 0.752265237 -0.005379994
C 1.068601970 -0.374127336 -1.572810247
C 3.440449990 -0.788256980 -0.187326226
C 5.344202701 -1.101884563 0.996099320
C -1.754584799 -3.149300736 2.278726361
N -2.120482037 -0.733964506 1.650973080
H -0.084793636 4.696014093 0.562076094
H -3.288790776 3.924617533 1.020595160
H -2.042610070 4.094110811 -2.061645735
H 1.452203712 0.853646568 -3.187104235
H 0.430875150 -2.200989793 -2.334901739
H 7.037303125 -1.381641490 2.044261389
H -3.038387797 -3.977617680 3.619140300
H -0.137982303 -4.148736160 1.557206117
H -3.546627446 0.115016045 2.600880842

