16

C -1.015266340 3.199635198 0.501855266
C -1.072737598 0.418705427 0.038594198
C 0.975913096 -0.762559369 -1.551967022
C 3.494629950 -0.690401443 -0.409827758
C 5.547802115 -0.593080415 0.537336424
C -2.098280552 -2.603546603 2.344745398
N -3.139269106 -0.903930593 0.698787367
H 0.371143005 4.165860783 -0.677182128
H -0.545950211 3.607162933 2.476411064
H -2.890591372 4.012697516 0.160047765
H 1.086086151 0.254700670 -3.362841810
H 0.466658380 -2.718657173 -1.954293550
H 7.369461798 -0.527003307 1.385933511
H -2.475960308 -4.611957960 2.167118569
H -1.044497738 -1.902392997 3.945209841
H -4.953149731 -0.297980084 0.569697851

