15

C -3.115302995 -1.120521893 -0.007963004
C -0.629369658 1.941863593 -0.247748689
O -0.584369742 2.881519893 2.095188601
C 1.281549651 -0.037425289 -0.961326715
C 3.848968867 0.377029312 -0.242079283
N 0.459193603 -1.955926330 0.768059039
H -4.272811231 0.012757277 1.260168061
H -3.728376353 -0.935936015 -1.968015097
H -3.385304550 -3.092732541 0.543686451
H -1.311210509 3.344175058 -1.593898079
H -0.023147066 1.522661999 3.191135626
H 1.038166135 -0.477762845 -2.967515414
H 4.262033726 1.152548064 1.602846159
H 5.415370619 0.058457279 -1.517513970
H 0.829584799 -3.725173249 0.079339112

