11

C 2.118938773 1.491855363 3.266714901
C 1.594401427 -0.553621894 1.448617654
C 2.085630252 -1.149371397 -1.018302941
C 0.348925778 -3.520676763 -1.110566438
H 0.983852969 -5.147440279 -2.193869589
H -1.599608586 -3.017939165 -1.480797498
C 1.232556555 -3.181686107 1.492935625
H 2.426400785 -4.527554306 2.496205775
H 0.344916837 2.209314585 4.039603720
H 3.100880530 3.042442412 2.335867484
H 3.254363197 0.812875708 4.849932399

