12

C 5.652453409 -0.209690152 0.830353048
C 3.402468309 -0.230407031 1.066484362
C 0.653987309 -0.251907088 1.297094349
C -0.653945357 -0.189782870 -1.296930756
C -3.402401469 -0.211792794 -1.066351835
C -5.652403691 -0.233104880 -0.830475597
H 7.654288727 -0.191344275 0.635418047
H 0.044758938 1.372203574 2.415804580
H 0.061253772 -1.938975657 2.327919428
H -0.061590313 1.497441903 -2.327707079
H -0.044600163 -1.813754712 -2.415771416
H -7.654269433 -0.252021964 -0.635837113

