9

C -2.136074488 -0.543973293 -0.109830315
C 0.356698316 0.601758756 -0.827628138
C 2.615408811 -0.314643368 0.052476674
N 4.554981999 -0.825621098 1.128440469
H -3.516491398 0.909160750 0.377394861
H -1.939434973 -1.801806560 1.510353363
H -2.925693809 -1.655691953 -1.664630207
H 2.611229512 1.236089738 1.643968697
H 0.476387030 2.111496786 -2.199995552

