14

C 2.753935789 0.019557399 0.954378910
C 0.381446188 -0.409416780 -0.581296348
C -1.738214139 2.132877487 -2.559116515
C -1.618761338 -2.304224379 0.326708835
O -3.467786088 -0.424782994 0.884800196
C -1.872971605 1.572668953 0.035872539
H 2.338230076 0.126082962 2.970801194
H 3.685721777 1.769511745 0.387403550
H 4.085892600 -1.525885967 0.645213556
H 0.817374201 -0.643557438 -2.592044558
H -0.292496496 3.629456013 -2.723467451
H -1.059841029 -3.348475640 2.021742505
H -2.263860962 -3.616426918 -1.128847100
H -1.453563635 2.917512788 1.543631572

