11

C -0.295092999 -0.214051791 -0.232676195
C 1.260667724 -2.092405960 1.184085269
C 3.650743683 -0.515813388 1.648348969
C 3.644320088 1.077053487 -0.680551132
O 1.278141681 1.310867448 -1.404265820
H 4.871617176 2.617723404 -1.203767371
H 5.353694134 -1.627658206 1.941592398
H 3.359776883 0.711486894 3.317547324
H 0.394393741 -2.838081911 2.891909097
H 1.720019043 -3.693415286 -0.082051285
H -2.115892024 -0.438651694 -1.121233715

