9

C 3.010649754 -0.855075107 2.075371496
C 3.330186568 -1.400829334 -0.345208403
C 4.476070419 0.329290144 -2.263489726
H 6.141800540 -0.531134947 -3.130676465
H 5.041390965 2.122920615 -1.419250214
H 3.140533031 0.721932865 -3.789518839
H 2.719038255 -3.238712504 -1.033569188
H 2.162743626 -2.191992939 3.372946459
H 3.590605644 0.953671699 2.849367185

