10

O 3.894030861 0.884162810 0.147039420
C 1.747271747 -0.601337838 0.465010425
C -0.602480707 0.751193460 -0.373697499
O -0.561013218 2.873407204 -1.197231904
C -3.131525746 -0.630115060 -0.165381479
O -3.302395935 -2.740444430 0.626745943
H 3.349777812 2.486670482 -0.533394549
H 1.884425197 -2.371909191 -0.606818460
H 1.490068702 -1.149772586 2.449918068
H -4.768158696 0.498145148 -0.812189964

