10

O 2.411211393 -1.186826449 -2.052403746
C 1.128706145 -0.053607373 2.102848813
C -1.327231664 0.402936267 1.148938706
O -1.626077942 1.454596559 3.266565159
C -2.297844739 0.080872927 -1.291220343
O -1.206858283 -1.632287695 -2.534582296
H 2.667715825 0.070545876 -3.344504040
H 1.545710044 -1.762825837 3.146177699
H 2.509449618 1.433013052 1.956685527
H -3.564050078 1.472596937 -2.139832209

