11

O 4.489032711 -2.104771062 0.808559101
C 2.390187396 -1.374210123 0.329388788
C 1.885706186 1.307943248 -0.429558200
C -0.526015245 2.287614480 -0.863007326
N -2.383217009 0.536135711 -0.372697682
C -1.905963483 -1.953534296 0.079346047
N 0.271193500 -2.951567486 0.433590384
H 3.520998394 2.476009951 -0.840693119
H 0.800268684 2.960207503 1.087267040
H -4.195111343 1.085085030 -0.541237366
H -3.569982836 -3.165149586 0.127587051

