13

C -3.075507763 1.065379004 -0.445075213
O -1.435835849 -0.447355281 -1.952110425
C 1.037821298 -0.509628730 -1.468274661
N 2.619808339 -1.875545015 -2.563112549
N 1.176886319 -1.522318050 3.504194383
C 2.090697118 0.507399515 2.699110904
O 1.858982624 1.256685636 0.270313644
H -4.947936959 0.797388647 -1.246306580
H -2.557451213 3.056762284 -0.552409824
H -3.061647226 0.424730838 1.513414757
H 1.747962253 -3.017946837 -3.832842984
H 1.553979864 -1.759058215 5.366286626
H 3.128001047 1.937814647 3.756114793

