11

C -2.348382932 -0.331238660 0.555621527
C 0.092930457 1.145659842 0.173048174
C 2.278821792 -0.519203859 -0.685866289
H -3.885362630 0.892477964 1.184698542
H -2.101789773 -1.813359117 1.972955540
H -2.949267632 -1.242160086 -1.198113329
H 0.605534391 2.096014354 1.936497035
H -0.219834807 2.645038073 -1.215886941
H 2.662217459 -2.007316846 0.694223320
H 4.013035003 0.570842685 -0.930641494
H 1.852098673 -1.436754332 -2.486536066

