11

C -1.834874651 0.009363480 1.331168776
C -0.096303013 1.165625460 -0.471952693
C 2.210184936 -0.016025558 -1.026050213
H -3.731574866 0.763530008 1.518520967
H -1.036609001 -0.860211288 3.006026029
H -1.180933168 -2.971954097 -0.409819878
H -0.077277402 2.470172455 1.323650633
H -0.996650497 2.223283251 -1.984052428
H 0.159481509 -2.889338994 -1.219050153
H 3.230450471 -0.987371469 0.460254382
H 3.319364976 0.607348396 -2.627034879

