14

O 4.790301562 -0.793128807 -1.032260477
C 3.487609995 0.538243322 0.263963635
C 0.784230824 -0.014729300 0.902809929
C -0.344491063 -2.331729172 -0.364635638
C -3.467973227 0.377124158 -0.004694420
C -1.098273353 2.014999263 0.040091069
H 4.245011602 2.324701715 1.062701565
H 0.636504923 -0.199910347 2.959603603
H -0.041291744 -2.374300337 -2.394981575
H 0.122138669 -4.156723730 0.469549585
H -4.167914726 0.202302344 -1.956633050
H -2.508205404 -2.164861650 0.177264531
H -0.522464676 2.777386535 -1.798973388
H -1.296420907 3.580909459 1.368840126

