12

N 1.435909908 2.572412175 1.487773592
C 0.975685573 1.106755654 -0.467199730
C -2.742421216 -0.166867409 -1.154010655
C -1.560998269 -2.105620645 -0.007102498
O 0.463135912 -3.194763087 -1.249687092
C 2.247665877 -1.308217504 -0.839977177
O 4.472871150 -1.683122745 -0.932767606
H 1.079969372 4.435958752 1.389035950
H 2.261739858 1.958369481 3.096041394
H -4.149366081 0.908970077 -0.128051376
H -2.625127842 0.107252087 -3.171170726
H -1.843050683 -2.670179915 1.941897098

