13

C 3.162499774 1.746865135 1.056360059
C 1.905521703 0.428239492 -1.105282178
N -0.058123402 -0.893147419 -0.886317514
C -1.596652431 -2.359012925 0.263923270
O -3.983455649 -1.619355033 0.478231762
C -4.698516544 0.822280516 -0.427089235
H -6.715662233 1.003353109 -0.080500216
H -4.309874184 0.979333197 -2.448316581
H -3.682145489 2.307130910 0.584184359
H 2.733111121 0.618480073 -2.981016203
H 2.381255833 1.100268035 2.848096533
H 5.195259156 1.389802177 1.028099375
H 2.900239085 3.791847605 0.915235785

