15

C 3.994290639 1.674971242 1.212828702
C 2.431849432 0.100249139 -0.538478801
N -0.027130515 -0.040351794 -0.274165680
C -1.386336817 -1.871021861 0.435929846
O -3.863477164 -1.901600823 0.436827787
C -5.143690174 0.276362487 -0.525699207
H 3.263913779 1.547412744 3.135286093
H 5.955475415 1.045255613 1.181900027
H 3.962129277 3.661259726 0.639255363
H 2.756509218 -3.126622095 0.520134322
H 3.194648948 -0.280533585 -2.411935064
H 1.261172432 -3.662103998 0.839918936
H -7.155709282 -0.109718916 -0.366620323
H -4.623307371 0.587163815 -2.496777833
H -4.637315117 1.936304510 0.588223139

