19

C -4.931570457 0.560048702 -0.512178708
C -2.306471414 1.070426330 0.548234852
C -0.616787181 -1.264219710 0.495868179
C 2.018887809 -0.734025922 1.512157106
C 5.313934259 -1.517936210 0.235748644
C 3.818210929 0.658604136 -0.420684273
O 2.890030123 0.837224357 -2.905969377
H -4.827752494 -0.063242444 -2.477584112
H -5.891410185 -0.919907301 0.560989313
H -6.111813232 2.249638562 -0.446700000
H -2.460943901 1.755518210 2.494714177
H -1.418287663 2.601938843 -0.521736640
H -0.469671038 -1.986357516 -1.430766470
H -1.487995427 -2.754234952 1.633105172
H 2.049999863 0.261113380 3.310549574
H 4.856254515 -2.969418198 -1.192575071
H 2.975222832 -2.577628650 2.013425801
H 4.435245437 2.490116019 0.288363797
H 2.078237360 2.443586143 -3.124904618

