11

O -4.112783402 0.768660747 -1.170231857
C -1.639561440 0.379950999 -0.926295766
N 0.154697327 1.886974268 -0.607875024
C 2.385634800 0.322232811 -0.484813395
O 4.579494128 1.585998892 -0.150626101
C 2.110936425 -2.199011552 -0.713643449
N -0.784541230 -2.238191679 -1.037815629
H -4.425297352 2.559921047 -1.066385491
H 4.190758529 3.351250079 -0.016320960
H -1.228630025 -3.068382361 -2.717118312
H -1.568237412 -3.311247771 0.355291642

