11

O -4.205754507 0.878346762 -0.943960624
C -1.754279494 0.325584013 -0.793394729
N 0.120108706 1.839346687 -0.646329439
C 2.262616634 0.312481181 -0.504606707
O 4.519525030 1.477935262 -0.396517056
C 1.967108161 -2.262253599 -0.408014830
N -1.017680106 -2.182021384 -0.845987357
H -4.378206832 2.688743998 -0.879400984
H 4.217226940 3.267476744 -0.402282781
H 0.173461551 -2.749625116 -2.476375726
H -2.121756392 -3.601485288 -0.210565285

