19

C 5.278214448 -0.735022866 0.128622565
C 2.570542140 0.048445567 0.736777873
O 2.035561732 -0.748516984 3.246809886
C 1.860042231 2.545227595 -0.137615715
C -3.173540726 2.195860604 -2.128944570
C -3.882207090 0.640230877 -0.292592721
C -3.718540650 -2.177629320 -0.413626032
H 5.691654096 -0.379176174 -1.853620186
H 5.534329804 -2.734230840 0.548288407
H 6.590753302 0.344940289 1.292238906
H 1.325107763 -0.979910717 -0.628980865
H 0.568766443 0.146484709 3.825409274
H 0.691777069 3.490876727 1.315680580
H -2.427676558 1.492178166 -3.903466112
H -3.336408321 4.226827864 -1.943098151
H -4.645874065 1.436943002 1.442746578
H -3.031046211 -2.811690695 -2.251342850
H -5.565791117 -3.040035487 -0.086137137
H -2.448814184 -2.912807389 1.045041696

