13

O -3.125973220 -2.046752501 1.229774632
C -2.516204048 -1.726142153 -0.938364048
C 0.165569299 2.579260958 1.569513167
N 1.331619778 1.260728611 -0.539382336
C 2.239606970 -1.253267500 -0.154338544
C -0.006717617 -0.801459759 -1.806370513
H -0.848497858 1.347532595 2.882483067
H -3.873302114 -2.126204713 -2.483612659
H 1.663945219 3.564685385 2.584780980
H -1.145056887 3.990776278 0.835667581
H 1.844989051 -2.156454655 1.648172469
H 4.027858638 -1.729785828 -1.032842947
H 0.228110787 -0.803158056 -3.843574398

