13

O -2.777511767 -2.181959287 1.660340831
C -2.107543592 -0.701366654 -0.240845708
C -0.298523211 2.156749944 0.853126969
N 1.609201629 1.325944420 -0.973270710
C 2.573060313 -1.142377123 -0.183878440
C 0.302979884 -1.021094992 -1.762891921
H -1.766094062 0.088319336 2.036825883
H -3.623296243 0.198196271 -1.343354467
H 0.459628637 2.501289913 2.752349024
H -1.354059066 3.793004798 0.202076427
H 2.375574768 -1.713689387 1.776284448
H 4.342172759 -1.648434479 -1.074565076
H 0.258589613 -1.608484762 -3.723634294

