11

C -2.267304573 -0.550284865 -0.652316923
C -0.291741796 1.326406288 0.096601326
O 2.069293778 0.183195002 1.207879906
C 1.560965860 2.209067182 -1.844350852
C 2.561658480 -2.148668171 0.669473803
N 3.050224569 -4.238415022 0.327718667
H -3.046722509 -1.535374168 0.982654807
H -3.797045070 0.497550451 -1.559963492
H -1.527674857 -1.903735156 -2.016730158
H -0.927779730 2.619923915 1.571258499
H 2.425749151 3.938186126 -1.064506423

