14

C 4.589717471 -1.631908087 -0.534790320
C 2.715011022 -2.974771527 -1.031354882
C 1.540048557 -0.674868253 0.962282992
C -0.305294062 0.897611953 -0.505485014
C -2.691176227 1.750363302 0.776882794
C -2.781906646 -0.205482091 -1.275550432
H 6.289859392 -0.578715039 -0.231129284
H 0.635961759 -1.908823130 2.335701093
H 2.768281021 0.570987174 2.081323000
H 0.563854837 2.214966283 -1.810915796
H -3.385943788 3.630283033 0.371012254
H -3.013350891 1.131864520 2.701592416
H -3.130823712 -2.149949405 -0.743569152
H -3.552792186 0.328619102 -3.091384958

