10

N 0.484645757 1.958114236 0.290149003
C 2.552608525 0.185281618 0.331972081
C 1.732037664 -2.222984127 0.559626083
C -1.109152393 -1.915637936 0.668748281
C -1.666238779 0.829886682 0.480609907
H 0.660821163 3.855426269 0.130914935
H 4.422203511 0.995309528 0.181395642
H -1.908733047 -2.701289474 2.411562542
H -2.054431554 -2.947792739 -0.860039171
H -3.431633567 1.861104011 0.481492258

