10

N 0.495462020 1.928076699 0.331132098
C 2.410794652 0.167862935 0.459205716
C 1.518720541 -2.293076733 0.274449990
C -1.291238258 -1.804357482 0.247538249
C -1.756059597 0.835727656 0.189804886
H 0.744543230 3.815891271 0.430496808
H 4.335924890 0.836139730 0.579261302
H -0.452367534 -2.303244008 2.251291374
H -2.701627150 -3.216284479 -0.191021680
H -3.480785495 1.916023893 0.066856243

