15

C -3.442735085 -1.780836496 0.246534180
C -1.408491796 -0.009545970 -0.628733859
C -0.919154416 2.451141703 0.618357146
N 0.765440578 0.299925690 1.011045126
C 3.158522864 0.532376422 -0.160980874
C 3.998564841 -2.562021780 -1.115808897
N 5.378559377 -2.139234526 0.591976003
H -3.704658288 -1.620460202 2.284285066
H -2.937789852 -3.731741313 -0.188318068
H -5.232233556 -1.348765282 -0.684797649
H -0.985677915 -0.071799558 -2.640783392
H -0.246575830 3.996851388 -0.553106226
H -2.002949028 3.015128991 2.262034996
H 3.185846414 1.273896015 -2.089310891
H 4.437696827 1.634422821 1.009153265

