14

C -3.302345082 0.188944191 0.495011510
C -0.750083454 0.326562381 -0.819524766
C 1.266099628 1.924965303 0.274153114
C 3.434476566 0.461017151 0.340049413
N 3.095025761 -2.099112674 -0.477113895
C 0.580428151 -2.265713253 -1.177214508
O -0.475213019 -4.114968757 -2.003401711
H -4.280081952 2.002966526 0.464645387
H -3.079649664 -0.397534957 2.460509321
H -4.466976244 -1.216813587 -0.457936047
H -1.011606186 1.005180815 -2.770973390
H 1.112487798 3.859518358 0.911374413
H 5.319991776 1.104786861 0.806148302
H 2.531171151 -0.668244064 2.029523622

