15

C -1.828568842 2.268163226 -0.077628003
C -0.319863434 -0.115368385 0.454610998
C 2.273465684 -0.117461748 -0.857838566
C 3.846774120 2.004057446 -0.064011562
N 5.044311026 3.687528430 0.590576774
C -1.934004033 -4.562812098 0.711813552
N -1.726740194 -2.363615390 -0.371210562
H -0.814534056 3.934717836 0.583595993
H -2.164515339 2.496881711 -2.104092102
H -3.650678960 2.193611414 0.880227720
H 2.032428585 -0.022760844 -2.908125177
H 3.268257900 -1.874011275 -0.433288991
H -0.029799205 -0.332051563 2.485374659
H -0.827102530 -4.453800922 2.490287229
H -2.640963181 -2.126324125 -2.039237552

