9

O -4.408721713 0.785001189 2.717901301
C -2.682725353 0.128520897 1.411701628
C -0.816380470 1.960478964 0.241023739
C -0.212575802 1.251214879 -2.459346743
O 0.486461463 -0.821270930 -3.055396768
H -0.470329060 2.750900927 -3.895272807
H -1.518219140 3.886705734 0.421004449
H 0.945289441 1.787133933 1.316845049
H -2.332027106 -1.885770720 0.976871300

