10

O -0.832177201 1.991898117 -1.710466893
C -2.231155983 0.096965457 -0.820459387
N -1.175906591 -1.255038003 0.946651386
C 1.151189086 -0.590345566 1.868311578
C 1.749810821 1.535973665 -1.847528635
N 3.665508113 2.010107442 -2.792013941
H -3.942753178 -0.423858294 -1.790289681
H -1.940228999 -2.959282085 1.347519215
H 1.327375113 1.321189888 2.559745813
H 2.141235670 -2.058711406 2.878733851

