12

N -2.765966995 4.902046737 0.831696303
C -1.489012043 3.153963938 0.726473915
C 0.054395030 0.881448805 0.526933651
C 2.768165351 1.163462820 0.064345930
C 0.109109649 -3.658662032 -0.949212758
C -1.393456643 -1.467601937 -0.255312884
O 1.823082457 0.547757432 2.495857083
H 3.715262675 -0.370729362 -0.910066345
H 3.553263503 3.049459268 -0.113468303
H -1.228792806 -5.251224491 -1.106283808
H -2.262997584 -1.170126618 -2.152024287
H -3.013742291 -1.783288642 1.000363506

