13

O 1.940538687 -0.288056433 -2.313731232
C 0.047660839 -0.260415787 -0.421073405
C -2.470325390 -1.610550062 -0.575819657
O -3.707155863 0.581532771 0.449637466
C -1.427370349 2.053101584 0.406332710
C 2.603600706 -1.066930942 0.153947937
O 4.299749919 0.377486588 1.467774054
H 3.960112315 2.135468888 1.160511918
H -2.716099409 -3.277372087 0.617692926
H -3.075944611 -2.021607238 -2.509489624
H -1.496024212 3.565911572 -1.001739151
H -0.964776675 2.829193131 2.266671873
H 3.068997770 -3.053851993 0.363480090

