13

O 1.931149186 1.024810250 -2.456152406
C 0.511641232 0.175032216 -0.438675013
C -1.727080402 -1.609436144 -0.999845853
O -3.378900684 -0.107204163 0.528972099
C -1.588983128 1.921701708 0.587948051
C 2.177962044 -0.822225657 1.640684089
O 4.441824726 -0.820375823 1.467350339
H 3.687521136 0.773784040 -2.014610168
H -1.618392520 -3.566875994 -0.350342865
H -2.229307660 -1.549950514 -3.004397312
H -2.034250357 3.411337342 -0.774354170
H -1.373347482 2.725703923 2.477904401
H 1.200163909 -1.556301184 3.335518827

