10

N -2.978992646 0.728765094 -0.091907567
C -0.610859922 -0.607535705 0.078980102
N 0.097870503 -2.890256852 0.376905573
O 2.733219156 -2.572000290 0.337316718
C 3.376524580 -0.020606840 0.006199719
O 5.513484934 0.679687395 -0.082042516
N 1.096019950 1.232011596 -0.159796224
H -4.042626621 0.293509106 -1.625805481
H -4.041417139 0.693638279 1.502930651
H -1.212311182 2.434667203 -0.311541893

