16

O -3.874064997 -2.554573746 1.243748326
C -3.209649631 -1.229952663 -0.954959132
C -1.778656565 1.213228285 -0.416376566
C 0.790977940 0.788123130 0.756271362
C 3.076770610 0.360150373 -1.056784700
N 2.700865136 2.736925760 0.151801416
C 1.315285401 -1.261866698 2.359412772
H -2.291332365 -2.888581138 2.117159048
H -4.963812133 -0.778863775 -1.943831346
H -2.883412926 2.369663610 0.891832850
H -1.558552812 2.314619422 -2.149726947
H 2.451539547 0.191526029 -2.999434929
H 4.677730142 -0.811525801 -0.549343233
H 3.931685184 2.919891084 1.610445787
H -2.076258061 -2.420380666 -2.231574160
H 3.178350287 -1.014179691 3.251153119

