8

N -2.403546796 -0.451989683 -0.267925956
C -0.368171958 1.330458182 -0.333106351
C 1.812540771 -0.117247642 -0.119982869
N 1.136885542 -2.522343125 0.092530326
N -1.352960549 -2.676473043 0.086011111
H -1.804402155 0.972154015 1.574160098
H -0.694265215 3.260373509 -0.904310125
H 3.764944689 0.464007510 -0.112581549

