17

C 4.890821877 0.208383104 0.219583322
C 2.361915242 -0.984156194 0.896848258
C 0.228759171 0.947381727 1.031545215
C -2.312390962 -0.251902873 1.620153783
H -2.192555473 -1.433370664 3.312719924
C -3.562939070 -1.719152358 -0.545633720
O -5.591966829 -0.260523691 -0.479503812
C -4.693521071 1.386230198 1.525515845
H -4.466311004 3.312244998 0.826927409
H -5.971558081 1.354635300 3.141013607
H 0.103024335 1.961888454 -0.770150210
H 0.658577170 2.372565719 2.470796669
H 2.512432494 -1.952560274 2.719381372
H 1.868093031 -2.434316583 -0.489477239
H 4.807912335 1.126880689 -1.627876772
H 5.437204420 1.639683516 1.605044270
H 6.392403074 -1.202763208 0.148133590

