9

O 0.017643768 3.422403937 -0.413876345
C 0.551728105 1.271775251 0.906142839
C -2.037920564 -1.705608067 -0.023658804
O -4.185668400 -1.540653458 -0.039442156
C 2.345170473 -0.482769750 0.140946395
N 2.628413793 -2.587014901 -0.612109126
H 0.153978078 3.110997594 -2.197718432
H 0.354349197 1.586169458 2.923579735
H 0.217946215 -3.043673625 -0.661550238

