13

O 2.890613085 -0.001571836 2.149531304
C 2.252836999 0.513146474 -0.398026135
C 0.123846546 -1.248123079 -1.146699192
C -2.253271164 -0.890237033 0.466446145
C -3.339775341 1.632790022 0.180733255
N -4.148878608 3.627920988 -0.076663373
H 4.005929840 1.287680716 2.756235907
H 3.875207790 0.193121657 -1.646725146
H 1.649817702 2.483670523 -0.626839919
H 0.758345960 -3.200153682 -0.929504937
H -0.322973772 -0.955464350 -3.140425921
H -1.796337107 -1.170236430 2.457689434
H -3.695361950 -2.272543989 -0.045751422

