13

O 2.740983833 -0.301468802 2.529206970
C 2.407596064 -0.499900344 0.060808023
C -0.110171865 -1.477120677 -0.897123913
C -2.350186524 -0.407811458 0.577906840
C -2.656438904 2.302016706 0.136637498
N -2.816173617 4.428852758 -0.252671520
H 2.663746078 1.783914538 0.834073975
H 4.005406613 -1.148056185 -1.110632880
H 2.381156641 1.952919322 -0.952696506
H -0.021315789 -3.517923621 -0.573519104
H -0.305960039 -1.167919758 -2.928547296
H -2.033144205 -0.701825971 2.594067586
H -4.097810044 -1.360042695 0.043645663

