12

N 5.320310402 1.972932807 -0.802455739
C 3.720177947 0.726752612 -0.036764622
C 1.595786993 -0.837591738 0.904089878
O 0.802340901 -0.035456610 3.296175863
C -3.213100082 -0.850961532 -0.256530303
C -2.393994647 1.230558094 -1.219699690
C -0.517568244 -0.868625482 -1.075710194
H 2.312358705 -2.757785917 1.152369353
H -4.733132377 -1.943369043 0.535228018
H -2.737802196 3.140994729 -1.825262294
H -0.181088656 1.482450498 3.109225560
H 0.041836307 -1.854859827 -2.795468455

