12

N 5.850236492 1.595691467 -0.580975945
C 4.050218596 0.587261608 0.085162246
C 1.687286077 -0.699047299 0.891408455
O 0.591492800 0.344726258 2.928226912
C -2.703145299 -0.989640671 0.278973389
C -2.237435769 1.463342778 -0.555960752
C -0.428662016 -0.737416071 -1.159813059
H 2.148763961 -2.716191685 1.110651343
H -4.185815931 -2.284790378 0.811240509
H -3.503648876 2.565490505 -1.721656415
H -1.162998231 2.402321441 1.048792991
H -0.173868391 -1.667358537 -2.965345063

