10

O 4.009221365 0.278678611 -0.884850217
C 1.523727862 0.115110683 -0.637980610
N 0.350041850 -2.020641343 -0.874991516
N -2.225055436 -1.253093305 -0.457331429
C -2.522521005 1.561166416 0.057251010
C -0.070356072 2.266670135 -0.091976599
H 4.668421502 -1.381726660 -1.243071482
H -2.947441930 -2.229020044 1.036347652
H -3.286040185 -1.713145183 -1.996111413
H 0.650634046 4.159005329 0.151264110

