10

O 4.048138480 0.259635104 -0.979234421
C 1.565734149 0.089492629 -0.601985806
N 0.411794717 -2.112903347 -0.555545314
N -2.037018163 -1.439930716 -0.158982243
C -2.479619479 1.260047686 0.225303410
C -0.089061356 2.163173955 -0.267028298
H 4.719121645 -1.423140858 -1.151666393
H -3.194515212 -2.755065638 0.599410998
H -3.339886759 -0.281570421 -1.645760422
H 0.448318796 4.125574127 -0.367974746

