16

C -4.659482323 0.817623116 -0.339263608
N -3.272203421 -1.297682224 0.729950274
C -2.166268173 -0.874195166 2.877191021
C 1.565798589 -0.008111385 0.959892867
O 0.952762703 -1.116856334 -1.072680736
O 3.915072526 0.747847964 1.120292934
C 5.600973320 0.278305560 -0.963147750
H -5.639424957 1.913755769 1.113969759
H -6.055477870 0.127222429 -1.687216856
H -3.377867987 2.098393104 -1.351147017
H -1.081236490 -1.624631016 -0.685573646
H -1.234985911 -2.426354827 3.835377182
H -2.550938971 0.800692946 4.013421452
H 7.411760860 1.063264098 -0.396482833
H 4.908611872 1.205180886 -2.665532058
H 5.765113098 -1.744885609 -1.306404898

