21

C 3.214310187 -2.213284597 2.149558818
C 2.346223050 -0.761098516 -0.193026529
C 0.469707283 1.242487822 0.624448376
C 0.534295363 3.732257530 -1.978766977
C -2.071857154 1.438952877 -1.763745227
C -2.225032363 0.402762847 0.824866209
C -2.981938200 -2.351319472 1.074930039
H 4.681783926 -3.575267304 1.652938792
H 3.977640111 -0.914720287 3.557052933
H 1.666801143 -3.251828375 3.029036714
H 4.001311255 0.158815815 -1.026017370
H 1.675704947 -2.116889044 -1.620628935
H 0.162993357 3.880705154 -4.021125204
H 2.579571780 3.609595199 -1.845554438
H -0.103308152 5.453008294 -1.063349476
H -3.417179789 2.908392951 -2.228565357
H -1.806767601 0.056861708 -3.252598741
H -3.330327806 1.583537202 2.103213171
H -2.700126972 -3.016691738 3.007088811
H -1.911193980 -3.581318698 -0.184983892
H -4.983479703 -2.588150608 0.627656394

