15

C -5.194364314 -0.356524442 0.023313343
C -2.386431792 -0.769871456 -0.255781253
O -1.135562790 1.450557477 0.640850292
C 1.384814812 1.431517523 0.556630622
N 2.682075949 -0.381762831 -0.253307167
C 5.396630261 -0.105499422 -0.217370585
H -5.696350935 -0.030140773 1.995747357
H -5.812387753 1.269159114 -1.083098758
H -6.214125027 -2.020952618 -0.641348764
H -1.730651701 -2.394884330 0.837086048
H -1.844269915 -1.097484336 -2.221506228
H 2.144993920 3.209339301 1.291493277
H 6.135593263 -0.288894149 -2.135286170
H 6.230381755 -1.624051607 0.903352752
H 6.039654267 1.709492513 0.559225254

