15

C -5.274925228 -0.504747454 0.097222705
C -2.497306446 -0.620836089 -0.514994759
O -1.160478356 0.959447723 1.261774329
C 1.294652048 1.081809455 1.048212940
N 2.644486027 0.006210642 -0.581278906
C 5.096111821 -0.074485426 -0.876336321
H -5.631686018 -1.174248810 2.012987423
H -5.982278667 1.423778943 -0.064083353
H -6.328603067 -1.696160835 -1.215322007
H -1.742080840 -2.536398587 -0.353521649
H -2.087633230 0.073896965 -2.416514645
H 4.022598396 2.309200708 2.424394047
H 6.123167123 -1.714553351 -0.189978400
H 5.476864688 1.967100356 1.807829854
H 5.946258938 1.003098866 -2.403227886

