17

C -4.074398700 -0.659840414 -0.977204251
C -2.550851439 1.729931942 -1.049924975
C -1.653241111 -0.488217226 0.474085911
C 0.610731383 -1.993607714 -0.380800979
C 3.125126131 -0.933528882 0.512570864
C 3.675956655 1.763968064 1.035354809
C 3.440117606 -0.065019656 3.160714796
H -4.094278259 -1.832117672 -2.654921208
H -5.832585826 -0.650875364 0.065437039
H -1.537039622 2.163060628 -2.774635263
H -3.276479853 3.367478442 -0.062888309
H 0.449174313 -3.935016790 0.312500041
H 0.619082650 -2.088555095 -2.447648242
H 4.751666395 -2.041950046 -0.091281765
H 2.170583401 3.161954985 1.018492972
H 5.525952724 2.545474110 0.627928061
H -1.840873548 -0.314974486 2.510673877

