17

C -3.847106296 -0.671196308 -0.231029072
C -2.599227086 1.752072181 -1.081687794
C -1.068009994 -0.329171753 -0.021192409
C 1.012075537 -1.828060393 -1.279237514
C 3.046513619 -1.160712172 0.598484087
C 3.210026065 1.604137541 1.148802230
C 1.545219225 -0.004490745 2.770867509
H -4.513042192 -1.998577581 -1.642357025
H -4.996002635 -0.590808360 1.461742993
H -2.423478569 2.114944950 -3.089998636
H -2.915525628 3.420937377 0.061654016
H 0.577447486 -3.844430898 -1.218741636
H 1.374190923 -1.302871847 -3.249058339
H 4.639535716 -2.397063732 0.952590020
H 2.477917913 2.976652013 -0.182716995
H 4.885408908 2.230086908 2.150556499
H -0.695469840 -0.161606562 2.473254050

