11

O -1.609869062 4.256839814 -0.688336426
C -1.059482964 2.064728861 -0.083636009
C -1.931625718 -0.337370764 -1.030036912
C -0.191236448 -2.336537410 -0.500330654
C 2.053770717 -1.463272877 0.345115032
C 1.973259484 1.302120208 0.597414993
O 3.553371803 2.825091045 1.001904634
H -1.835765883 1.220649107 1.852642895
H -3.692004776 -0.561030339 -2.050442456
H -0.680040264 -4.315980456 -0.653155829
H 3.524310139 -2.574842570 1.230951648

