14

C 1.945705463 1.298530088 0.033857656
C 2.255097868 -1.229310308 -0.741601002
O -0.029582151 -2.307848911 1.732478480
C -2.401659640 -1.481639314 0.827750083
O -2.575614977 1.162824036 0.726633011
C -0.607730725 2.385409488 -0.665720921
H 1.044995757 -0.249169668 2.051931787
H 3.552625304 2.487766806 0.451364921
H 1.171787668 -2.071669258 -2.276151118
H 3.986529912 -2.229351502 -0.291642850
H -3.888986123 -2.100285740 2.115210476
H -2.733372810 -2.323659229 -1.046251291
H -0.759226100 4.378329399 -0.177688056
H -1.001098420 2.182278916 -2.698107780

