9

N -2.985274285 -0.131447837 0.502457881
C -0.499722181 0.124503604 -0.060480760
N 1.173493845 -1.753790906 0.008344672
N 3.505311324 -0.462374995 -0.594363275
N 2.984875893 1.918358971 -0.896031424
N 0.560255098 2.327058034 -0.727788540
H -3.720314857 -1.877648866 0.411023048
H -4.113724713 1.291815947 -0.049304183
H 3.072559242 -1.464162220 1.418499521

