15

C 4.131267229 -0.079816891 0.304291071
O 1.741275439 0.427968430 1.466926776
C -0.227531057 -0.782198593 0.561514317
O 0.104807253 -2.932457630 -0.617914213
C -2.818256530 -0.238843789 1.122343494
C -1.913874878 1.791484366 -1.709168859
O -4.375923287 -1.958923889 0.568285319
H 4.639345137 -2.060171673 0.538693285
H 5.478633434 1.126190240 1.274472041
H 4.071019132 0.394136833 -1.701591511
H -3.213462362 1.298906502 2.449232834
H -1.096448464 3.575669607 -1.101607775
H -3.890745647 1.982834764 -2.229324366
H -0.884528113 0.969144928 -3.291645245
H -1.686466653 -3.570626325 -0.634842361

