13

C 0.922906051 2.694350249 -0.212042200
C 1.121156879 -0.200626950 -0.732780668
C 0.636785377 -1.938230292 1.429665912
C -1.426041455 -3.325154303 1.704969586
C -1.091011004 2.427418781 -2.180834352
N -0.970120480 0.054007957 -2.596718116
H 2.559597545 3.842561297 -0.714049873
H 0.265927854 3.201189781 1.674702485
H 2.879917915 -0.722217760 -1.686298392
H 2.128020249 -2.016918393 2.842147751
H -1.668473664 -4.554120284 3.323212591
H -2.920332618 -3.282314930 0.305564160
H -2.365258810 3.754007030 -3.102011153

