10

C 4.762709784 0.098329877 -0.471141188
C 2.538330700 -0.224067623 -0.207430909
C -0.144017218 -0.654902314 0.114462752
C -1.691782415 1.594320055 -0.075255130
N -4.128524651 1.324524177 0.193417362
N -6.201298492 1.012242457 0.434839172
N -1.115285877 -2.823427104 0.533588246
H 6.742393751 0.373751545 -0.706276295
H -1.002975051 3.476080738 -0.425566210
H 0.240451341 -4.176849918 0.609362201

