16

C -2.626656612 0.613912756 1.566268734
C -3.393969644 -0.152869281 -1.072176538
C -0.667718097 0.149676400 -0.434535757
C 1.233419574 -1.962646215 -0.172644283
C 3.545753731 -0.344719115 0.405181300
C 0.922012834 2.178099843 -1.651403201
H -2.853880324 -0.764387622 3.065141651
H -2.989821703 2.550725527 2.126004232
H -4.258242558 1.267128546 -2.267333259
H -4.111964414 -2.047744154 -1.364947706
H 1.487801806 -2.931066943 -1.977940562
H 0.790660787 -3.362811291 1.274394430
H 5.394039655 -1.143065192 -0.039603047
H 3.530823081 0.474035795 2.289277571
H 3.411691344 1.249359225 -1.184906789
H 0.950556013 3.885160883 -0.449517241

