15

O 0.431633743 2.280076816 2.384392324
C 1.219288164 2.478240036 -0.146089889
C 1.797037931 -0.115768326 -1.245054315
C -0.274395528 -2.001883203 -0.583154043
O 0.527220758 -3.511617813 1.563545733
C -2.423189195 -1.271445304 1.082544577
C -1.915438305 1.014598511 2.566327446
H -2.297519649 0.713836466 4.569232443
H 2.888122029 3.685281263 -0.169691416
H -0.260287739 3.419538526 -1.268968667
H 3.577923427 -0.826526239 -0.482134273
H 2.007493214 0.016008853 -3.293770034
H -0.768087857 -3.214817749 -2.174112710
H -0.619382587 -4.917692252 1.711410339
H -3.464464686 2.254084710 1.872575688

