10

O -3.043314086 -0.426750577 0.596727001
C -1.498397916 -0.206383245 -1.442249901
C -0.626434100 -2.198062551 -3.119559055
H -0.824155975 -4.134067633 -2.481626047
H -0.655938167 -1.913378806 -5.157446000
N 1.206399363 -0.723386310 -1.593276095
C 0.174245826 1.788516192 -2.340494005
H 0.701028904 3.281669211 -1.037527106
H 0.206061935 2.310630097 -4.332057509
H -2.288792384 0.429350386 2.010475599

