10

N 3.363219453 0.171113132 0.126332783
C 0.829488007 -0.085269999 0.075124229
O -0.319368609 -1.357479092 1.808672521
N -0.820432364 0.844977487 -1.480116252
C -3.125498426 -0.500312135 0.672942358
O -4.493457921 -2.099788553 -0.057713634
H 4.325246860 -0.941994647 1.324005466
H 4.266412694 0.788705525 -1.420021298
H -0.448058845 2.111463961 -2.850086982
H -3.561541108 1.151356176 1.832642223

