24

C     2.71227   0.85413  -0.64645
C     1.63521  -0.16924  -0.80947
O     1.54892  -0.90958  -1.77460
C     0.53351  -0.20913   0.24443
C     0.94291   0.18752   1.59832
N     1.18035   0.61293   2.65353
N    -0.15957  -1.46876   0.25515
O    -1.39450  -1.12360   0.88702
C    -1.94404   0.21033   0.43293
C    -3.13033  -0.09488  -0.47539
C    -0.77289   0.99812  -0.15804
C    -0.80391   1.29996  -1.64958
H     3.25684   0.97212  -1.58866
H     2.26064   1.80497  -0.33357
H     3.40895   0.54562   0.15183
H    -0.27105  -1.80302  -0.71694
H    -2.29603   0.68538   1.41098
H    -3.83152  -0.73188   0.09272
H    -3.71217   0.76226  -0.87474
H    -2.75946  -0.66632  -1.33570
H    -0.51165   1.93099   0.44534
H    -0.80426   0.35006  -2.19773
H     0.09528   1.86858  -1.93478
H    -1.68339   1.87984  -2.02973
24

C     2.71195   0.85346  -0.64633
C     1.63777  -0.17325  -0.80843
O     1.54871  -0.91004  -1.77636
C     0.54765  -0.22478   0.25080
C     0.94237   0.18611   1.59914
N     1.17925   0.61433   2.65342
N    -0.16136  -1.46358   0.25283
O    -1.38137  -1.14351   0.89073
C    -1.95349   0.23418   0.42801
C    -3.13159  -0.09482  -0.47540
C    -0.79089   1.01397  -0.15981
C    -0.80488   1.30152  -1.65086
H     3.25644   0.97218  -1.58876
H     2.25991   1.80454  -0.33372
H     3.40919   0.54612   0.15182
H    -0.26760  -1.80743  -0.71544
H    -2.29588   0.68558   1.41173
H    -3.83024  -0.73280   0.09359
H    -3.71514   0.75934  -0.87699
H    -2.75807  -0.66679  -1.33462
H    -0.50927   1.93012   0.44573
H    -0.80376   0.34933  -2.19601
H     0.09597   1.86782  -1.93426
H    -1.68225   1.87963  -2.03405
24

C     2.71164   0.85279  -0.64621
C     1.64033  -0.17727  -0.80739
O     1.54849  -0.91049  -1.77811
C     0.56178  -0.24042   0.25717
C     0.94183   0.18471   1.59995
N     1.17814   0.61573   2.65331
N    -0.16316  -1.45840   0.25050
O    -1.36824  -1.16343   0.89444
C    -1.96293   0.25802   0.42310
C    -3.13286  -0.09476  -0.47540
C    -0.80888   1.02982  -0.16157
C    -0.80586   1.30308  -1.65214
H     3.25604   0.97225  -1.58886
H     2.25918   1.80410  -0.33388
H     3.40942   0.54662   0.15182
H    -0.26415  -1.81184  -0.71395
H    -2.29573   0.68578   1.41248
H    -3.82895  -0.73373   0.09446
H    -3.71811   0.75642  -0.87924
H    -2.75668  -0.66726  -1.33353
H    -0.50688   1.92926   0.44612
H    -0.80325   0.34860  -2.19429
H     0.09665   1.86706  -1.93374
H    -1.68111   1.87943  -2.03836
24

C     2.71132   0.85212  -0.64610
C     1.64288  -0.18129  -0.80636
O     1.54828  -0.91094  -1.77987
C     0.57592  -0.25606   0.26354
C     0.94129   0.18330   1.60077
N     1.17704   0.61713   2.65319
N    -0.16495  -1.45323   0.24818
O    -1.35510  -1.18334   0.89815
C    -1.97238   0.28187   0.41819
C    -3.13412  -0.09469  -0.47541
C    -0.82688   1.04566  -0.16334
C    -0.80683   1.30465  -1.65342
H     3.25565   0.97231  -1.58896
H     2.25845   1.80367  -0.33403
H     3.40966   0.54713   0.15181
H    -0.26070  -1.81626  -0.71245
H    -2.29558   0.68599   1.41323
H    -3.82767  -0.73465   0.09532
H    -3.72108   0.75350  -0.88149
H    -2.75529  -0.66773  -1.33244
H    -0.50449   1.92839   0.44651
H    -0.80274   0.34787  -2.19257
H     0.09734   1.86630  -1.93322
H    -1.67997   1.87923  -2.04267
24

C     2.71101   0.85145  -0.64598
C     1.64544  -0.18531  -0.80532
O     1.54807  -0.91140  -1.78163
C     0.59006  -0.27171   0.26991
C     0.94075   0.18190   1.60159
N     1.17594   0.61852   2.65308
N    -0.16675  -1.44805   0.24585
O    -1.34197  -1.20326   0.90185
C    -1.98183   0.30571   0.41327
C    -3.13539  -0.09463  -0.47541
C    -0.84488   1.06151  -0.16510
C    -0.80781   1.30621  -1.65470
H     3.25525   0.97237  -1.58906
H     2.25772   1.80323  -0.33419
H     3.40990   0.54763   0.15180
H    -0.25725  -1.82067  -0.71096
H    -2.29543   0.68619   1.41398
H    -3.82638  -0.73557   0.09619
H    -3.72405   0.75058  -0.88374
H    -2.75389  -0.66821  -1.33135
H    -0.50210   1.92753   0.44690
H    -0.80224   0.34714  -2.19084
H     0.09803   1.86554  -1.93270
H    -1.67883   1.87903  -2.04698
24

C     2.71069   0.85079  -0.64587
C     1.64800  -0.18933  -0.80428
O     1.54785  -0.91185  -1.78339
C     0.60420  -0.28735   0.27628
C     0.94021   0.18049   1.60240
N     1.17484   0.61992   2.65297
N    -0.16854  -1.44287   0.24353
O    -1.32884  -1.22317   0.90556
C    -1.99128   0.32956   0.40836
C    -3.13665  -0.09457  -0.47541
C    -0.86287   1.07736  -0.16687
C    -0.80878   1.30777  -1.65597
H     3.25485   0.97243  -1.58916
H     2.25699   1.80280  -0.33434
H     3.41013   0.54813   0.15179
H    -0.25380  -1.82508  -0.70946
H    -2.29527   0.68639   1.41473
H    -3.82510  -0.73649   0.09706
H    -3.72702   0.74766  -0.88599
H    -2.75250  -0.66868  -1.33026
H    -0.49972   1.92666   0.44729
H    -0.80173   0.34642  -2.18912
H     0.09872   1.86478  -1.93218
H    -1.67770   1.87882  -2.05129
24

C     2.71037   0.85012  -0.64575
C     1.65056  -0.19334  -0.80325
O     1.54764  -0.91231  -1.78515
C     0.61833  -0.30299   0.28264
C     0.93967   0.17909   1.60322
N     1.17373   0.62132   2.65285
N    -0.17034  -1.43770   0.24120
O    -1.31571  -1.24309   0.90927
C    -2.00073   0.35340   0.40344
C    -3.13792  -0.09450  -0.47542
C    -0.88087   1.09321  -0.16863
C    -0.80975   1.30933  -1.65725
H     3.25445   0.97250  -1.58926
H     2.25625   1.80237  -0.33449
H     3.41037   0.54863   0.15178
H    -0.25036  -1.82950  -0.70796
H    -2.29512   0.68660   1.41548
H    -3.82381  -0.73741   0.09793
H    -3.72999   0.74474  -0.88824
H    -2.75111  -0.66915  -1.32917
H    -0.49733   1.92579   0.44768
H    -0.80122   0.34569  -2.18740
H     0.09941   1.86403  -1.93166
H    -1.67656   1.87862  -2.05560
24

C     2.71006   0.84945  -0.64563
C     1.65311  -0.19736  -0.80221
O     1.54742  -0.91276  -1.78690
C     0.63247  -0.31864   0.28901
C     0.93913   0.17768   1.60404
N     1.17263   0.62271   2.65274
N    -0.17214  -1.43252   0.23888
O    -1.30257  -1.26300   0.91298
C    -2.01018   0.37725   0.39853
C    -3.13918  -0.09444  -0.47542
C    -0.89886   1.10906  -0.17040
C    -0.81073   1.31089  -1.65853
H     3.25405   0.97256  -1.58936
H     2.25552   1.80193  -0.33465
H     3.41061   0.54913   0.15177
H    -0.24691  -1.83391  -0.70647
H    -2.29497   0.68680   1.41623
H    -3.82253  -0.73833   0.09879
H    -3.73296   0.74182  -0.89049
H    -2.74972  -0.66962  -1.32809
H    -0.49494   1.92493   0.44807
H    -0.80072   0.34496  -2.18568
H     0.10010   1.86327  -1.93115
H    -1.67542   1.87842  -2.05991
24

C     2.70974   0.84878  -0.64552
C     1.65567  -0.20138  -0.80117
O     1.54721  -0.91322  -1.78866
C     0.64661  -0.33428   0.29538
C     0.93859   0.17628   1.60485
N     1.17153   0.62411   2.65263
N    -0.17393  -1.42734   0.23656
O    -1.28944  -1.28292   0.91669
C    -2.01963   0.40109   0.39362
C    -3.14045  -0.09438  -0.47543
C    -0.91686   1.12491  -0.17216
C    -0.81170   1.31245  -1.65981
H     3.25365   0.97262  -1.58946
H     2.25479   1.80150  -0.33480
H     3.41084   0.54964   0.15176
H    -0.24346  -1.83832  -0.70497
H    -2.29482   0.68700   1.41698
H    -3.82125  -0.73925   0.09966
H    -3.73593   0.73890  -0.89275
H    -2.74833  -0.67009  -1.32700
H    -0.49256   1.92406   0.44846
H    -0.80021   0.34423  -2.18395
H     0.10079   1.86251  -1.93063
H    -1.67428   1.87822  -2.06422
24

C     2.70942   0.84811  -0.64540
C     1.65823  -0.20540  -0.80013
O     1.54699  -0.91367  -1.79042
C     0.66074  -0.34992   0.30175
C     0.93805   0.17487   1.60567
N     1.17043   0.62551   2.65252
N    -0.17573  -1.42216   0.23423
O    -1.27631  -1.30283   0.92040
C    -2.02908   0.42494   0.38870
C    -3.14171  -0.09431  -0.47543
C    -0.93485   1.14075  -0.17393
C    -0.81267   1.31401  -1.66109
H     3.25326   0.97269  -1.58956
H     2.25406   1.80107  -0.33496
H     3.41108   0.55014   0.15175
H    -0.24001  -1.84273  -0.70347
H    -2.29467   0.68721   1.41773
H    -3.81996  -0.74017   0.10053
H    -3.73889   0.73598  -0.89500
H    -2.74694  -0.67056  -1.32591
H    -0.49017   1.92320   0.44885
H    -0.79970   0.34350  -2.18223
H     0.10148   1.86175  -1.93011
H    -1.67314   1.87801  -2.06853
24

C     2.70911   0.84744  -0.64529
C     1.66078  -0.20942  -0.79910
O     1.54678  -0.91413  -1.79218
C     0.67488  -0.36557   0.30812
C     0.93751   0.17347   1.60649
N     1.16933   0.62690   2.65240
N    -0.17752  -1.41699   0.23191
O    -1.26318  -1.32275   0.92410
C    -2.03853   0.44878   0.38379
C    -3.14298  -0.09425  -0.47544
C    -0.95285   1.15660  -0.17569
C    -0.81365   1.31557  -1.66237
H     3.25286   0.97275  -1.58966
H     2.25333   1.80063  -0.33511
H     3.41132   0.55064   0.15174
H    -0.23656  -1.84715  -0.70198
H    -2.29452   0.68741   1.41848
H    -3.81868  -0.74110   0.10139
H    -3.74186   0.73306  -0.89725
H    -2.74555  -0.67103  -1.32482
H    -0.48778   1.92233   0.44924
H    -0.79920   0.34277  -2.18051
H     0.10217   1.86099  -1.92959
H    -1.67201   1.87781  -2.07284
24

C     2.70879   0.84677  -0.64517
C     1.66334  -0.21344  -0.79806
O     1.54656  -0.91458  -1.79394
C     0.68902  -0.38121   0.31449
C     0.93697   0.17206   1.60730
N     1.16822   0.62830   2.65229
N    -0.17932  -1.41181   0.22958
O    -1.25005  -1.34266   0.92781
C    -2.04798   0.47262   0.37887
C    -3.14424  -0.09419  -0.47544
C    -0.97085   1.17245  -0.17746
C    -0.81462   1.31714  -1.66364
H     3.25246   0.97281  -1.58976
H     2.25260   1.80020  -0.33526
H     3.41155   0.55114   0.15173
H    -0.23311  -1.85156  -0.70048
H    -2.29437   0.68761   1.41923
H    -3.81739  -0.74202   0.10226
H    -3.74483   0.73014  -0.89950
H    -2.74416  -0.67150  -1.32373
H    -0.48539   1.92147   0.44963
H    -0.79869   0.34204  -2.17878
H     0.10286   1.86023  -1.92907
H    -1.67087   1.87761  -2.07715
24

C     2.70847   0.84610  -0.64505
C     1.66590  -0.21745  -0.79702
O     1.54635  -0.91504  -1.79569
C     0.70315  -0.39685   0.32086
C     0.93643   0.17066   1.60812
N     1.16712   0.62970   2.65218
N    -0.18111  -1.40663   0.22726
O    -1.23691  -1.36258   0.93152
C    -2.05743   0.49647   0.37396
C    -3.14551  -0.09412  -0.47544
C    -0.98884   1.18830  -0.17922
C    -0.81560   1.31870  -1.66492
H     3.25206   0.97287  -1.58986
H     2.25187   1.79977  -0.33542
H     3.41179   0.55164   0.15172
H    -0.22966  -1.85597  -0.69898
H    -2.29422   0.68782   1.41998
H    -3.81611  -0.74294   0.10313
H    -3.74780   0.72722  -0.90175
H    -2.74276  -0.67197  -1.32264
H    -0.48301   1.92060   0.45002
H    -0.79818   0.34131  -2.17706
H     0.10355   1.85947  -1.92855
H    -1.66973   1.87740  -2.08147
24

C     2.70816   0.84543  -0.64494
C     1.66846  -0.22147  -0.79599
O     1.54613  -0.91549  -1.79745
C     0.71729  -0.41250   0.32723
C     0.93589   0.16925   1.60894
N     1.16602   0.63109   2.65207
N    -0.18291  -1.40146   0.22493
O    -1.22378  -1.38249   0.93523
C    -2.06688   0.52031   0.36905
C    -3.14677  -0.09406  -0.47545
C    -1.00684   1.20415  -0.18099
C    -0.81657   1.32026  -1.66620
H     3.25166   0.97294  -1.58996
H     2.25114   1.79933  -0.33557
H     3.41203   0.55215   0.15171
H    -0.22621  -1.86039  -0.69749
H    -2.29407   0.68802   1.42074
H    -3.81482  -0.74386   0.10399
H    -3.75077   0.72430  -0.90400
H    -2.74137  -0.67244  -1.32156
H    -0.48062   1.91974   0.45041
H    -0.79768   0.34058  -2.17534
H     0.10423   1.85871  -1.92803
H    -1.66859   1.87720  -2.08578
24

C     2.70784   0.84476  -0.64482
C     1.67101  -0.22549  -0.79495
O     1.54592  -0.91594  -1.79921
C     0.73143  -0.42814   0.33360
C     0.93535   0.16785   1.60975
N     1.16492   0.63249   2.65195
N    -0.18470  -1.39628   0.22261
O    -1.21065  -1.40241   0.93894
C    -2.07633   0.54416   0.36413
C    -3.14804  -0.09400  -0.47545
C    -1.02483   1.22000  -0.18275
C    -0.81754   1.32182  -1.66748
H     3.25127   0.97300  -1.59006
H     2.25041   1.79890  -0.33573
H     3.41226   0.55265   0.15170
H    -0.22276  -1.86480  -0.69599
H    -2.29392   0.68822   1.42149
H    -3.81354  -0.74478   0.10486
H    -3.75374   0.72139  -0.90625
H    -2.73998  -0.67291  -1.32047
H    -0.47823   1.91887   0.45080
H    -0.79717   0.33985  -2.17362
H     0.10492   1.85795  -1.92751
H    -1.66745   1.87700  -2.09009
24

C     2.70752   0.84409  -0.64471
C     1.67357  -0.22951  -0.79391
O     1.54570  -0.91640  -1.80097
C     0.74556  -0.44379   0.33997
C     0.93481   0.16644   1.61057
N     1.16382   0.63389   2.65184
N    -0.18650  -1.39110   0.22029
O    -1.19752  -1.42232   0.94265
C    -2.08578   0.56800   0.35922
C    -3.14930  -0.09393  -0.47546
C    -1.04283   1.23584  -0.18452
C    -0.81852   1.32338  -1.66876
H     3.25087   0.97306  -1.59016
H     2.24967   1.79847  -0.33588
H     3.41250   0.55315   0.15170
H    -0.21931  -1.86921  -0.69449
H    -2.29377   0.68843   1.42224
H    -3.81225  -0.74570   0.10573
H    -3.75671   0.71847  -0.90850
H    -2.73859  -0.67338  -1.31938
H    -0.47584   1.91801   0.45119
H    -0.79666   0.33912  -2.17189
H     0.10561   1.85719  -1.92700
H    -1.66632   1.87680  -2.09440
24

C     2.70721   0.84342  -0.64459
C     1.67613  -0.23353  -0.79288
O     1.54549  -0.91685  -1.80273
C     0.75970  -0.45943   0.34634
C     0.93427   0.16504   1.61139
N     1.16271   0.63528   2.65173
N    -0.18829  -1.38593   0.21796
O    -1.18438  -1.44224   0.94635
C    -2.09523   0.59185   0.35430
C    -3.15057  -0.09387  -0.47546
C    -1.06083   1.25169  -0.18628
C    -0.81949   1.32494  -1.67003
H     3.25047   0.97312  -1.59026
H     2.24894   1.79803  -0.33603
H     3.41274   0.55365   0.15169
H    -0.21587  -1.87363  -0.69300
H    -2.29362   0.68863   1.42299
H    -3.81097  -0.74662   0.10660
H    -3.75968   0.71555  -0.91075
H    -2.73720  -0.67385  -1.31829
H    -0.47346   1.91714   0.45158
H    -0.79616   0.33839  -2.17017
H     0.10630   1.85643  -1.92648
H    -1.66518   1.87659  -2.09871
24

C     2.70689   0.84275  -0.64447
C     1.67869  -0.23754  -0.79184
O     1.54528  -0.91731  -1.80448
C     0.77384  -0.47507   0.35271
C     0.93373   0.16363   1.61220
N     1.16161   0.63668   2.65161
N    -0.19009  -1.38075   0.21564
O    -1.17125  -1.46215   0.95006
C    -2.10468   0.61569   0.34939
C    -3.15183  -0.09381  -0.47547
C    -1.07882   1.26754  -0.18805
C    -0.82047   1.32650  -1.67131
H     3.25007   0.97319  -1.59036
H     2.24821   1.79760  -0.33619
H     3.41297   0.55415   0.15168
H    -0.21242  -1.87804  -0.69150
H    -2.29347   0.68883   1.42374
H    -3.80968  -0.74754   0.10746
H    -3.76265   0.71263  -0.91300
H    -2.73581  -0.67433  -1.31720
H    -0.47107   1.91627   0.45198
H    -0.79565   0.33766  -2.16845
H     0.10699   1.85568  -1.92596
H    -1.66404   1.87639  -2.10302
24

C     2.70657   0.84209  -0.64436
C     1.68124  -0.24156  -0.79080
O     1.54506  -0.91776  -1.80624
C     0.78797  -0.49072   0.35908
C     0.93319   0.16223   1.61302
N     1.16051   0.63808   2.65150
N    -0.19188  -1.37557   0.21331
O    -1.15812  -1.48207   0.95377
C    -2.11413   0.63954   0.34448
C    -3.15310  -0.09374  -0.47547
C    -1.09682   1.28339  -0.18981
C    -0.82144   1.32806  -1.67259
H     3.24967   0.97325  -1.59046
H     2.24748   1.79716  -0.33634
H     3.41321   0.55466   0.15167
H    -0.20897  -1.88245  -0.69000
H    -2.29332   0.68904   1.42449
H    -3.80840  -0.74846   0.10833
H    -3.76562   0.70971  -0.91525
H    -2.73442  -0.67480  -1.31611
H    -0.46868   1.91541   0.45237
H    -0.79514   0.33694  -2.16673
H     0.10768   1.85492  -1.92544
H    -1.66290   1.87619  -2.10733
24

C     2.70626   0.84142  -0.64424
C     1.68380  -0.24558  -0.78977
O     1.54485  -0.91822  -1.80800
C     0.80211  -0.50636   0.36545
C     0.93265   0.16082   1.61384
N     1.15941   0.63947   2.65139
N    -0.19368  -1.37040   0.21099
O    -1.14499  -1.50198   0.95748
C    -2.12358   0.66338   0.33956
C    -3.15436  -0.09368  -0.47547
C    -1.11481   1.29924  -0.19158
C    -0.82241   1.32962  -1.67387
H     3.24927   0.97331  -1.59056
H     2.24675   1.79673  -0.33649
H     3.41345   0.55516   0.15166
H    -0.20552  -1.88687  -0.68851
H    -2.29317   0.68924   1.42524
H    -3.80711  -0.74939   0.10920
H    -3.76859   0.70679  -0.91750
H    -2.73302  -0.67527  -1.31503
H    -0.46629   1.91454   0.45276
H    -0.79464   0.33621  -2.16500
H     0.10837   1.85416  -1.92492
H    -1.66176   1.87599  -2.11164
24

C     2.70594   0.84075  -0.64413
C     1.68636  -0.24960  -0.78873
O     1.54463  -0.91867  -1.80976
C     0.81625  -0.52200   0.37182
C     0.93211   0.15942   1.61465
N     1.15831   0.64087   2.65128
N    -0.19548  -1.36522   0.20866
O    -1.13185  -1.52190   0.96119
C    -2.13303   0.68723   0.33465
C    -3.15563  -0.09362  -0.47548
C    -1.13281   1.31509  -0.19334
C    -0.82339   1.33119  -1.67515
H     3.24888   0.97338  -1.59066
H     2.24602   1.79630  -0.33665
H     3.41368   0.55566   0.15165
H    -0.20207  -1.89128  -0.68701
H    -2.29302   0.68944   1.42599
H    -3.80583  -0.75031   0.11006
H    -3.77156   0.70387  -0.91975
H    -2.73163  -0.67574  -1.31394
H    -0.46391   1.91368   0.45315
H    -0.79413   0.33548  -2.16328
H     0.10906   1.85340  -1.92440
H    -1.66063   1.87578  -2.11595
24

C     2.70626   0.84142  -0.64424
C     1.68380  -0.24558  -0.78977
O     1.54485  -0.91822  -1.80800
C     0.80211  -0.50636   0.36545
C     0.93265   0.16082   1.61384
N     1.15941   0.63947   2.65139
N    -0.19368  -1.37040   0.21099
O    -1.14499  -1.50198   0.95748
C    -2.12358   0.66338   0.33956
C    -3.15436  -0.09368  -0.47547
C    -1.11481   1.29924  -0.19158
C    -0.82241   1.32962  -1.67387
H     3.24927   0.97331  -1.59056
H     2.24675   1.79673  -0.33649
H     3.41345   0.55516   0.15166
H    -0.20552  -1.88687  -0.68851
H    -2.29317   0.68924   1.42524
H    -3.80711  -0.74939   0.10920
H    -3.76859   0.70679  -0.91750
H    -2.73302  -0.67527  -1.31503
H    -0.46629   1.91454   0.45276
H    -0.79464   0.33621  -2.16500
H     0.10837   1.85416  -1.92492
H    -1.66176   1.87599  -2.11164
24

C     2.70657   0.84209  -0.64436
C     1.68124  -0.24156  -0.79080
O     1.54506  -0.91776  -1.80624
C     0.78797  -0.49072   0.35908
C     0.93319   0.16223   1.61302
N     1.16051   0.63808   2.65150
N    -0.19188  -1.37557   0.21331
O    -1.15812  -1.48207   0.95377
C    -2.11413   0.63954   0.34448
C    -3.15310  -0.09374  -0.47547
C    -1.09682   1.28339  -0.18981
C    -0.82144   1.32806  -1.67259
H     3.24967   0.97325  -1.59046
H     2.24748   1.79716  -0.33634
H     3.41321   0.55466   0.15167
H    -0.20897  -1.88245  -0.69000
H    -2.29332   0.68904   1.42449
H    -3.80840  -0.74846   0.10833
H    -3.76562   0.70971  -0.91525
H    -2.73442  -0.67480  -1.31611
H    -0.46868   1.91541   0.45237
H    -0.79514   0.33694  -2.16673
H     0.10768   1.85492  -1.92544
H    -1.66290   1.87619  -2.10733
24

C     2.70689   0.84275  -0.64447
C     1.67869  -0.23754  -0.79184
O     1.54528  -0.91731  -1.80448
C     0.77384  -0.47507   0.35271
C     0.93373   0.16363   1.61220
N     1.16161   0.63668   2.65161
N    -0.19009  -1.38075   0.21564
O    -1.17125  -1.46215   0.95006
C    -2.10468   0.61569   0.34939
C    -3.15183  -0.09381  -0.47547
C    -1.07882   1.26754  -0.18805
C    -0.82047   1.32650  -1.67131
H     3.25007   0.97319  -1.59036
H     2.24821   1.79760  -0.33619
H     3.41297   0.55415   0.15168
H    -0.21242  -1.87804  -0.69150
H    -2.29347   0.68883   1.42374
H    -3.80968  -0.74754   0.10746
H    -3.76265   0.71263  -0.91300
H    -2.73581  -0.67433  -1.31720
H    -0.47107   1.91627   0.45198
H    -0.79565   0.33766  -2.16845
H     0.10699   1.85568  -1.92596
H    -1.66404   1.87639  -2.10302
24

C     2.70721   0.84342  -0.64459
C     1.67613  -0.23353  -0.79288
O     1.54549  -0.91685  -1.80273
C     0.75970  -0.45943   0.34634
C     0.93427   0.16504   1.61139
N     1.16271   0.63528   2.65173
N    -0.18829  -1.38593   0.21796
O    -1.18438  -1.44224   0.94635
C    -2.09523   0.59185   0.35430
C    -3.15057  -0.09387  -0.47546
C    -1.06083   1.25169  -0.18628
C    -0.81949   1.32494  -1.67003
H     3.25047   0.97312  -1.59026
H     2.24894   1.79803  -0.33603
H     3.41274   0.55365   0.15169
H    -0.21587  -1.87363  -0.69300
H    -2.29362   0.68863   1.42299
H    -3.81097  -0.74662   0.10660
H    -3.75968   0.71555  -0.91075
H    -2.73720  -0.67385  -1.31829
H    -0.47346   1.91714   0.45158
H    -0.79616   0.33839  -2.17017
H     0.10630   1.85643  -1.92648
H    -1.66518   1.87659  -2.09871
24

C     2.70752   0.84409  -0.64471
C     1.67357  -0.22951  -0.79391
O     1.54570  -0.91640  -1.80097
C     0.74556  -0.44379   0.33997
C     0.93481   0.16644   1.61057
N     1.16382   0.63389   2.65184
N    -0.18650  -1.39110   0.22029
O    -1.19752  -1.42232   0.94265
C    -2.08578   0.56800   0.35922
C    -3.14930  -0.09393  -0.47546
C    -1.04283   1.23584  -0.18452
C    -0.81852   1.32338  -1.66876
H     3.25087   0.97306  -1.59016
H     2.24967   1.79847  -0.33588
H     3.41250   0.55315   0.15170
H    -0.21931  -1.86921  -0.69449
H    -2.29377   0.68843   1.42224
H    -3.81225  -0.74570   0.10573
H    -3.75671   0.71847  -0.90850
H    -2.73859  -0.67338  -1.31938
H    -0.47584   1.91801   0.45119
H    -0.79666   0.33912  -2.17189
H     0.10561   1.85719  -1.92700
H    -1.66632   1.87680  -2.09440
24

C     2.70784   0.84476  -0.64482
C     1.67101  -0.22549  -0.79495
O     1.54592  -0.91594  -1.79921
C     0.73143  -0.42814   0.33360
C     0.93535   0.16785   1.60975
N     1.16492   0.63249   2.65195
N    -0.18470  -1.39628   0.22261
O    -1.21065  -1.40241   0.93894
C    -2.07633   0.54416   0.36413
C    -3.14804  -0.09400  -0.47545
C    -1.02483   1.22000  -0.18275
C    -0.81754   1.32182  -1.66748
H     3.25127   0.97300  -1.59006
H     2.25041   1.79890  -0.33573
H     3.41226   0.55265   0.15170
H    -0.22276  -1.86480  -0.69599
H    -2.29392   0.68822   1.42149
H    -3.81354  -0.74478   0.10486
H    -3.75374   0.72139  -0.90625
H    -2.73998  -0.67291  -1.32047
H    -0.47823   1.91887   0.45080
H    -0.79717   0.33985  -2.17362
H     0.10492   1.85795  -1.92751
H    -1.66745   1.87700  -2.09009
24

C     2.70816   0.84543  -0.64494
C     1.66846  -0.22147  -0.79599
O     1.54613  -0.91549  -1.79745
C     0.71729  -0.41250   0.32723
C     0.93589   0.16925   1.60894
N     1.16602   0.63109   2.65207
N    -0.18291  -1.40146   0.22493
O    -1.22378  -1.38249   0.93523
C    -2.06688   0.52031   0.36905
C    -3.14677  -0.09406  -0.47545
C    -1.00684   1.20415  -0.18099
C    -0.81657   1.32026  -1.66620
H     3.25166   0.97294  -1.58996
H     2.25114   1.79933  -0.33557
H     3.41203   0.55215   0.15171
H    -0.22621  -1.86039  -0.69749
H    -2.29407   0.68802   1.42074
H    -3.81482  -0.74386   0.10399
H    -3.75077   0.72430  -0.90400
H    -2.74137  -0.67244  -1.32156
H    -0.48062   1.91974   0.45041
H    -0.79768   0.34058  -2.17534
H     0.10423   1.85871  -1.92803
H    -1.66859   1.87720  -2.08578
24

C     2.70847   0.84610  -0.64505
C     1.66590  -0.21745  -0.79702
O     1.54635  -0.91504  -1.79569
C     0.70315  -0.39685   0.32086
C     0.93643   0.17066   1.60812
N     1.16712   0.62970   2.65218
N    -0.18111  -1.40663   0.22726
O    -1.23691  -1.36258   0.93152
C    -2.05743   0.49647   0.37396
C    -3.14551  -0.09412  -0.47544
C    -0.98884   1.18830  -0.17922
C    -0.81560   1.31870  -1.66492
H     3.25206   0.97287  -1.58986
H     2.25187   1.79977  -0.33542
H     3.41179   0.55164   0.15172
H    -0.22966  -1.85597  -0.69898
H    -2.29422   0.68782   1.41998
H    -3.81611  -0.74294   0.10313
H    -3.74780   0.72722  -0.90175
H    -2.74276  -0.67197  -1.32264
H    -0.48301   1.92060   0.45002
H    -0.79818   0.34131  -2.17706
H     0.10355   1.85947  -1.92855
H    -1.66973   1.87740  -2.08147
24

C     2.70879   0.84677  -0.64517
C     1.66334  -0.21344  -0.79806
O     1.54656  -0.91458  -1.79394
C     0.68902  -0.38121   0.31449
C     0.93697   0.17206   1.60730
N     1.16822   0.62830   2.65229
N    -0.17932  -1.41181   0.22958
O    -1.25005  -1.34266   0.92781
C    -2.04798   0.47262   0.37887
C    -3.14424  -0.09419  -0.47544
C    -0.97085   1.17245  -0.17746
C    -0.81462   1.31714  -1.66364
H     3.25246   0.97281  -1.58976
H     2.25260   1.80020  -0.33526
H     3.41155   0.55114   0.15173
H    -0.23311  -1.85156  -0.70048
H    -2.29437   0.68761   1.41923
H    -3.81739  -0.74202   0.10226
H    -3.74483   0.73014  -0.89950
H    -2.74416  -0.67150  -1.32373
H    -0.48539   1.92147   0.44963
H    -0.79869   0.34204  -2.17878
H     0.10286   1.86023  -1.92907
H    -1.67087   1.87761  -2.07715
24

C     2.70911   0.84744  -0.64529
C     1.66078  -0.20942  -0.79910
O     1.54678  -0.91413  -1.79218
C     0.67488  -0.36557   0.30812
C     0.93751   0.17347   1.60649
N     1.16933   0.62690   2.65240
N    -0.17752  -1.41699   0.23191
O    -1.26318  -1.32275   0.92410
C    -2.03853   0.44878   0.38379
C    -3.14298  -0.09425  -0.47544
C    -0.95285   1.15660  -0.17569
C    -0.81365   1.31557  -1.66237
H     3.25286   0.97275  -1.58966
H     2.25333   1.80063  -0.33511
H     3.41132   0.55064   0.15174
H    -0.23656  -1.84715  -0.70198
H    -2.29452   0.68741   1.41848
H    -3.81868  -0.74110   0.10139
H    -3.74186   0.73306  -0.89725
H    -2.74555  -0.67103  -1.32482
H    -0.48778   1.92233   0.44924
H    -0.79920   0.34277  -2.18051
H     0.10217   1.86099  -1.92959
H    -1.67201   1.87781  -2.07284
24

C     2.70942   0.84811  -0.64540
C     1.65823  -0.20540  -0.80013
O     1.54699  -0.91367  -1.79042
C     0.66074  -0.34992   0.30175
C     0.93805   0.17487   1.60567
N     1.17043   0.62551   2.65252
N    -0.17573  -1.42216   0.23423
O    -1.27631  -1.30283   0.92040
C    -2.02908   0.42494   0.38870
C    -3.14171  -0.09431  -0.47543
C    -0.93485   1.14075  -0.17393
C    -0.81267   1.31401  -1.66109
H     3.25326   0.97269  -1.58956
H     2.25406   1.80107  -0.33496
H     3.41108   0.55014   0.15175
H    -0.24001  -1.84273  -0.70347
H    -2.29467   0.68721   1.41773
H    -3.81996  -0.74017   0.10053
H    -3.73889   0.73598  -0.89500
H    -2.74694  -0.67056  -1.32591
H    -0.49017   1.92320   0.44885
H    -0.79970   0.34350  -2.18223
H     0.10148   1.86175  -1.93011
H    -1.67314   1.87801  -2.06853
24

C     2.70974   0.84878  -0.64552
C     1.65567  -0.20138  -0.80117
O     1.54721  -0.91322  -1.78866
C     0.64661  -0.33428   0.29538
C     0.93859   0.17628   1.60485
N     1.17153   0.62411   2.65263
N    -0.17393  -1.42734   0.23656
O    -1.28944  -1.28292   0.91669
C    -2.01963   0.40109   0.39362
C    -3.14045  -0.09438  -0.47543
C    -0.91686   1.12491  -0.17216
C    -0.81170   1.31245  -1.65981
H     3.25365   0.97262  -1.58946
H     2.25479   1.80150  -0.33480
H     3.41084   0.54964   0.15176
H    -0.24346  -1.83832  -0.70497
H    -2.29482   0.68700   1.41698
H    -3.82125  -0.73925   0.09966
H    -3.73593   0.73890  -0.89275
H    -2.74833  -0.67009  -1.32700
H    -0.49256   1.92406   0.44846
H    -0.80021   0.34423  -2.18395
H     0.10079   1.86251  -1.93063
H    -1.67428   1.87822  -2.06422
24

C     2.71006   0.84945  -0.64563
C     1.65311  -0.19736  -0.80221
O     1.54742  -0.91276  -1.78690
C     0.63247  -0.31864   0.28901
C     0.93913   0.17768   1.60404
N     1.17263   0.62271   2.65274
N    -0.17214  -1.43252   0.23888
O    -1.30257  -1.26300   0.91298
C    -2.01018   0.37725   0.39853
C    -3.13918  -0.09444  -0.47542
C    -0.89886   1.10906  -0.17040
C    -0.81073   1.31089  -1.65853
H     3.25405   0.97256  -1.58936
H     2.25552   1.80193  -0.33465
H     3.41061   0.54913   0.15177
H    -0.24691  -1.83391  -0.70647
H    -2.29497   0.68680   1.41623
H    -3.82253  -0.73833   0.09879
H    -3.73296   0.74182  -0.89049
H    -2.74972  -0.66962  -1.32809
H    -0.49494   1.92493   0.44807
H    -0.80072   0.34496  -2.18568
H     0.10010   1.86327  -1.93115
H    -1.67542   1.87842  -2.05991
24

C     2.71037   0.85012  -0.64575
C     1.65056  -0.19334  -0.80325
O     1.54764  -0.91231  -1.78515
C     0.61833  -0.30299   0.28264
C     0.93967   0.17909   1.60322
N     1.17373   0.62132   2.65285
N    -0.17034  -1.43770   0.24120
O    -1.31571  -1.24309   0.90927
C    -2.00073   0.35340   0.40344
C    -3.13792  -0.09450  -0.47542
C    -0.88087   1.09321  -0.16863
C    -0.80975   1.30933  -1.65725
H     3.25445   0.97250  -1.58926
H     2.25625   1.80237  -0.33449
H     3.41037   0.54863   0.15178
H    -0.25036  -1.82950  -0.70796
H    -2.29512   0.68660   1.41548
H    -3.82381  -0.73741   0.09793
H    -3.72999   0.74474  -0.88824
H    -2.75111  -0.66915  -1.32917
H    -0.49733   1.92579   0.44768
H    -0.80122   0.34569  -2.18740
H     0.09941   1.86403  -1.93166
H    -1.67656   1.87862  -2.05560
24

C     2.71069   0.85079  -0.64587
C     1.64800  -0.18933  -0.80428
O     1.54785  -0.91185  -1.78339
C     0.60420  -0.28735   0.27628
C     0.94021   0.18049   1.60240
N     1.17484   0.61992   2.65297
N    -0.16854  -1.44287   0.24353
O    -1.32884  -1.22317   0.90556
C    -1.99128   0.32956   0.40836
C    -3.13665  -0.09457  -0.47541
C    -0.86287   1.07736  -0.16687
C    -0.80878   1.30777  -1.65597
H     3.25485   0.97243  -1.58916
H     2.25699   1.80280  -0.33434
H     3.41013   0.54813   0.15179
H    -0.25380  -1.82508  -0.70946
H    -2.29527   0.68639   1.41473
H    -3.82510  -0.73649   0.09706
H    -3.72702   0.74766  -0.88599
H    -2.75250  -0.66868  -1.33026
H    -0.49972   1.92666   0.44729
H    -0.80173   0.34642  -2.18912
H     0.09872   1.86478  -1.93218
H    -1.67770   1.87882  -2.05129
24

C     2.71101   0.85145  -0.64598
C     1.64544  -0.18531  -0.80532
O     1.54807  -0.91140  -1.78163
C     0.59006  -0.27171   0.26991
C     0.94075   0.18190   1.60159
N     1.17594   0.61852   2.65308
N    -0.16675  -1.44805   0.24585
O    -1.34197  -1.20326   0.90185
C    -1.98183   0.30571   0.41327
C    -3.13539  -0.09463  -0.47541
C    -0.84488   1.06151  -0.16510
C    -0.80781   1.30621  -1.65470
H     3.25525   0.97237  -1.58906
H     2.25772   1.80323  -0.33419
H     3.40990   0.54763   0.15180
H    -0.25725  -1.82067  -0.71096
H    -2.29543   0.68619   1.41398
H    -3.82638  -0.73557   0.09619
H    -3.72405   0.75058  -0.88374
H    -2.75389  -0.66821  -1.33135
H    -0.50210   1.92753   0.44690
H    -0.80224   0.34714  -2.19084
H     0.09803   1.86554  -1.93270
H    -1.67883   1.87903  -2.04698
24

C     2.71132   0.85212  -0.64610
C     1.64288  -0.18129  -0.80636
O     1.54828  -0.91094  -1.77987
C     0.57592  -0.25606   0.26354
C     0.94129   0.18330   1.60077
N     1.17704   0.61713   2.65319
N    -0.16495  -1.45323   0.24818
O    -1.35510  -1.18334   0.89815
C    -1.97238   0.28187   0.41819
C    -3.13412  -0.09469  -0.47541
C    -0.82688   1.04566  -0.16334
C    -0.80683   1.30465  -1.65342
H     3.25565   0.97231  -1.58896
H     2.25845   1.80367  -0.33403
H     3.40966   0.54713   0.15181
H    -0.26070  -1.81626  -0.71245
H    -2.29558   0.68599   1.41323
H    -3.82767  -0.73465   0.09532
H    -3.72108   0.75350  -0.88149
H    -2.75529  -0.66773  -1.33244
H    -0.50449   1.92839   0.44651
H    -0.80274   0.34787  -2.19257
H     0.09734   1.86630  -1.93322
H    -1.67997   1.87923  -2.04267
24

C     2.71164   0.85279  -0.64621
C     1.64033  -0.17727  -0.80739
O     1.54849  -0.91049  -1.77811
C     0.56178  -0.24042   0.25717
C     0.94183   0.18471   1.59995
N     1.17814   0.61573   2.65331
N    -0.16316  -1.45840   0.25050
O    -1.36824  -1.16343   0.89444
C    -1.96293   0.25802   0.42310
C    -3.13286  -0.09476  -0.47540
C    -0.80888   1.02982  -0.16157
C    -0.80586   1.30308  -1.65214
H     3.25604   0.97225  -1.58886
H     2.25918   1.80410  -0.33388
H     3.40942   0.54662   0.15182
H    -0.26415  -1.81184  -0.71395
H    -2.29573   0.68578   1.41248
H    -3.82895  -0.73373   0.09446
H    -3.71811   0.75642  -0.87924
H    -2.75668  -0.66726  -1.33353
H    -0.50688   1.92926   0.44612
H    -0.80325   0.34860  -2.19429
H     0.09665   1.86706  -1.93374
H    -1.68111   1.87943  -2.03836
24

C     2.71195   0.85346  -0.64633
C     1.63777  -0.17325  -0.80843
O     1.54871  -0.91004  -1.77636
C     0.54765  -0.22478   0.25080
C     0.94237   0.18611   1.59914
N     1.17925   0.61433   2.65342
N    -0.16136  -1.46358   0.25283
O    -1.38137  -1.14351   0.89073
C    -1.95349   0.23418   0.42801
C    -3.13159  -0.09482  -0.47540
C    -0.79089   1.01397  -0.15981
C    -0.80488   1.30152  -1.65086
H     3.25644   0.97218  -1.58876
H     2.25991   1.80454  -0.33372
H     3.40919   0.54612   0.15182
H    -0.26760  -1.80743  -0.71544
H    -2.29588   0.68558   1.41173
H    -3.83024  -0.73280   0.09359
H    -3.71514   0.75934  -0.87699
H    -2.75807  -0.66679  -1.33462
H    -0.50927   1.93012   0.44573
H    -0.80376   0.34933  -2.19601
H     0.09597   1.86782  -1.93426
H    -1.68225   1.87963  -2.03405
