13

O 2.214264855 3.641588414 1.665806202
C 1.302995850 1.780052146 0.748237909
C 2.960413936 -0.298564822 -0.377007600
O 1.350493134 -2.178009287 -1.423443403
C -0.524331215 -1.090084754 -2.649059958
C -2.821576627 -0.488043560 1.580617500
C -1.509257832 1.411582991 0.524143112
H 4.139557439 -1.178021667 1.064100321
H 4.148648571 0.545002400 -1.835371346
H -1.940624197 -2.602201288 -2.980880653
H -1.906800462 -2.114371437 2.421196479
H -4.864796172 -0.429131594 1.648573109
H -2.484003398 3.059252622 -0.201518202

