14

O 2.958567674 3.817114623 -0.648728352
C 1.511320543 2.090275086 -0.233666525
C 2.371459606 -0.522021535 0.538821824
C 0.576124243 -2.609008649 -0.347548602
C -2.146715290 -2.270763962 0.004376795
C -2.849763782 0.391346104 0.219644946
N -1.038571954 2.343882851 -0.427010698
H 2.489982548 -0.554211281 2.604026008
H 4.285378685 -0.786378403 -0.169992827
H 1.224688434 -4.492304224 0.184847454
H 0.506097569 -2.660937812 -2.450841199
H -3.313755173 0.361043930 2.274842841
H -4.659100920 0.784123204 -0.689121305
H -1.660912813 4.092850741 -0.845881797

