16

C -3.121912293 1.323267774 -1.029963552
C -0.792108298 0.287123513 0.242378805
C -1.158726769 -0.403377102 2.970993096
C 1.376649627 -0.026319179 -1.010369719
O 1.647565073 0.520437378 -3.528421730
C 3.841643854 -0.968278016 -0.009690591
H -2.710334611 2.603642582 -2.599102043
H -4.240057269 2.418511197 0.315061735
H -4.350456695 -0.181084366 -1.744379918
H 0.044943999 1.004404836 -4.223269850
H -1.641198774 1.263722428 4.096746053
H 0.495103558 -1.277460378 3.821682998
H -2.730958175 -1.732636140 3.174540070
H 3.798188336 -1.322958388 2.010651854
H 4.378596455 -2.708879616 -0.980141055
H 5.311413099 0.427198272 -0.399015369

