16

C -2.804184665 1.871727031 -0.840144777
C -1.014383686 -0.333292697 -0.292842354
C -1.424061476 -1.485333427 2.285340402
C 1.486613319 -0.082338466 -1.231427557
O 1.478290965 -0.194123930 -3.659796983
C 3.927477350 0.031058367 0.148205248
H -2.390556214 2.807628842 -2.628555031
H -2.704286958 3.294667030 0.666757738
H -4.755659121 1.205715811 -0.922193190
H -0.675930185 -0.949874710 -3.049027484
H -1.197815527 -0.095155307 3.810609543
H -0.136347878 -3.053272055 2.658412817
H -3.343223486 -2.229598130 2.434097526
H 3.778204973 1.117983443 1.890069318
H 4.484748683 -1.895647619 0.645790508
H 5.384260397 0.799064890 -1.086501550

