10

C 1.427867800 -1.358671283 -0.439646125
H 3.232056738 -2.307495872 -0.397423993
C -0.777028133 -1.438488155 1.082272286
H -1.438414267 -2.622273978 2.608455375
C -1.108188425 1.652327825 0.762428449
O -3.674096748 1.619853770 -0.328410590
C -2.313122324 -0.385369449 -1.265170110
H -3.119041572 -1.706587153 -2.603408483
C 0.426045180 0.724939552 -1.793318364
H 1.053422291 1.865618548 -3.365959443

