11

C -2.925489813 0.081290689 -1.079977365
C -0.232180142 -0.147666110 -0.310483986
O 0.155086214 1.453259351 1.776226509
C 1.561563278 -1.554545232 -1.314934706
C 4.459255749 1.551571748 3.589520695
N 2.458566815 1.445261879 2.672490766
H -4.170109038 -0.457670238 0.473694171
H -3.299143716 -1.140978386 -2.689040175
H -3.366174758 2.028399065 -1.598228519
H 1.107858914 -2.735750029 -2.915640542
H 3.472787059 -1.577492535 -0.596189997

