16

C -2.105359371 2.860066323 -0.963057459
C -0.122889854 0.554574430 0.897590033
C -1.516288917 -1.922590011 0.408888073
O -0.662036862 -3.689795384 2.150393680
N 2.399291303 1.019307028 0.084228136
C 4.001574891 -0.859177948 -0.413128751
O 3.763208107 -3.147401448 -0.022507961
H -1.366799978 4.641677682 -1.748101526
H -3.406653221 3.349080447 0.537952323
H -2.944835639 1.750550668 -2.467286314
H -0.515757225 1.300499220 2.778978591
H -3.538649627 -1.642411487 0.717022941
H -1.213835095 -2.511592624 -1.556673970
H 1.108004782 -3.990324463 1.659821553
H 0.235455245 2.497781145 -0.782271820
H 5.782194011 -0.153948636 -1.224182536

