16

C 3.465859739 2.334872203 -0.263830919
O 2.441292677 0.006170901 -0.830617647
C -1.311866792 -0.291730250 0.301980181
C -2.655724701 -0.745800446 -2.151763467
C -1.219418725 -2.429547311 2.159729815
C -0.956502131 2.128287550 1.128328106
N 0.148547043 4.023610231 1.500042242
H 3.341773216 3.837092392 -1.646489384
H 4.405527434 2.593904824 1.534492724
H 4.557831668 0.388358655 -1.389426084
H -1.804126671 -2.368433342 -3.100955155
H -2.528203601 0.887139526 -3.397730444
H -4.653863355 -1.178394925 -1.841516679
H -3.118680729 -2.979037150 2.765102011
H -0.119845751 -1.935183713 3.827630401
H -0.350526697 -4.072375767 1.262272498

