14

C -3.819114331 -0.505787937 -0.933214431
C -1.542943825 0.204277807 0.641979743
O -0.932903779 2.804052403 0.394384652
H -2.428636520 3.779879271 0.709256526
C -0.820130197 -1.119683289 3.004281169
H -1.209975386 -1.441713842 4.976432537
C 0.627812542 -1.487509900 1.063432681
C 2.896830359 -2.593653717 -0.116110990
H 3.939381018 -3.775559489 1.209837001
H 2.375093039 -3.731974940 -1.756579310
H 4.139700529 -1.088215324 -0.782844540
H -5.502069061 0.524149688 -0.310190550
H -3.499526797 -0.044523081 -2.919577767
H -4.221386549 -2.519766786 -0.774048469

