17

C -3.363292812 -0.879802645 -0.705158390
C -1.257692539 0.826912575 0.166381825
O -1.558601170 3.322222809 -0.859737760
C 0.130435379 0.560889157 2.595241654
C 1.387295664 -0.106608332 0.253722888
C 2.613065021 -2.389273752 -0.841425841
O 3.196437403 2.294386559 -0.078710136
H -5.150598257 -0.245983873 0.107747138
H -3.552282584 -0.843862265 -2.759956419
H -3.048134494 -2.823664661 -0.098719463
H -2.061144485 4.383692272 0.526255334
H -0.409654640 -0.823375026 4.001950360
H 2.459813902 2.627469742 1.782572965
H 4.355953908 -2.839870442 0.162748751
H 1.331586386 -3.989680142 -0.636737416
H 3.040152158 -2.155583208 -2.845465997
H 2.142698262 3.410336977 -1.117073558

