10

N 3.989256617 0.180324130 -0.930366860
C 1.915881994 1.594988168 -0.812314705
N 0.109510215 2.818086284 -0.809898974
C -3.368275775 0.730087128 -0.004444919
C -2.399173006 -1.527255565 0.527757081
O -0.686803083 -3.028406490 0.403777781
H 5.496517348 0.845004000 0.022916633
H 3.623775950 -1.677423275 -0.676269693
H -4.165973883 2.048405841 1.335191247
H -4.533315023 -2.033105617 0.983981073

