16

C 3.738990699 0.736776116 0.037627414
C 1.019661616 -0.055000989 0.227611483
C -0.689010586 -0.534256340 -1.998891294
C -3.377669924 0.144112763 -0.863218636
O -3.011509995 1.139979741 1.562917928
C -0.095267935 -1.089993707 2.414622840
H 3.957635451 2.278913330 -1.314677476
H 4.455983159 1.386430396 1.861377644
H 4.952215980 -0.813685966 -0.591206166
H -0.573646321 1.674775957 1.114455740
H -0.199936180 0.678867178 -3.595983162
H -0.672078715 -2.487971029 -2.668074136
H -4.580007113 -1.540551564 -0.791512505
H -4.327062282 1.538962002 -2.055280854
H 0.665424290 -0.606900455 4.259761614
H -1.396656800 -2.677111204 2.409132014

