26

C     3.36475   2.21140   0.88601
O     2.44245   1.13217   1.11963
C     2.34898   0.21803   0.16049
O     2.94109   0.23789  -0.90092
C     1.42789  -0.87092   0.50104
O     0.63811  -0.81316   1.56321
N    -0.23923  -1.77563   1.60237
O    -0.06975  -2.46566   0.50339
C     1.00778  -1.96115  -0.30273
O     1.33436  -2.48906  -1.33667
C    -1.85531  -0.18494   0.08436
F    -2.58278  -1.29886  -0.12655
C    -2.15635   0.81883   1.20230
C    -2.94785   1.93190   0.45385
C    -2.04975   2.51697  -0.34176
C    -0.71940   1.75594  -0.07188
O    -0.87089   1.44181   1.31905
C    -0.96778   0.36605  -0.69257
Cl   -0.60186  -0.02681  -2.35336
H     3.31883   2.83702   1.78207
H     3.08600   2.77539  -0.00485
H     4.38783   1.80255   0.76327
H    -2.52419   0.45606   2.17972
H    -4.00306   2.02408   0.51051
H    -2.16603   3.22827  -1.12204
H     0.24065   2.27998  -0.26734
26

C     3.36587   2.21044   0.88650
O     2.44205   1.13220   1.11877
C     2.34603   0.22020   0.15809
O     2.94100   0.23774  -0.90154
C     1.41312  -0.85926   0.49300
O     0.63580  -0.80977   1.56425
N    -0.25674  -1.76135   1.59052
O    -0.07354  -2.46583   0.49842
C     1.00211  -1.95930  -0.30423
O     1.33556  -2.48748  -1.33507
C    -1.84131  -0.19611   0.09841
F    -2.57858  -1.29515  -0.12845
C    -2.15259   0.81634   1.20469
C    -2.94523   1.92233   0.45004
C    -2.04718   2.50794  -0.34568
C    -0.71538   1.75441  -0.06978
O    -0.86896   1.44305   1.32154
C    -0.95035   0.36031  -0.68489
Cl   -0.60507  -0.02691  -2.34753
H     3.31913   2.83667   1.78226
H     3.08662   2.77526  -0.00472
H     4.38807   1.80203   0.76358
H    -2.52341   0.45647   2.18068
H    -4.00246   2.02065   0.50857
H    -2.16569   3.22483  -1.12394
H     0.24114   2.28080  -0.26638
26

C     3.36700   2.20948   0.88699
O     2.44165   1.13223   1.11792
C     2.34308   0.22238   0.15569
O     2.94091   0.23759  -0.90216
C     1.39836  -0.84759   0.48496
O     0.63349  -0.80637   1.56528
N    -0.27425  -1.74707   1.57868
O    -0.07734  -2.46600   0.49346
C     0.99645  -1.95745  -0.30573
O     1.33677  -2.48591  -1.33346
C    -1.82731  -0.20729   0.11246
F    -2.57437  -1.29145  -0.13034
C    -2.14883   0.81385   1.20707
C    -2.94260   1.91276   0.44623
C    -2.04462   2.49891  -0.34959
C    -0.71136   1.75288  -0.06768
O    -0.86703   1.44428   1.32403
C    -0.93291   0.35457  -0.67720
Cl   -0.60828  -0.02701  -2.34170
H     3.31944   2.83633   1.78245
H     3.08725   2.77512  -0.00459
H     4.38832   1.80152   0.76388
H    -2.52263   0.45688   2.18165
H    -4.00187   2.01722   0.50663
H    -2.16535   3.22139  -1.12585
H     0.24164   2.28161  -0.26542
26

C     3.36813   2.20852   0.88748
O     2.44125   1.13226   1.11707
C     2.34012   0.22455   0.15329
O     2.94082   0.23743  -0.90277
C     1.38359  -0.83593   0.47692
O     0.63118  -0.80297   1.56632
N    -0.29176  -1.73279   1.56683
O    -0.08113  -2.46617   0.48849
C     0.99079  -1.95560  -0.30723
O     1.33797  -2.48433  -1.33186
C    -1.81331  -0.21846   0.12651
F    -2.57017  -1.28775  -0.13224
C    -2.14507   0.81136   1.20945
C    -2.93998   1.90320   0.44242
C    -2.04205   2.48988  -0.35350
C    -0.70734   1.75136  -0.06558
O    -0.86510   1.44551   1.32652
C    -0.91547   0.34883  -0.66951
Cl   -0.61150  -0.02711  -2.33587
H     3.31975   2.83598   1.78264
H     3.08787   2.77498  -0.00445
H     4.38856   1.80100   0.76418
H    -2.52184   0.45729   2.18261
H    -4.00127   2.01379   0.50469
H    -2.16501   3.21795  -1.12776
H     0.24213   2.28243  -0.26446
26

C     3.36925   2.20755   0.88797
O     2.44085   1.13229   1.11622
C     2.33717   0.22672   0.15089
O     2.94073   0.23728  -0.90339
C     1.36882  -0.82427   0.46888
O     0.62887  -0.79957   1.56736
N    -0.30927  -1.71852   1.55498
O    -0.08492  -2.46634   0.48352
C     0.98513  -1.95375  -0.30873
O     1.33918  -2.48275  -1.33026
C    -1.79931  -0.22963   0.14055
F    -2.56597  -1.28404  -0.13414
C    -2.14131   0.80887   1.21184
C    -2.93736   1.89363   0.43861
C    -2.03948   2.48085  -0.35741
C    -0.70332   1.74983  -0.06348
O    -0.86317   1.44675   1.32900
C    -0.89804   0.34309  -0.66183
Cl   -0.61471  -0.02721  -2.33004
H     3.32005   2.83563   1.78283
H     3.08850   2.77484  -0.00432
H     4.38880   1.80048   0.76449
H    -2.52106   0.45770   2.18358
H    -4.00067   2.01037   0.50276
H    -2.16467   3.21451  -1.12966
H     0.24262   2.28324  -0.26349
26

C     3.37038   2.20659   0.88846
O     2.44045   1.13232   1.11537
C     2.33422   0.22889   0.14849
O     2.94064   0.23712  -0.90401
C     1.35406  -0.81260   0.46083
O     0.62657  -0.79618   1.56840
N    -0.32678  -1.70424   1.54313
O    -0.08872  -2.46651   0.47856
C     0.97947  -1.95190  -0.31023
O     1.34038  -2.48117  -1.32865
C    -1.78531  -0.24080   0.15460
F    -2.56177  -1.28034  -0.13603
C    -2.13756   0.80638   1.21422
C    -2.93473   1.88407   0.43480
C    -2.03691   2.47182  -0.36132
C    -0.69930   1.74830  -0.06138
O    -0.86124   1.44798   1.33149
C    -0.88060   0.33734  -0.65414
Cl   -0.61792  -0.02731  -2.32421
H     3.32036   2.83528   1.78302
H     3.08912   2.77470  -0.00419
H     4.38905   1.79996   0.76479
H    -2.52028   0.45811   2.18454
H    -4.00007   2.00694   0.50082
H    -2.16433   3.21107  -1.13157
H     0.24312   2.28406  -0.26253
26

C     3.37151   2.20563   0.88895
O     2.44005   1.13235   1.11452
C     2.33127   0.23107   0.14609
O     2.94055   0.23697  -0.90463
C     1.33929  -0.80094   0.45279
O     0.62426  -0.79278   1.56944
N    -0.34429  -1.68996   1.53129
O    -0.09251  -2.46668   0.47359
C     0.97381  -1.95006  -0.31173
O     1.34159  -2.47960  -1.32705
C    -1.77131  -0.25197   0.16865
F    -2.55756  -1.27663  -0.13793
C    -2.13380   0.80389   1.21660
C    -2.93211   1.87450   0.43099
C    -2.03434   2.46278  -0.36523
C    -0.69528   1.74677  -0.05927
O    -0.85931   1.44922   1.33398
C    -0.86317   0.33160  -0.64645
Cl   -0.62114  -0.02741  -2.31839
H     3.32066   2.83493   1.78321
H     3.08975   2.77457  -0.00405
H     4.38929   1.79944   0.76510
H    -2.51950   0.45852   2.18551
H    -3.99947   2.00351   0.49888
H    -2.16399   3.20763  -1.13348
H     0.24361   2.28488  -0.26157
26

C     3.37263   2.20467   0.88945
O     2.43965   1.13238   1.11367
C     2.32831   0.23324   0.14369
O     2.94045   0.23681  -0.90524
C     1.32452  -0.78928   0.44475
O     0.62195  -0.78938   1.57048
N    -0.36180  -1.67569   1.51944
O    -0.09630  -2.46685   0.46863
C     0.96815  -1.94821  -0.31323
O     1.34279  -2.47802  -1.32544
C    -1.75731  -0.26314   0.18269
F    -2.55336  -1.27293  -0.13983
C    -2.13004   0.80140   1.21899
C    -2.92949   1.86493   0.42718
C    -2.03177   2.45375  -0.36914
C    -0.69126   1.74524  -0.05717
O    -0.85738   1.45045   1.33647
C    -0.84573   0.32586  -0.63877
Cl   -0.62435  -0.02751  -2.31256
H     3.32097   2.83459   1.78340
H     3.09037   2.77443  -0.00392
H     4.38954   1.79892   0.76540
H    -2.51871   0.45893   2.18648
H    -3.99887   2.00008   0.49694
H    -2.16365   3.20419  -1.13538
H     0.24410   2.28569  -0.26061
26

C     3.37376   2.20371   0.88994
O     2.43925   1.13241   1.11282
C     2.32536   0.23541   0.14129
O     2.94036   0.23666  -0.90586
C     1.30976  -0.77761   0.43671
O     0.61964  -0.78598   1.57152
N    -0.37931  -1.66141   1.50759
O    -0.10009  -2.46702   0.46366
C     0.96249  -1.94636  -0.31473
O     1.34400  -2.47644  -1.32384
C    -1.74331  -0.27431   0.19674
F    -2.54916  -1.26922  -0.14172
C    -2.12628   0.79891   1.22137
C    -2.92687   1.85537   0.42337
C    -2.02921   2.44472  -0.37306
C    -0.68724   1.74372  -0.05507
O    -0.85545   1.45169   1.33895
C    -0.82830   0.32012  -0.63108
Cl   -0.62756  -0.02761  -2.30673
H     3.32128   2.83424   1.78359
H     3.09100   2.77429  -0.00378
H     4.38978   1.79841   0.76571
H    -2.51793   0.45934   2.18744
H    -3.99828   1.99666   0.49501
H    -2.16331   3.20075  -1.13729
H     0.24460   2.28651  -0.25965
26

C     3.37489   2.20275   0.89043
O     2.43885   1.13244   1.11197
C     2.32241   0.23758   0.13889
O     2.94027   0.23650  -0.90648
C     1.29499  -0.76595   0.42867
O     0.61733  -0.78259   1.57255
N    -0.39682  -1.64713   1.49574
O    -0.10389  -2.46719   0.45869
C     0.95683  -1.94451  -0.31623
O     1.34521  -2.47486  -1.32224
C    -1.72931  -0.28548   0.21079
F    -2.54496  -1.26552  -0.14362
C    -2.12252   0.79642   1.22376
C    -2.92424   1.84580   0.41956
C    -2.02664   2.43569  -0.37697
C    -0.68322   1.74219  -0.05297
O    -0.85352   1.45292   1.34144
C    -0.81086   0.31437  -0.62339
Cl   -0.63078  -0.02771  -2.30090
H     3.32158   2.83389   1.78378
H     3.09162   2.77415  -0.00365
H     4.39003   1.79789   0.76601
H    -2.51715   0.45975   2.18841
H    -3.99768   1.99323   0.49307
H    -2.16297   3.19731  -1.13919
H     0.24509   2.28732  -0.25869
26

C     3.37601   2.20178   0.89092
O     2.43845   1.13246   1.11112
C     2.31945   0.23975   0.13648
O     2.94018   0.23635  -0.90710
C     1.28022  -0.75429   0.42063
O     0.61502  -0.77919   1.57359
N    -0.41433  -1.63286   1.48390
O    -0.10768  -2.46736   0.45373
C     0.95117  -1.94266  -0.31773
O     1.34641  -2.47328  -1.32063
C    -1.71531  -0.29665   0.22484
F    -2.54075  -1.26181  -0.14552
C    -2.11877   0.79393   1.22614
C    -2.92162   1.83623   0.41575
C    -2.02407   2.42666  -0.38088
C    -0.67920   1.74066  -0.05087
O    -0.85159   1.45415   1.34393
C    -0.79342   0.30863  -0.61571
Cl   -0.63399  -0.02781  -2.29507
H     3.32189   2.83354   1.78397
H     3.09225   2.77402  -0.00352
H     4.39027   1.79737   0.76631
H    -2.51637   0.46016   2.18937
H    -3.99708   1.98980   0.49113
H    -2.16263   3.19387  -1.14110
H     0.24558   2.28814  -0.25773
26

C     3.37714   2.20082   0.89141
O     2.43805   1.13249   1.11027
C     2.31650   0.24193   0.13408
O     2.94009   0.23619  -0.90771
C     1.26546  -0.74262   0.41259
O     0.61272  -0.77579   1.57463
N    -0.43183  -1.61858   1.47205
O    -0.11147  -2.46753   0.44876
C     0.94551  -1.94081  -0.31923
O     1.34762  -2.47171  -1.31903
C    -1.70131  -0.30782   0.23888
F    -2.53655  -1.25811  -0.14741
C    -2.11501   0.79144   1.22852
C    -2.91900   1.82667   0.41193
C    -2.02150   2.41763  -0.38479
C    -0.67518   1.73913  -0.04877
O    -0.84966   1.45539   1.34642
C    -0.77599   0.30289  -0.60802
Cl   -0.63720  -0.02791  -2.28924
H     3.32220   2.83320   1.78416
H     3.09287   2.77388  -0.00338
H     4.39052   1.79685   0.76662
H    -2.51558   0.46057   2.19034
H    -3.99648   1.98637   0.48919
H    -2.16229   3.19043  -1.14301
H     0.24607   2.28896  -0.25677
26

C     3.37827   2.19986   0.89190
O     2.43765   1.13252   1.10941
C     2.31355   0.24410   0.13168
O     2.94000   0.23604  -0.90833
C     1.25069  -0.73096   0.40454
O     0.61041  -0.77239   1.57567
N    -0.44934  -1.60430   1.46020
O    -0.11527  -2.46771   0.44379
C     0.93985  -1.93896  -0.32073
O     1.34882  -2.47013  -1.31743
C    -1.68731  -0.31899   0.25293
F    -2.53235  -1.25440  -0.14931
C    -2.11125   0.78895   1.23091
C    -2.91638   1.81710   0.40812
C    -2.01893   2.40860  -0.38870
C    -0.67116   1.73761  -0.04667
O    -0.84773   1.45662   1.34890
C    -0.75855   0.29715  -0.60033
Cl   -0.64042  -0.02801  -2.28342
H     3.32250   2.83285   1.78435
H     3.09350   2.77374  -0.00325
H     4.39076   1.79633   0.76692
H    -2.51480   0.46098   2.19130
H    -3.99588   1.98294   0.48726
H    -2.16195   3.18699  -1.14491
H     0.24657   2.28977  -0.25581
26

C     3.37939   2.19890   0.89239
O     2.43725   1.13255   1.10856
C     2.31060   0.24627   0.12928
O     2.93991   0.23589  -0.90895
C     1.23592  -0.71929   0.39650
O     0.60810  -0.76900   1.57671
N    -0.46685  -1.59003   1.44835
O    -0.11906  -2.46788   0.43883
C     0.93419  -1.93711  -0.32223
O     1.35003  -2.46855  -1.31582
C    -1.67331  -0.33016   0.26698
F    -2.52815  -1.25070  -0.15121
C    -2.10749   0.78646   1.23329
C    -2.91375   1.80753   0.40431
C    -2.01637   2.39956  -0.39261
C    -0.66714   1.73608  -0.04457
O    -0.84580   1.45786   1.35139
C    -0.74112   0.29141  -0.59265
Cl   -0.64363  -0.02811  -2.27759
H     3.32281   2.83250   1.78454
H     3.09412   2.77360  -0.00312
H     4.39100   1.79581   0.76723
H    -2.51402   0.46139   2.19227
H    -3.99528   1.97952   0.48532
H    -2.16161   3.18355  -1.14682
H     0.24706   2.29059  -0.25484
26

C     3.38052   2.19794   0.89288
O     2.43685   1.13258   1.10771
C     2.30764   0.24844   0.12688
O     2.93982   0.23573  -0.90957
C     1.22116  -0.70763   0.38846
O     0.60579  -0.76560   1.57775
N    -0.48436  -1.57575   1.43650
O    -0.12285  -2.46805   0.43386
C     0.92853  -1.93526  -0.32373
O     1.35123  -2.46697  -1.31422
C    -1.65931  -0.34133   0.28103
F    -2.52394  -1.24699  -0.15310
C    -2.10373   0.78397   1.23567
C    -2.91113   1.79797   0.40050
C    -2.01380   2.39053  -0.39652
C    -0.66312   1.73455  -0.04247
O    -0.84387   1.45909   1.35388
C    -0.72368   0.28566  -0.58496
Cl   -0.64684  -0.02821  -2.27176
H     3.32312   2.83215   1.78472
H     3.09475   2.77346  -0.00298
H     4.39125   1.79530   0.76753
H    -2.51324   0.46179   2.19323
H    -3.99469   1.97609   0.48338
H    -2.16127   3.18011  -1.14872
H     0.24755   2.29140  -0.25388
26

C     3.38165   2.19698   0.89338
O     2.43645   1.13261   1.10686
C     2.30469   0.25061   0.12448
O     2.93973   0.23558  -0.91018
C     1.20639  -0.69597   0.38042
O     0.60348  -0.76220   1.57879
N    -0.50187  -1.56147   1.42466
O    -0.12664  -2.46822   0.42890
C     0.92287  -1.93341  -0.32523
O     1.35244  -2.46540  -1.31262
C    -1.64531  -0.35250   0.29507
F    -2.51974  -1.24329  -0.15500
C    -2.09997   0.78148   1.23806
C    -2.90851   1.78840   0.39669
C    -2.01123   2.38150  -0.40044
C    -0.65910   1.73302  -0.04036
O    -0.84195   1.46033   1.35637
C    -0.70624   0.27992  -0.57727
Cl   -0.65006  -0.02831  -2.26593
H     3.32342   2.83180   1.78491
H     3.09537   2.77333  -0.00285
H     4.39149   1.79478   0.76784
H    -2.51245   0.46220   2.19420
H    -3.99409   1.97266   0.48144
H    -2.16093   3.17667  -1.15063
H     0.24805   2.29222  -0.25292
26

C     3.38277   2.19601   0.89387
O     2.43604   1.13264   1.10601
C     2.30174   0.25279   0.12208
O     2.93964   0.23542  -0.91080
C     1.19162  -0.68430   0.37238
O     0.60118  -0.75880   1.57982
N    -0.51938  -1.54719   1.41281
O    -0.13044  -2.46839   0.42393
C     0.91721  -1.93156  -0.32673
O     1.35364  -2.46382  -1.31101
C    -1.63131  -0.36367   0.30912
F    -2.51554  -1.23959  -0.15690
C    -2.09622   0.77898   1.24044
C    -2.90588   1.77884   0.39288
C    -2.00866   2.37247  -0.40435
C    -0.65508   1.73149  -0.03826
O    -0.84002   1.46156   1.35885
C    -0.68881   0.27418  -0.56959
Cl   -0.65327  -0.02841  -2.26010
H     3.32373   2.83146   1.78510
H     3.09600   2.77319  -0.00271
H     4.39174   1.79426   0.76814
H    -2.51167   0.46261   2.19516
H    -3.99349   1.96923   0.47951
H    -2.16059   3.17323  -1.15254
H     0.24854   2.29303  -0.25196
26

C     3.38390   2.19505   0.89436
O     2.43564   1.13267   1.10516
C     2.29879   0.25496   0.11968
O     2.93955   0.23527  -0.91142
C     1.17686  -0.67264   0.36434
O     0.59887  -0.75541   1.58086
N    -0.53689  -1.53292   1.40096
O    -0.13423  -2.46856   0.41896
C     0.91155  -1.92971  -0.32823
O     1.35485  -2.46224  -1.30941
C    -1.61731  -0.37484   0.32317
F    -2.51134  -1.23588  -0.15879
C    -2.09246   0.77649   1.24282
C    -2.90326   1.76927   0.38907
C    -2.00609   2.36344  -0.40826
C    -0.65106   1.72997  -0.03616
O    -0.83809   1.46279   1.36134
C    -0.67137   0.26844  -0.56190
Cl   -0.65648  -0.02851  -2.25427
H     3.32404   2.83111   1.78529
H     3.09663   2.77305  -0.00258
H     4.39198   1.79374   0.76844
H    -2.51089   0.46302   2.19613
H    -3.99289   1.96581   0.47757
H    -2.16025   3.16978  -1.15444
H     0.24903   2.29385  -0.25100
26

C     3.38503   2.19409   0.89485
O     2.43524   1.13270   1.10431
C     2.29583   0.25713   0.11728
O     2.93946   0.23511  -0.91204
C     1.16209  -0.66098   0.35630
O     0.59656  -0.75201   1.58190
N    -0.55440  -1.51864   1.38911
O    -0.13802  -2.46873   0.41400
C     0.90589  -1.92786  -0.32973
O     1.35605  -2.46066  -1.30780
C    -1.60331  -0.38601   0.33721
F    -2.50713  -1.23218  -0.16069
C    -2.08870   0.77400   1.24521
C    -2.90064   1.75970   0.38526
C    -2.00352   2.35441  -0.41217
C    -0.64704   1.72844  -0.03406
O    -0.83616   1.46403   1.36383
C    -0.65394   0.26270  -0.55421
Cl   -0.65970  -0.02861  -2.24845
H     3.32434   2.83076   1.78548
H     3.09725   2.77291  -0.00245
H     4.39223   1.79322   0.76875
H    -2.51011   0.46343   2.19709
H    -3.99229   1.96238   0.47563
H    -2.15991   3.16634  -1.15635
H     0.24952   2.29467  -0.25004
26

C     3.38615   2.19313   0.89534
O     2.43484   1.13273   1.10346
C     2.29288   0.25930   0.11488
O     2.93936   0.23496  -0.91265
C     1.14732  -0.64931   0.34825
O     0.59425  -0.74861   1.58294
N    -0.57191  -1.50436   1.37727
O    -0.14182  -2.46890   0.40903
C     0.90023  -1.92601  -0.33123
O     1.35726  -2.45908  -1.30620
C    -1.58931  -0.39718   0.35126
F    -2.50293  -1.22847  -0.16259
C    -2.08494   0.77151   1.24759
C    -2.89802   1.75014   0.38145
C    -2.00096   2.34538  -0.41608
C    -0.64302   1.72691  -0.03196
O    -0.83423   1.46526   1.36632
C    -0.63650   0.25695  -0.54653
Cl   -0.66291  -0.02871  -2.24262
H     3.32465   2.83041   1.78567
H     3.09788   2.77278  -0.00231
H     4.39247   1.79270   0.76905
H    -2.50932   0.46384   2.19806
H    -3.99169   1.95895   0.47369
H    -2.15957   3.16290  -1.15826
H     0.25002   2.29548  -0.24908
26

C     3.38728   2.19217   0.89583
O     2.43444   1.13276   1.10261
C     2.28993   0.26148   0.11247
O     2.93927   0.23480  -0.91327
C     1.13255  -0.63765   0.34021
O     0.59194  -0.74521   1.58398
N    -0.58942  -1.49009   1.36542
O    -0.14561  -2.46907   0.40406
C     0.89457  -1.92416  -0.33273
O     1.35847  -2.45751  -1.30460
C    -1.57530  -0.40835   0.36531
F    -2.49873  -1.22477  -0.16448
C    -2.08118   0.76902   1.24997
C    -2.89539   1.74057   0.37764
C    -1.99839   2.33635  -0.41999
C    -0.63900   1.72538  -0.02986
O    -0.83230   1.46650   1.36880
C    -0.61907   0.25121  -0.53884
Cl   -0.66612  -0.02881  -2.23679
H     3.32496   2.83007   1.78586
H     3.09850   2.77264  -0.00218
H     4.39272   1.79219   0.76936
H    -2.50854   0.46425   2.19902
H    -3.99110   1.95552   0.47176
H    -2.15923   3.15946  -1.16016
H     0.25051   2.29630  -0.24812
26

C     3.38615   2.19313   0.89534
O     2.43484   1.13273   1.10346
C     2.29288   0.25930   0.11488
O     2.93936   0.23496  -0.91265
C     1.14732  -0.64931   0.34825
O     0.59425  -0.74861   1.58294
N    -0.57191  -1.50436   1.37727
O    -0.14182  -2.46890   0.40903
C     0.90023  -1.92601  -0.33123
O     1.35726  -2.45908  -1.30620
C    -1.58931  -0.39718   0.35126
F    -2.50293  -1.22847  -0.16259
C    -2.08494   0.77151   1.24759
C    -2.89802   1.75014   0.38145
C    -2.00096   2.34538  -0.41608
C    -0.64302   1.72691  -0.03196
O    -0.83423   1.46526   1.36632
C    -0.63650   0.25695  -0.54653
Cl   -0.66291  -0.02871  -2.24262
H     3.32465   2.83041   1.78567
H     3.09788   2.77278  -0.00231
H     4.39247   1.79270   0.76905
H    -2.50932   0.46384   2.19806
H    -3.99169   1.95895   0.47369
H    -2.15957   3.16290  -1.15826
H     0.25002   2.29548  -0.24908
26

C     3.38503   2.19409   0.89485
O     2.43524   1.13270   1.10431
C     2.29583   0.25713   0.11728
O     2.93946   0.23511  -0.91204
C     1.16209  -0.66098   0.35630
O     0.59656  -0.75201   1.58190
N    -0.55440  -1.51864   1.38911
O    -0.13802  -2.46873   0.41400
C     0.90589  -1.92786  -0.32973
O     1.35605  -2.46066  -1.30780
C    -1.60331  -0.38601   0.33721
F    -2.50713  -1.23218  -0.16069
C    -2.08870   0.77400   1.24521
C    -2.90064   1.75970   0.38526
C    -2.00352   2.35441  -0.41217
C    -0.64704   1.72844  -0.03406
O    -0.83616   1.46403   1.36383
C    -0.65394   0.26270  -0.55421
Cl   -0.65970  -0.02861  -2.24845
H     3.32434   2.83076   1.78548
H     3.09725   2.77291  -0.00245
H     4.39223   1.79322   0.76875
H    -2.51011   0.46343   2.19709
H    -3.99229   1.96238   0.47563
H    -2.15991   3.16634  -1.15635
H     0.24952   2.29467  -0.25004
26

C     3.38390   2.19505   0.89436
O     2.43564   1.13267   1.10516
C     2.29879   0.25496   0.11968
O     2.93955   0.23527  -0.91142
C     1.17686  -0.67264   0.36434
O     0.59887  -0.75541   1.58086
N    -0.53689  -1.53292   1.40096
O    -0.13423  -2.46856   0.41896
C     0.91155  -1.92971  -0.32823
O     1.35485  -2.46224  -1.30941
C    -1.61731  -0.37484   0.32317
F    -2.51134  -1.23588  -0.15879
C    -2.09246   0.77649   1.24282
C    -2.90326   1.76927   0.38907
C    -2.00609   2.36344  -0.40826
C    -0.65106   1.72997  -0.03616
O    -0.83809   1.46279   1.36134
C    -0.67137   0.26844  -0.56190
Cl   -0.65648  -0.02851  -2.25427
H     3.32404   2.83111   1.78529
H     3.09663   2.77305  -0.00258
H     4.39198   1.79374   0.76844
H    -2.51089   0.46302   2.19613
H    -3.99289   1.96581   0.47757
H    -2.16025   3.16978  -1.15444
H     0.24903   2.29385  -0.25100
26

C     3.38277   2.19601   0.89387
O     2.43604   1.13264   1.10601
C     2.30174   0.25279   0.12208
O     2.93964   0.23542  -0.91080
C     1.19162  -0.68430   0.37238
O     0.60118  -0.75880   1.57982
N    -0.51938  -1.54719   1.41281
O    -0.13044  -2.46839   0.42393
C     0.91721  -1.93156  -0.32673
O     1.35364  -2.46382  -1.31101
C    -1.63131  -0.36367   0.30912
F    -2.51554  -1.23959  -0.15690
C    -2.09622   0.77898   1.24044
C    -2.90588   1.77884   0.39288
C    -2.00866   2.37247  -0.40435
C    -0.65508   1.73149  -0.03826
O    -0.84002   1.46156   1.35885
C    -0.68881   0.27418  -0.56959
Cl   -0.65327  -0.02841  -2.26010
H     3.32373   2.83146   1.78510
H     3.09600   2.77319  -0.00271
H     4.39174   1.79426   0.76814
H    -2.51167   0.46261   2.19516
H    -3.99349   1.96923   0.47951
H    -2.16059   3.17323  -1.15254
H     0.24854   2.29303  -0.25196
26

C     3.38165   2.19698   0.89338
O     2.43645   1.13261   1.10686
C     2.30469   0.25061   0.12448
O     2.93973   0.23558  -0.91018
C     1.20639  -0.69597   0.38042
O     0.60348  -0.76220   1.57879
N    -0.50187  -1.56147   1.42466
O    -0.12664  -2.46822   0.42890
C     0.92287  -1.93341  -0.32523
O     1.35244  -2.46540  -1.31262
C    -1.64531  -0.35250   0.29507
F    -2.51974  -1.24329  -0.15500
C    -2.09997   0.78148   1.23806
C    -2.90851   1.78840   0.39669
C    -2.01123   2.38150  -0.40044
C    -0.65910   1.73302  -0.04036
O    -0.84195   1.46033   1.35637
C    -0.70624   0.27992  -0.57727
Cl   -0.65006  -0.02831  -2.26593
H     3.32342   2.83180   1.78491
H     3.09537   2.77333  -0.00285
H     4.39149   1.79478   0.76784
H    -2.51245   0.46220   2.19420
H    -3.99409   1.97266   0.48144
H    -2.16093   3.17667  -1.15063
H     0.24805   2.29222  -0.25292
26

C     3.38052   2.19794   0.89288
O     2.43685   1.13258   1.10771
C     2.30764   0.24844   0.12688
O     2.93982   0.23573  -0.90957
C     1.22116  -0.70763   0.38846
O     0.60579  -0.76560   1.57775
N    -0.48436  -1.57575   1.43650
O    -0.12285  -2.46805   0.43386
C     0.92853  -1.93526  -0.32373
O     1.35123  -2.46697  -1.31422
C    -1.65931  -0.34133   0.28103
F    -2.52394  -1.24699  -0.15310
C    -2.10373   0.78397   1.23567
C    -2.91113   1.79797   0.40050
C    -2.01380   2.39053  -0.39652
C    -0.66312   1.73455  -0.04247
O    -0.84387   1.45909   1.35388
C    -0.72368   0.28566  -0.58496
Cl   -0.64684  -0.02821  -2.27176
H     3.32312   2.83215   1.78472
H     3.09475   2.77346  -0.00298
H     4.39125   1.79530   0.76753
H    -2.51324   0.46179   2.19323
H    -3.99469   1.97609   0.48338
H    -2.16127   3.18011  -1.14872
H     0.24755   2.29140  -0.25388
26

C     3.37939   2.19890   0.89239
O     2.43725   1.13255   1.10856
C     2.31060   0.24627   0.12928
O     2.93991   0.23589  -0.90895
C     1.23592  -0.71929   0.39650
O     0.60810  -0.76900   1.57671
N    -0.46685  -1.59003   1.44835
O    -0.11906  -2.46788   0.43883
C     0.93419  -1.93711  -0.32223
O     1.35003  -2.46855  -1.31582
C    -1.67331  -0.33016   0.26698
F    -2.52815  -1.25070  -0.15121
C    -2.10749   0.78646   1.23329
C    -2.91375   1.80753   0.40431
C    -2.01637   2.39956  -0.39261
C    -0.66714   1.73608  -0.04457
O    -0.84580   1.45786   1.35139
C    -0.74112   0.29141  -0.59265
Cl   -0.64363  -0.02811  -2.27759
H     3.32281   2.83250   1.78454
H     3.09412   2.77360  -0.00312
H     4.39100   1.79581   0.76723
H    -2.51402   0.46139   2.19227
H    -3.99528   1.97952   0.48532
H    -2.16161   3.18355  -1.14682
H     0.24706   2.29059  -0.25484
26

C     3.37827   2.19986   0.89190
O     2.43765   1.13252   1.10941
C     2.31355   0.24410   0.13168
O     2.94000   0.23604  -0.90833
C     1.25069  -0.73096   0.40454
O     0.61041  -0.77239   1.57567
N    -0.44934  -1.60430   1.46020
O    -0.11527  -2.46771   0.44379
C     0.93985  -1.93896  -0.32073
O     1.34882  -2.47013  -1.31743
C    -1.68731  -0.31899   0.25293
F    -2.53235  -1.25440  -0.14931
C    -2.11125   0.78895   1.23091
C    -2.91638   1.81710   0.40812
C    -2.01893   2.40860  -0.38870
C    -0.67116   1.73761  -0.04667
O    -0.84773   1.45662   1.34890
C    -0.75855   0.29715  -0.60033
Cl   -0.64042  -0.02801  -2.28342
H     3.32250   2.83285   1.78435
H     3.09350   2.77374  -0.00325
H     4.39076   1.79633   0.76692
H    -2.51480   0.46098   2.19130
H    -3.99588   1.98294   0.48726
H    -2.16195   3.18699  -1.14491
H     0.24657   2.28977  -0.25581
26

C     3.37714   2.20082   0.89141
O     2.43805   1.13249   1.11027
C     2.31650   0.24193   0.13408
O     2.94009   0.23619  -0.90771
C     1.26546  -0.74262   0.41259
O     0.61272  -0.77579   1.57463
N    -0.43183  -1.61858   1.47205
O    -0.11147  -2.46753   0.44876
C     0.94551  -1.94081  -0.31923
O     1.34762  -2.47171  -1.31903
C    -1.70131  -0.30782   0.23888
F    -2.53655  -1.25811  -0.14741
C    -2.11501   0.79144   1.22852
C    -2.91900   1.82667   0.41193
C    -2.02150   2.41763  -0.38479
C    -0.67518   1.73913  -0.04877
O    -0.84966   1.45539   1.34642
C    -0.77599   0.30289  -0.60802
Cl   -0.63720  -0.02791  -2.28924
H     3.32220   2.83320   1.78416
H     3.09287   2.77388  -0.00338
H     4.39052   1.79685   0.76662
H    -2.51558   0.46057   2.19034
H    -3.99648   1.98637   0.48919
H    -2.16229   3.19043  -1.14301
H     0.24607   2.28896  -0.25677
26

C     3.37601   2.20178   0.89092
O     2.43845   1.13246   1.11112
C     2.31945   0.23975   0.13648
O     2.94018   0.23635  -0.90710
C     1.28022  -0.75429   0.42063
O     0.61502  -0.77919   1.57359
N    -0.41433  -1.63286   1.48390
O    -0.10768  -2.46736   0.45373
C     0.95117  -1.94266  -0.31773
O     1.34641  -2.47328  -1.32063
C    -1.71531  -0.29665   0.22484
F    -2.54075  -1.26181  -0.14552
C    -2.11877   0.79393   1.22614
C    -2.92162   1.83623   0.41575
C    -2.02407   2.42666  -0.38088
C    -0.67920   1.74066  -0.05087
O    -0.85159   1.45415   1.34393
C    -0.79342   0.30863  -0.61571
Cl   -0.63399  -0.02781  -2.29507
H     3.32189   2.83354   1.78397
H     3.09225   2.77402  -0.00352
H     4.39027   1.79737   0.76631
H    -2.51637   0.46016   2.18937
H    -3.99708   1.98980   0.49113
H    -2.16263   3.19387  -1.14110
H     0.24558   2.28814  -0.25773
26

C     3.37489   2.20275   0.89043
O     2.43885   1.13244   1.11197
C     2.32241   0.23758   0.13889
O     2.94027   0.23650  -0.90648
C     1.29499  -0.76595   0.42867
O     0.61733  -0.78259   1.57255
N    -0.39682  -1.64713   1.49574
O    -0.10389  -2.46719   0.45869
C     0.95683  -1.94451  -0.31623
O     1.34521  -2.47486  -1.32224
C    -1.72931  -0.28548   0.21079
F    -2.54496  -1.26552  -0.14362
C    -2.12252   0.79642   1.22376
C    -2.92424   1.84580   0.41956
C    -2.02664   2.43569  -0.37697
C    -0.68322   1.74219  -0.05297
O    -0.85352   1.45292   1.34144
C    -0.81086   0.31437  -0.62339
Cl   -0.63078  -0.02771  -2.30090
H     3.32158   2.83389   1.78378
H     3.09162   2.77415  -0.00365
H     4.39003   1.79789   0.76601
H    -2.51715   0.45975   2.18841
H    -3.99768   1.99323   0.49307
H    -2.16297   3.19731  -1.13919
H     0.24509   2.28732  -0.25869
26

C     3.37376   2.20371   0.88994
O     2.43925   1.13241   1.11282
C     2.32536   0.23541   0.14129
O     2.94036   0.23666  -0.90586
C     1.30976  -0.77761   0.43671
O     0.61964  -0.78598   1.57152
N    -0.37931  -1.66141   1.50759
O    -0.10009  -2.46702   0.46366
C     0.96249  -1.94636  -0.31473
O     1.34400  -2.47644  -1.32384
C    -1.74331  -0.27431   0.19674
F    -2.54916  -1.26922  -0.14172
C    -2.12628   0.79891   1.22137
C    -2.92687   1.85537   0.42337
C    -2.02921   2.44472  -0.37306
C    -0.68724   1.74372  -0.05507
O    -0.85545   1.45169   1.33895
C    -0.82830   0.32012  -0.63108
Cl   -0.62756  -0.02761  -2.30673
H     3.32128   2.83424   1.78359
H     3.09100   2.77429  -0.00378
H     4.38978   1.79841   0.76571
H    -2.51793   0.45934   2.18744
H    -3.99828   1.99666   0.49501
H    -2.16331   3.20075  -1.13729
H     0.24460   2.28651  -0.25965
26

C     3.37263   2.20467   0.88945
O     2.43965   1.13238   1.11367
C     2.32831   0.23324   0.14369
O     2.94045   0.23681  -0.90524
C     1.32452  -0.78928   0.44475
O     0.62195  -0.78938   1.57048
N    -0.36180  -1.67569   1.51944
O    -0.09630  -2.46685   0.46863
C     0.96815  -1.94821  -0.31323
O     1.34279  -2.47802  -1.32544
C    -1.75731  -0.26314   0.18269
F    -2.55336  -1.27293  -0.13983
C    -2.13004   0.80140   1.21899
C    -2.92949   1.86493   0.42718
C    -2.03177   2.45375  -0.36914
C    -0.69126   1.74524  -0.05717
O    -0.85738   1.45045   1.33647
C    -0.84573   0.32586  -0.63877
Cl   -0.62435  -0.02751  -2.31256
H     3.32097   2.83459   1.78340
H     3.09037   2.77443  -0.00392
H     4.38954   1.79892   0.76540
H    -2.51871   0.45893   2.18648
H    -3.99887   2.00008   0.49694
H    -2.16365   3.20419  -1.13538
H     0.24410   2.28569  -0.26061
26

C     3.37151   2.20563   0.88895
O     2.44005   1.13235   1.11452
C     2.33127   0.23107   0.14609
O     2.94055   0.23697  -0.90463
C     1.33929  -0.80094   0.45279
O     0.62426  -0.79278   1.56944
N    -0.34429  -1.68996   1.53129
O    -0.09251  -2.46668   0.47359
C     0.97381  -1.95006  -0.31173
O     1.34159  -2.47960  -1.32705
C    -1.77131  -0.25197   0.16865
F    -2.55756  -1.27663  -0.13793
C    -2.13380   0.80389   1.21660
C    -2.93211   1.87450   0.43099
C    -2.03434   2.46278  -0.36523
C    -0.69528   1.74677  -0.05927
O    -0.85931   1.44922   1.33398
C    -0.86317   0.33160  -0.64645
Cl   -0.62114  -0.02741  -2.31839
H     3.32066   2.83493   1.78321
H     3.08975   2.77457  -0.00405
H     4.38929   1.79944   0.76510
H    -2.51950   0.45852   2.18551
H    -3.99947   2.00351   0.49888
H    -2.16399   3.20763  -1.13348
H     0.24361   2.28488  -0.26157
26

C     3.37038   2.20659   0.88846
O     2.44045   1.13232   1.11537
C     2.33422   0.22889   0.14849
O     2.94064   0.23712  -0.90401
C     1.35406  -0.81260   0.46083
O     0.62657  -0.79618   1.56840
N    -0.32678  -1.70424   1.54313
O    -0.08872  -2.46651   0.47856
C     0.97947  -1.95190  -0.31023
O     1.34038  -2.48117  -1.32865
C    -1.78531  -0.24080   0.15460
F    -2.56177  -1.28034  -0.13603
C    -2.13756   0.80638   1.21422
C    -2.93473   1.88407   0.43480
C    -2.03691   2.47182  -0.36132
C    -0.69930   1.74830  -0.06138
O    -0.86124   1.44798   1.33149
C    -0.88060   0.33734  -0.65414
Cl   -0.61792  -0.02731  -2.32421
H     3.32036   2.83528   1.78302
H     3.08912   2.77470  -0.00419
H     4.38905   1.79996   0.76479
H    -2.52028   0.45811   2.18454
H    -4.00007   2.00694   0.50082
H    -2.16433   3.21107  -1.13157
H     0.24312   2.28406  -0.26253
26

C     3.36925   2.20755   0.88797
O     2.44085   1.13229   1.11622
C     2.33717   0.22672   0.15089
O     2.94073   0.23728  -0.90339
C     1.36882  -0.82427   0.46888
O     0.62887  -0.79957   1.56736
N    -0.30927  -1.71852   1.55498
O    -0.08492  -2.46634   0.48352
C     0.98513  -1.95375  -0.30873
O     1.33918  -2.48275  -1.33026
C    -1.79931  -0.22963   0.14055
F    -2.56597  -1.28404  -0.13414
C    -2.14131   0.80887   1.21184
C    -2.93736   1.89363   0.43861
C    -2.03948   2.48085  -0.35741
C    -0.70332   1.74983  -0.06348
O    -0.86317   1.44675   1.32900
C    -0.89804   0.34309  -0.66183
Cl   -0.61471  -0.02721  -2.33004
H     3.32005   2.83563   1.78283
H     3.08850   2.77484  -0.00432
H     4.38880   1.80048   0.76449
H    -2.52106   0.45770   2.18358
H    -4.00067   2.01037   0.50276
H    -2.16467   3.21451  -1.12966
H     0.24262   2.28324  -0.26349
26

C     3.36813   2.20852   0.88748
O     2.44125   1.13226   1.11707
C     2.34012   0.22455   0.15329
O     2.94082   0.23743  -0.90277
C     1.38359  -0.83593   0.47692
O     0.63118  -0.80297   1.56632
N    -0.29176  -1.73279   1.56683
O    -0.08113  -2.46617   0.48849
C     0.99079  -1.95560  -0.30723
O     1.33797  -2.48433  -1.33186
C    -1.81331  -0.21846   0.12651
F    -2.57017  -1.28775  -0.13224
C    -2.14507   0.81136   1.20945
C    -2.93998   1.90320   0.44242
C    -2.04205   2.48988  -0.35350
C    -0.70734   1.75136  -0.06558
O    -0.86510   1.44551   1.32652
C    -0.91547   0.34883  -0.66951
Cl   -0.61150  -0.02711  -2.33587
H     3.31975   2.83598   1.78264
H     3.08787   2.77498  -0.00445
H     4.38856   1.80100   0.76418
H    -2.52184   0.45729   2.18261
H    -4.00127   2.01379   0.50469
H    -2.16501   3.21795  -1.12776
H     0.24213   2.28243  -0.26446
26

C     3.36700   2.20948   0.88699
O     2.44165   1.13223   1.11792
C     2.34308   0.22238   0.15569
O     2.94091   0.23759  -0.90216
C     1.39836  -0.84759   0.48496
O     0.63349  -0.80637   1.56528
N    -0.27425  -1.74707   1.57868
O    -0.07734  -2.46600   0.49346
C     0.99645  -1.95745  -0.30573
O     1.33677  -2.48591  -1.33346
C    -1.82731  -0.20729   0.11246
F    -2.57437  -1.29145  -0.13034
C    -2.14883   0.81385   1.20707
C    -2.94260   1.91276   0.44623
C    -2.04462   2.49891  -0.34959
C    -0.71136   1.75288  -0.06768
O    -0.86703   1.44428   1.32403
C    -0.93291   0.35457  -0.67720
Cl   -0.60828  -0.02701  -2.34170
H     3.31944   2.83633   1.78245
H     3.08725   2.77512  -0.00459
H     4.38832   1.80152   0.76388
H    -2.52263   0.45688   2.18165
H    -4.00187   2.01722   0.50663
H    -2.16535   3.22139  -1.12585
H     0.24164   2.28161  -0.26542
26

C     3.36587   2.21044   0.88650
O     2.44205   1.13220   1.11877
C     2.34603   0.22020   0.15809
O     2.94100   0.23774  -0.90154
C     1.41312  -0.85926   0.49300
O     0.63580  -0.80977   1.56425
N    -0.25674  -1.76135   1.59052
O    -0.07354  -2.46583   0.49842
C     1.00211  -1.95930  -0.30423
O     1.33556  -2.48748  -1.33507
C    -1.84131  -0.19611   0.09841
F    -2.57858  -1.29515  -0.12845
C    -2.15259   0.81634   1.20469
C    -2.94523   1.92233   0.45004
C    -2.04718   2.50794  -0.34568
C    -0.71538   1.75441  -0.06978
O    -0.86896   1.44305   1.32154
C    -0.95035   0.36031  -0.68489
Cl   -0.60507  -0.02691  -2.34753
H     3.31913   2.83667   1.78226
H     3.08662   2.77526  -0.00472
H     4.38807   1.80203   0.76358
H    -2.52341   0.45647   2.18068
H    -4.00246   2.02065   0.50857
H    -2.16569   3.22483  -1.12394
H     0.24114   2.28080  -0.26638
