13

C -4.845475196 1.287034524 0.684654786
C -2.363812772 1.493189736 0.513641261
O -0.785311048 -0.332395720 1.431390646
C 1.748640967 0.344586381 1.585346426
H 2.254242634 1.489749735 3.217574274
C 3.697177844 -1.687707032 0.803552858
H 5.367764959 -1.889322914 1.970094344
H 2.932309759 -3.435766115 0.050634758
C 3.280864603 0.574266453 -0.739542864
O 3.692756887 1.694411289 -2.644016676
H -1.423932275 3.077045149 -0.393527812
H -5.722480631 -0.321559993 1.592587649
H -6.033505117 2.739055764 -0.118252447

