15

C -3.178252663 -0.098922306 -0.480512416
C -1.347366185 1.556586797 0.433877566
O -0.362404476 1.513108149 2.895335019
C 2.133251067 0.960322496 2.103576415
C 2.231729401 -1.766194425 1.247350446
C 1.569780015 0.264876467 -0.607569097
O 2.056580778 0.546778327 -2.912224900
H -1.875968162 -0.936248727 -3.307043187
H -3.515919434 -1.874221451 0.483502567
H -4.651486589 0.558444759 -1.730311814
H -1.315645337 3.451613018 -0.366381008
H 3.658073043 2.000025432 2.990174780
H 4.107032720 -2.506090347 0.880849100
H 0.912826365 -3.083038548 2.098404650
H -0.407025805 -0.503228417 -3.811561946

