12

C -2.246988335 -1.654439802 -0.007031180
C -0.124864183 0.210532970 0.344423827
C -0.574833881 2.938263020 0.152614414
O -0.287906049 1.762553301 2.536311452
C 2.386293143 -0.744769733 -0.217611525
C 4.426595234 -1.588393590 -0.708577056
H -1.967739348 -3.282842088 1.225055835
H -2.305736292 -2.318779049 -1.957489360
H -4.045838796 -0.768457941 0.462362655
H -2.470777847 3.593704587 -0.288575881
H 0.961499342 4.176314105 -0.408916116
H 6.250296993 -2.323685742 -1.132567064

