12

C -3.127979448 0.199593894 -0.358124228
C -0.079228903 -1.794416011 1.447571048
O 1.408879397 0.062445244 2.304797722
C 3.372128473 0.769185731 0.625507738
H -2.983128161 0.806849976 -2.322583370
H -4.842260886 -0.885149984 -0.037758788
H -2.954704545 1.790317894 0.922080467
H -1.178750175 -1.454804637 -0.553196819
H -1.413592299 -2.315811650 2.931264779
H 4.309906139 -0.906709303 -0.127442090
H 2.604349359 1.884266214 -0.939082541
H 4.700096808 1.922741284 1.692355890

