12

C 2.532202922 0.162696538 -0.639012665
H 1.706497108 1.428452670 -2.016768160
H 4.514105919 0.471780464 -0.251093579
C 0.997002382 -0.410436779 1.812372623
H 2.073959209 -0.294838339 3.544497762
C -1.574786447 0.373504463 1.638365810
C -2.571049607 -0.995787477 -0.563564651
H -3.203103582 0.331672503 -2.026332820
H -4.247934007 -2.047374693 0.044542621
O -0.783890597 -2.803147754 -1.552342227
C 1.481379061 -2.363481107 -0.333902455
H 2.642800448 -4.020881013 -0.045156253

