10

C 3.041748164 1.526342789 0.344221702
C 1.488447733 -0.715342691 1.115565349
H 1.851412948 -2.450561633 0.070675965
O 1.163652038 -1.109406883 3.748959591
C -0.990195589 -0.453910363 2.294482576
H -2.393134386 -1.937272031 2.079812183
H -1.740642494 1.427105144 2.640187580
H 2.542199234 3.176132863 1.474275921
H 2.729866820 1.967689346 -1.647564241
H 5.050752876 1.141745350 0.610436397

