14

C 2.949269069 1.713660738 0.109201585
C 1.620622605 -0.604025123 1.052512313
O -0.063272339 -0.275511184 3.109215809
C -1.094386073 -1.018787863 0.729710297
C -2.752826917 1.184932509 -1.656448297
O -3.577148054 3.171072649 -0.413502255
H 1.664319214 3.324595738 0.048229004
H 3.717647660 1.386758093 -1.778012754
H 4.516607557 2.179898654 1.364254101
H 2.770107347 -2.300756334 1.225768564
H -1.924355318 -2.894350850 0.663944899
H -4.116829230 -0.242872212 -2.316452494
H -1.138294162 1.389239360 -2.952492034
H -2.537236510 1.120180930 0.783546497

