9

C 3.414336639 1.162045846 -0.210497651
C 2.984115788 -1.331573914 -1.468887065
C 1.698251477 -3.237499810 -0.482445795
H 1.457071325 -5.002389777 -1.490847099
H 0.839001153 -3.103850555 1.375277761
H 3.809506737 -1.556815870 -3.337999490
H 2.661181682 2.707330929 -1.355674914
H 5.433535101 1.524835789 0.032322877
H 2.516619976 1.232380111 1.643815535

