13

N 5.142154696 -1.876526085 2.621014872
C 3.381953404 -0.679503033 3.039043796
C 1.187517238 0.872100878 3.620993026
C -0.693045283 0.477439872 -4.146918810
C -1.928629916 0.628473871 -1.980311904
C -1.236857080 -0.873438615 0.324134348
N -0.882494409 0.818740152 2.450561387
H 1.426987925 2.163606267 5.200951956
H -1.266239921 1.570908994 -5.779056745
H 0.935072089 -0.748387557 -4.370295002
H -3.538092120 1.884914579 -1.778615142
H 0.409622458 -2.069402381 -0.062696011
H -2.818873657 -2.107291635 0.830752631

