13

N 4.392805231 -2.420722064 3.730122158
C 3.100098485 -0.927011972 2.810086620
C 1.528979826 0.896254299 1.647750890
C 0.006335723 1.321654609 -2.893048885
C -1.878050830 0.559559924 -1.149645312
C -1.723464808 -1.827662020 0.481747938
N -1.010378488 0.526999338 1.527391133
H 2.227507810 2.810388938 1.507890634
H -0.412059147 1.181807639 -4.894445162
H 1.474128390 2.628945921 -2.386816314
H -3.845308694 1.026562423 -1.547255972
H -0.244907693 -3.189402784 0.076063517
H -3.542394667 -2.555704331 1.071314369

