11

N 3.336346867 -1.282707392 4.020769595
C 2.389712055 -1.069966088 2.079754055
C 1.204992121 -0.738614781 -0.399598916
C -1.662792883 -0.890620893 -0.295451083
O -2.089573544 1.833052066 -0.155407505
C 1.050429192 1.980399606 -1.465525506
H 2.059037384 -2.064931326 -1.725073229
H -2.497442091 -1.799713197 1.348287181
H -2.452442628 -1.640663453 -2.039156841
H 1.847464913 3.298486072 -0.078555121
H -3.170966975 2.389000686 -1.503434282

