11

N 3.513964097 -1.400556571 3.768702296
C 2.425008624 -1.093977760 1.918392722
C 1.049612093 -0.662171202 -0.439332732
C -1.825220172 -0.925408351 -0.148074612
O -2.487270659 1.729563918 -0.186080084
C 0.789303699 2.095361624 -1.256123462
H 1.873781201 -1.852675946 -1.907635154
H -2.444589021 -1.726212262 1.638656658
H -2.715218343 -1.928175645 -1.714147834
H 1.577651423 3.438043197 0.093478496
H -1.742256641 2.339930300 -1.981231747

