13

C 2.730153699 1.760384614 -1.141633856
C 0.299282824 0.697283731 -1.923034040
C -1.586616719 -2.845188321 0.108424605
C -1.412802355 0.053084108 0.171067268
O -0.761057717 0.718331028 2.709118799
H 3.392588481 1.301541763 0.766093667
H 2.238372299 3.795179665 -1.128341939
H 4.208340919 1.565529227 -2.560890345
H -2.387032555 -3.501309300 -1.666345606
H 0.280092712 -3.687668667 0.355236348
H -2.773692630 -3.440245484 1.681611059
H -3.293182575 0.807269987 -0.285440448
H -0.816601171 2.521051819 2.878843870

