13

C 2.363138499 1.167270750 -1.289237643
C -0.397158524 0.533771096 -1.660513590
C -1.109142434 -2.377287899 0.125493934
C -1.838068628 0.307560240 0.736498269
O -0.791604686 1.112264224 3.050671810
H 3.202347182 0.649622004 0.529109879
H 2.448340203 3.229657126 -1.442417217
H 3.518969395 0.431224749 -2.827242631
H -0.352276338 -2.068558996 -2.016147309
H 0.354347875 -3.117602376 1.354900618
H -2.648463636 -3.654853686 -0.323200483
H -3.853706694 0.712452714 0.639891161
H -0.837460402 2.922967483 3.087492160

