17

C -3.115693148 -0.981290349 -0.797113880
C -1.138217647 0.833767821 0.131310492
O -1.700128599 3.374535738 -0.425639777
C 0.329105877 0.354445233 2.533250776
C 1.645730640 0.305273879 -0.001404577
C 2.694288833 -2.116009660 -1.043955614
O 3.197008592 2.343295846 -0.616366641
H -4.924734260 -0.600638904 0.125144354
H -3.374868916 -0.778769818 -2.833234499
H -2.607898813 -2.934872285 -0.391153995
H -2.810881741 4.024398436 0.850662350
H 0.727222227 1.971580405 3.723449894
H 0.013912334 -1.408810744 3.524831213
H 4.628896992 -2.359751921 -0.372699534
H 1.598666066 -3.752527771 -0.443572409
H 2.732179788 -2.056520533 -3.105395652
H 2.105411773 3.781894645 -0.858112501

