15

C -1.901276452 -2.135262246 0.390959731
C 0.191372376 -0.458365808 -0.558601644
C 1.607647330 -1.170146460 -2.818413509
O 2.662539091 -1.525929770 -0.376956142
C 0.082851622 2.304398517 0.198183100
N 0.328423308 2.800813772 2.886023866
H -3.727080379 -1.495367211 -0.328456831
H -1.599396596 -4.082603210 -0.205854537
H -1.976203526 -2.110971177 2.453273068
H 1.118151118 -2.894601994 -3.821166290
H 2.509142632 0.281333789 -3.958864718
H 1.915898416 1.980777041 3.566902336
H -1.696287428 3.121243840 -0.466523340
H 1.602930894 3.302615899 -0.779533702
H -1.154498148 2.111161152 3.871561110

