15

C -2.159887135 -1.983103369 0.339995858
C -0.294875302 -0.134258125 -0.618036214
C 2.150495612 -1.111485941 -1.671921715
O 3.490587410 -1.501947502 0.486944269
C -0.655809515 2.565241704 -0.270920737
N 0.787840352 2.314702532 2.100031458
H -3.478488476 -1.198259367 1.715888612
H -3.259669416 -2.604061818 -1.303799381
H -1.199064296 -3.627929605 1.118058994
H 1.742196774 -2.845702326 -2.778949187
H 2.978548901 0.273100649 -3.007683867
H 2.401059501 1.157455645 1.883510683
H -2.575866235 3.215427356 0.075061263
H 0.322951133 3.780610065 -1.606597228
H -0.283025264 1.697453011 3.554566809

