13

C -2.963076919 1.246963128 0.179001888
H -4.695569799 0.133896431 0.060379811
H -3.318668895 2.963848532 1.269770799
O -2.142881320 1.921300708 -2.320926156
C 0.276141861 0.934808585 -2.534770852
H 1.012107606 1.178917869 -4.431476113
C 0.173802553 -1.596743175 -1.226328622
H 2.003743223 -2.520548830 -1.060916662
H -1.209570833 -2.859008473 -2.079255564
C -0.716177610 -0.304670017 1.214329825
H -1.126329437 -1.439286546 2.871461485
C 1.282880906 1.739038891 1.576590323
O 1.875530748 2.369548167 -0.736519755

