15

C -2.635565461 1.215967707 0.499593812
O -1.737965149 2.136550926 -1.898018999
C 0.565298512 0.912458946 -2.273465458
C 0.119439648 -1.743469127 -1.327141089
C -0.582868657 -0.693955904 1.293146125
C 1.670442116 0.993606148 1.850685158
O 2.329855301 1.924703292 -0.412722686
H -4.474953572 0.315624212 0.242277251
H -2.815116107 2.794246369 1.815700507
H 1.287896296 1.290749310 -4.153918035
H 1.806251517 -2.922501589 -1.287059828
H -1.416348767 -2.665692722 -2.340281600
H -1.110236850 -2.004067178 2.781515870
H 3.432870582 0.019216360 3.119202483
H 3.757942139 -1.545353528 2.386410042

