9

C -3.140852697 0.014701578 1.271006642
C -2.860135374 0.589228265 -1.508068930
O -3.040494501 2.664151178 -2.390293977
H -2.488384690 -1.066959949 -2.742135961
C -1.137621212 -1.766530948 2.244149513
O -0.023841673 -1.469274988 4.190215913
H -0.748851598 -3.436691929 1.034337872
H -3.197430662 1.744704252 2.381903876
H -4.952713923 -0.980460419 1.476700137

