11

C -4.112543313 0.256855260 -1.101264450
C -1.802623111 0.607484947 -2.175023048
C 0.557885589 0.916217573 -2.089225286
C 1.265574946 0.267917603 0.485468676
O -0.318205407 0.265849751 2.260936989
C 3.807943140 -0.447883630 1.070080548
C 5.949576786 -1.027541150 1.512482725
H -5.176031740 1.944207439 -0.604104227
H -2.351327068 0.153108389 1.126098664
H -5.241549452 -1.390954627 -1.567496697
H 7.855328129 -1.542186990 1.907845083

