9

N -1.996076018 1.240879192 -0.117182711
C 0.707775320 1.586416068 -0.339289781
C 1.735616238 -1.004873621 0.082197984
N -0.036503499 -2.598035330 0.479333964
C -2.266585891 -1.107084013 0.332827711
H 1.198899493 2.338221610 -2.202792686
H 1.387647209 2.951696686 1.057510166
H 3.711646457 -1.547948651 0.067199209
H -4.089348531 -2.000617786 0.600746240

