18

C 3.774183258 0.783001009 -1.426112547
C 1.639617093 -0.971533485 -1.639868369
C 0.106897914 -1.882487472 2.335646480
C -0.608659714 -0.356738435 -0.073619856
C -1.093379908 2.413057958 0.633815389
C -2.997916874 -1.507787190 -1.231215227
H 3.937104805 1.980196101 0.258527327
H 5.583767723 -0.073789742 -1.908918712
H 3.318390482 2.053076016 -3.024471532
H 0.543457398 -3.847841116 1.891966376
H 1.714809975 -1.050400317 3.322341484
H -1.523071257 -1.850809313 3.600055484
H -1.440805470 3.551565508 -1.053843984
H 0.474213600 3.263775715 1.665761321
H -2.769332541 2.554832525 1.830360719
H -2.680832849 -3.489056524 -1.697501558
H -3.505841185 -0.525678287 -2.974019568
H -4.598794543 -1.364534328 0.068838943

