13

C 3.552600454 0.235376557 0.509631017
C 1.272695528 1.315254882 -0.769155590
C -2.809538883 -1.738931630 0.457421040
N -3.422515110 -0.162340834 -1.808522080
C -1.240027908 0.359859261 -0.355605261
O -0.554271072 2.577567480 0.860140669
H 4.868120011 1.734024446 1.035468117
H 3.009199730 -0.793321786 2.209595039
H 4.532588102 -1.058553880 -0.764376152
H 1.598193068 2.336524012 -2.523032100
H -3.928088676 -1.458118706 2.151532712
H -2.306904539 -3.679491406 0.040877913
H -4.819933620 1.087851193 -1.412213044

