14

O 5.080825959 2.332938370 -0.589969888
C 3.070398132 1.722340742 0.040636973
C 2.175173848 -1.456802474 0.739864174
C -0.178368377 -1.695594125 -0.468930851
C -2.640745579 -0.851019017 0.554117040
C -1.990162045 1.655710926 -0.627385918
H 0.593078998 2.308672284 -0.426264501
H 3.717550623 -2.532451119 -0.076740833
H 2.181433943 -1.473336538 2.797246857
H -0.185184770 -2.291242924 -2.431809786
H -4.297454564 -1.820080967 -0.182387144
H -2.706952417 -0.798887936 2.610075456
H -2.677550470 1.877478847 -2.544465582
H -2.395351602 3.311303726 0.525889653

