13

C 3.157895135 -0.106230784 -0.895470024
C 0.935896539 0.151651032 0.869172180
O -0.374865255 2.522807601 0.489957135
C -2.598705049 1.257124676 -0.415851789
C -1.417801248 -1.326049054 0.097613746
O -3.169637175 -1.565679328 2.191195645
C -4.305724251 0.648626628 1.889032217
H 4.525630697 1.388953275 -0.525352631
H 2.557997797 0.043021505 -2.864078042
H 4.083464320 -1.929674198 -0.617020184
H -3.372898045 2.007160282 -2.164632672
H -1.305035073 -3.010916319 -1.071762934
H 1.479440070 -0.100257624 2.846679787

