13

C 3.313191354 -0.302624464 -0.559422163
C 0.573624986 0.246799366 -0.297349275
O -0.523455365 2.445517292 -1.522007228
C -2.681092592 1.329110240 -0.276663067
C -1.810172037 -1.423541518 -0.719702421
O -2.022818194 -2.147033766 1.907203767
C -1.170581040 0.445259424 2.062962950
H 4.432762261 1.262949228 0.176912872
H 3.799947368 -0.596324206 -2.540284752
H 3.772099117 -2.009686355 0.501595561
H -4.524094048 2.218864864 -0.447287856
H -2.277343308 -2.781420476 -2.190066704
H -0.882068503 1.312130390 3.904108335

