26

C     4.40717   0.10010   1.07663
O     3.08650  -0.22537   0.61520
C     2.44836   0.69302  -0.11721
O     2.93609   1.73780  -0.48215
C     1.00813   0.27975  -0.29502
C     0.17223  -0.00762  -1.21027
C    -0.53544  -0.31168  -2.46537
C    -1.61563  -0.33507   0.39575
C    -1.46170  -1.74756   0.36354
N    -1.31184  -2.90430   0.30466
C    -2.80139   0.29147  -0.17335
C    -2.99240   1.76206   0.08671
O    -3.55348  -0.36405  -0.89886
O    -0.90022   0.40409   1.28444
C     0.42306   0.11752   1.35093
H     4.36827   1.00564   1.71438
H     4.71580  -0.76234   1.69225
H     5.08585   0.25136   0.25002
H     0.05089  -0.36718  -3.39144
H    -1.08362  -1.29882  -2.37033
H    -1.35332   0.44526  -2.64167
H    -2.12797   2.31806  -0.32198
H    -3.91005   2.10128  -0.40797
H    -3.03811   1.98845   1.16374
H     0.86453   0.84448   2.13451
H     0.64916  -0.94855   1.55118
26

C     4.40587   0.09990   1.07902
O     3.08567  -0.22482   0.61551
C     2.45134   0.69417  -0.11937
O     2.93987   1.74155  -0.47665
C     1.02292   0.27923  -0.32240
C     0.18240  -0.00810  -1.22743
C    -0.54199  -0.31357  -2.46844
C    -1.62259  -0.33722   0.40395
C    -1.46261  -1.74753   0.36560
N    -1.31015  -2.90377   0.30422
C    -2.80274   0.29122  -0.17070
C    -2.99200   1.76262   0.08671
O    -3.55451  -0.36352  -0.89773
O    -0.90003   0.40393   1.28413
C     0.41152   0.11532   1.37582
H     4.36788   1.00543   1.71528
H     4.71519  -0.76258   1.69280
H     5.08570   0.25148   0.25092
H     0.04565  -0.36894  -3.39437
H    -1.08581  -1.29878  -2.36862
H    -1.35495   0.44531  -2.64057
H    -2.12784   2.31779  -0.32256
H    -3.90992   2.10138  -0.40805
H    -3.03779   1.98934   1.16359
H     0.86119   0.84532   2.13971
H     0.64849  -0.94814   1.55296
26

C     4.40456   0.09970   1.08140
O     3.08484  -0.22428   0.61581
C     2.45432   0.69532  -0.12153
O     2.94365   1.74530  -0.47115
C     1.03771   0.27872  -0.34979
C     0.19256  -0.00859  -1.24459
C    -0.54854  -0.31546  -2.47150
C    -1.62956  -0.33938   0.41215
C    -1.46353  -1.74750   0.36765
N    -1.30846  -2.90324   0.30379
C    -2.80410   0.29098  -0.16805
C    -2.99161   1.76318   0.08670
O    -3.55554  -0.36298  -0.89660
O    -0.89985   0.40376   1.28382
C     0.39998   0.11313   1.40070
H     4.36748   1.00522   1.71619
H     4.71458  -0.76283   1.69334
H     5.08555   0.25160   0.25182
H     0.04041  -0.37070  -3.39731
H    -1.08799  -1.29873  -2.36690
H    -1.35657   0.44536  -2.63948
H    -2.12772   2.31752  -0.32315
H    -3.90979   2.10147  -0.40812
H    -3.03746   1.99023   1.16343
H     0.85784   0.84616   2.14491
H     0.64783  -0.94773   1.55475
26

C     4.40325   0.09950   1.08379
O     3.08401  -0.22374   0.61612
C     2.45730   0.69646  -0.12370
O     2.94743   1.74905  -0.46566
C     1.05250   0.27821  -0.37717
C     0.20272  -0.00907  -1.26175
C    -0.55508  -0.31735  -2.47456
C    -1.63652  -0.34153   0.42034
C    -1.46444  -1.74748   0.36970
N    -1.30677  -2.90271   0.30335
C    -2.80545   0.29073  -0.16540
C    -2.99122   1.76374   0.08669
O    -3.55657  -0.36244  -0.89547
O    -0.89966   0.40360   1.28351
C     0.38845   0.11093   1.42558
H     4.36708   1.00501   1.71709
H     4.71398  -0.76307   1.69388
H     5.08541   0.25172   0.25272
H     0.03517  -0.37246  -3.40024
H    -1.09018  -1.29869  -2.36518
H    -1.35819   0.44540  -2.63838
H    -2.12760   2.31725  -0.32373
H    -3.90966   2.10157  -0.40820
H    -3.03714   1.99112   1.16327
H     0.85450   0.84700   2.15012
H     0.64716  -0.94732   1.55653
26

C     4.40194   0.09930   1.08618
O     3.08318  -0.22319   0.61643
C     2.46028   0.69761  -0.12586
O     2.95121   1.75280  -0.46016
C     1.06728   0.27769  -0.40455
C     0.21289  -0.00955  -1.27891
C    -0.56163  -0.31924  -2.47763
C    -1.64349  -0.34369   0.42854
C    -1.46536  -1.74745   0.37176
N    -1.30508  -2.90219   0.30292
C    -2.80680   0.29049  -0.16276
C    -2.99082   1.76430   0.08669
O    -3.55761  -0.36191  -0.89434
O    -0.89948   0.40344   1.28320
C     0.37691   0.10873   1.45047
H     4.36668   1.00480   1.71799
H     4.71337  -0.76331   1.69443
H     5.08526   0.25184   0.25362
H     0.02994  -0.37422  -3.40318
H    -1.09237  -1.29864  -2.36346
H    -1.35982   0.44545  -2.63728
H    -2.12747   2.31697  -0.32431
H    -3.90953   2.10167  -0.40828
H    -3.03681   1.99201   1.16312
H     0.85116   0.84784   2.15532
H     0.64649  -0.94692   1.55832
26

C     4.40063   0.09911   1.08856
O     3.08235  -0.22265   0.61674
C     2.46325   0.69876  -0.12802
O     2.95499   1.75655  -0.45467
C     1.08207   0.27718  -0.43193
C     0.22305  -0.01004  -1.29607
C    -0.56818  -0.32113  -2.48069
C    -1.65045  -0.34584   0.43673
C    -1.46627  -1.74742   0.37381
N    -1.30338  -2.90166   0.30249
C    -2.80816   0.29024  -0.16011
C    -2.99043   1.76487   0.08668
O    -3.55864  -0.36137  -0.89321
O    -0.89929   0.40328   1.28289
C     0.36538   0.10654   1.47535
H     4.36629   1.00459   1.71889
H     4.71276  -0.76355   1.69497
H     5.08511   0.25196   0.25452
H     0.02470  -0.37598  -3.40611
H    -1.09456  -1.29860  -2.36174
H    -1.36144   0.44550  -2.63619
H    -2.12735   2.31670  -0.32490
H    -3.90940   2.10176  -0.40836
H    -3.03649   1.99290   1.16296
H     0.84781   0.84868   2.16053
H     0.64582  -0.94651   1.56010
26

C     4.39932   0.09891   1.09095
O     3.08152  -0.22211   0.61704
C     2.46623   0.69990  -0.13019
O     2.95877   1.76030  -0.44917
C     1.09686   0.27667  -0.45932
C     0.23322  -0.01052  -1.31323
C    -0.57473  -0.32302  -2.48375
C    -1.65742  -0.34800   0.44493
C    -1.46719  -1.74739   0.37586
N    -1.30169  -2.90113   0.30205
C    -2.80951   0.29000  -0.15746
C    -2.99004   1.76543   0.08668
O    -3.55967  -0.36083  -0.89208
O    -0.89911   0.40311   1.28258
C     0.35384   0.10434   1.50023
H     4.36589   1.00439   1.71979
H     4.71215  -0.76379   1.69551
H     5.08497   0.25208   0.25543
H     0.01946  -0.37774  -3.40905
H    -1.09675  -1.29855  -2.36002
H    -1.36306   0.44554  -2.63509
H    -2.12723   2.31643  -0.32548
H    -3.90927   2.10186  -0.40844
H    -3.03617   1.99379   1.16280
H     0.84447   0.84952   2.16573
H     0.64515  -0.94610   1.56189
26

C     4.39801   0.09871   1.09334
O     3.08070  -0.22156   0.61735
C     2.46921   0.70105  -0.13235
O     2.96254   1.76405  -0.44367
C     1.11165   0.27615  -0.48670
C     0.24338  -0.01101  -1.33039
C    -0.58128  -0.32491  -2.48682
C    -1.66438  -0.35015   0.45312
C    -1.46810  -1.74736   0.37792
N    -1.30000  -2.90060   0.30162
C    -2.81087   0.28975  -0.15481
C    -2.98965   1.76599   0.08667
O    -3.56070  -0.36029  -0.89094
O    -0.89892   0.40295   1.28227
C     0.34231   0.10214   1.52511
H     4.36549   1.00418   1.72069
H     4.71155  -0.76404   1.69606
H     5.08482   0.25220   0.25633
H     0.01423  -0.37950  -3.41198
H    -1.09894  -1.29851  -2.35830
H    -1.36469   0.44559  -2.63399
H    -2.12710   2.31616  -0.32607
H    -3.90915   2.10195  -0.40852
H    -3.03584   1.99468   1.16264
H     0.84113   0.85036   2.17093
H     0.64449  -0.94569   1.56367
26

C     4.39670   0.09851   1.09572
O     3.07987  -0.22102   0.61766
C     2.47219   0.70220  -0.13452
O     2.96632   1.76780  -0.43818
C     1.12644   0.27564  -0.51408
C     0.25355  -0.01149  -1.34755
C    -0.58783  -0.32680  -2.48988
C    -1.67135  -0.35231   0.46132
C    -1.46902  -1.74733   0.37997
N    -1.29831  -2.90007   0.30119
C    -2.81222   0.28950  -0.15216
C    -2.98925   1.76655   0.08667
O    -3.56173  -0.35976  -0.88981
O    -0.89873   0.40279   1.28196
C     0.33077   0.09994   1.55000
H     4.36510   1.00397   1.72159
H     4.71094  -0.76428   1.69660
H     5.08468   0.25232   0.25723
H     0.00899  -0.38125  -3.41492
H    -1.10113  -1.29846  -2.35659
H    -1.36631   0.44564  -2.63290
H    -2.12698   2.31589  -0.32665
H    -3.90902   2.10205  -0.40860
H    -3.03552   1.99556   1.16249
H     0.83778   0.85120   2.17614
H     0.64382  -0.94528   1.56546
26

C     4.39539   0.09831   1.09811
O     3.07904  -0.22048   0.61797
C     2.47517   0.70334  -0.13668
O     2.97010   1.77155  -0.43268
C     1.14123   0.27513  -0.54147
C     0.26371  -0.01197  -1.36471
C    -0.59438  -0.32869  -2.49294
C    -1.67831  -0.35446   0.46952
C    -1.46994  -1.74730   0.38202
N    -1.29662  -2.89955   0.30075
C    -2.81358   0.28926  -0.14951
C    -2.98886   1.76711   0.08666
O    -3.56276  -0.35922  -0.88868
O    -0.89855   0.40263   1.28165
C     0.31923   0.09775   1.57488
H     4.36470   1.00376   1.72249
H     4.71033  -0.76452   1.69714
H     5.08453   0.25244   0.25813
H     0.00375  -0.38301  -3.41785
H    -1.10332  -1.29842  -2.35487
H    -1.36793   0.44569  -2.63180
H    -2.12686   2.31562  -0.32723
H    -3.90889   2.10214  -0.40868
H    -3.03520   1.99645   1.16233
H     0.83444   0.85204   2.18134
H     0.64315  -0.94488   1.56724
26

C     4.39408   0.09812   1.10050
O     3.07821  -0.21993   0.61828
C     2.47815   0.70449  -0.13884
O     2.97388   1.77530  -0.42718
C     1.15601   0.27461  -0.56885
C     0.27387  -0.01246  -1.38188
C    -0.60093  -0.33058  -2.49601
C    -1.68528  -0.35662   0.47771
C    -1.47085  -1.74727   0.38407
N    -1.29493  -2.89902   0.30032
C    -2.81493   0.28901  -0.14687
C    -2.98847   1.76767   0.08665
O    -3.56379  -0.35868  -0.88755
O    -0.89836   0.40246   1.28134
C     0.30770   0.09555   1.59976
H     4.36430   1.00355   1.72339
H     4.70972  -0.76476   1.69769
H     5.08438   0.25256   0.25903
H    -0.00149  -0.38477  -3.42079
H    -1.10551  -1.29837  -2.35315
H    -1.36956   0.44573  -2.63071
H    -2.12673   2.31534  -0.32782
H    -3.90876   2.10224  -0.40876
H    -3.03487   1.99734   1.16217
H     0.83110   0.85288   2.18655
H     0.64248  -0.94447   1.56903
26

C     4.39277   0.09792   1.10288
O     3.07738  -0.21939   0.61858
C     2.48113   0.70563  -0.14101
O     2.97766   1.77905  -0.42169
C     1.17080   0.27410  -0.59623
C     0.28404  -0.01294  -1.39904
C    -0.60748  -0.33247  -2.49907
C    -1.69224  -0.35877   0.48591
C    -1.47177  -1.74724   0.38613
N    -1.29324  -2.89849   0.29988
C    -2.81629   0.28877  -0.14422
C    -2.98807   1.76823   0.08665
O    -3.56483  -0.35815  -0.88642
O    -0.89818   0.40230   1.28103
C     0.29616   0.09335   1.62464
H     4.36390   1.00334   1.72429
H     4.70911  -0.76500   1.69823
H     5.08424   0.25268   0.25993
H    -0.00672  -0.38653  -3.42372
H    -1.10770  -1.29833  -2.35143
H    -1.37118   0.44578  -2.62961
H    -2.12661   2.31507  -0.32840
H    -3.90863   2.10234  -0.40884
H    -3.03455   1.99823   1.16202
H     0.82775   0.85372   2.19175
H     0.64182  -0.94406   1.57081
26

C     4.39146   0.09772   1.10527
O     3.07655  -0.21884   0.61889
C     2.48411   0.70678  -0.14317
O     2.98144   1.78280  -0.41619
C     1.18559   0.27359  -0.62361
C     0.29420  -0.01342  -1.41620
C    -0.61403  -0.33436  -2.50213
C    -1.69921  -0.36093   0.49410
C    -1.47268  -1.74721   0.38818
N    -1.29155  -2.89796   0.29945
C    -2.81764   0.28852  -0.14157
C    -2.98768   1.76879   0.08664
O    -3.56586  -0.35761  -0.88529
O    -0.89799   0.40214   1.28072
C     0.28463   0.09115   1.64953
H     4.36351   1.00313   1.72519
H     4.70851  -0.76525   1.69877
H     5.08409   0.25280   0.26083
H    -0.01196  -0.38829  -3.42666
H    -1.10989  -1.29828  -2.34971
H    -1.37280   0.44583  -2.62851
H    -2.12649   2.31480  -0.32898
H    -3.90850   2.10243  -0.40892
H    -3.03422   1.99912   1.16186
H     0.82441   0.85456   2.19695
H     0.64115  -0.94365   1.57260
26

C     4.39015   0.09752   1.10766
O     3.07572  -0.21830   0.61920
C     2.48709   0.70793  -0.14533
O     2.98522   1.78655  -0.41070
C     1.20038   0.27307  -0.65100
C     0.30437  -0.01391  -1.43336
C    -0.62057  -0.33625  -2.50520
C    -1.70617  -0.36308   0.50230
C    -1.47360  -1.74719   0.39023
N    -1.28986  -2.89743   0.29902
C    -2.81900   0.28827  -0.13892
C    -2.98729   1.76935   0.08664
O    -3.56689  -0.35707  -0.88416
O    -0.89781   0.40198   1.28041
C     0.27309   0.08896   1.67441
H     4.36311   1.00292   1.72609
H     4.70790  -0.76549   1.69932
H     5.08394   0.25292   0.26173
H    -0.01720  -0.39005  -3.42959
H    -1.11208  -1.29824  -2.34799
H    -1.37443   0.44587  -2.62742
H    -2.12637   2.31453  -0.32957
H    -3.90838   2.10253  -0.40899
H    -3.03390   2.00001   1.16170
H     0.82106   0.85540   2.20216
H     0.64048  -0.94324   1.57438
26

C     4.38884   0.09732   1.11004
O     3.07489  -0.21776   0.61951
C     2.49007   0.70907  -0.14750
O     2.98900   1.79030  -0.40520
C     1.21517   0.27256  -0.67838
C     0.31453  -0.01439  -1.45052
C    -0.62712  -0.33814  -2.50826
C    -1.71314  -0.36524   0.51049
C    -1.47451  -1.74716   0.39229
N    -1.28817  -2.89691   0.29858
C    -2.82035   0.28803  -0.13627
C    -2.98689   1.76992   0.08663
O    -3.56792  -0.35653  -0.88303
O    -0.89762   0.40181   1.28010
C     0.26156   0.08676   1.69929
H     4.36271   1.00271   1.72699
H     4.70729  -0.76573   1.69986
H     5.08380   0.25304   0.26264
H    -0.02244  -0.39181  -3.43253
H    -1.11427  -1.29820  -2.34627
H    -1.37605   0.44592  -2.62632
H    -2.12624   2.31426  -0.33015
H    -3.90825   2.10262  -0.40907
H    -3.03358   2.00090   1.16154
H     0.81772   0.85624   2.20736
H     0.63981  -0.94284   1.57617
26

C     4.38753   0.09712   1.11243
O     3.07407  -0.21721   0.61981
C     2.49304   0.71022  -0.14966
O     2.99278   1.79405  -0.39970
C     1.22996   0.27205  -0.70576
C     0.32469  -0.01487  -1.46768
C    -0.63367  -0.34003  -2.51132
C    -1.72010  -0.36739   0.51869
C    -1.47543  -1.74713   0.39434
N    -1.28648  -2.89638   0.29815
C    -2.82171   0.28778  -0.13362
C    -2.98650   1.77048   0.08662
O    -3.56895  -0.35600  -0.88190
O    -0.89744   0.40165   1.27979
C     0.25002   0.08456   1.72417
H     4.36232   1.00250   1.72789
H     4.70668  -0.76597   1.70040
H     5.08365   0.25316   0.26354
H    -0.02767  -0.39357  -3.43546
H    -1.11645  -1.29815  -2.34456
H    -1.37767   0.44597  -2.62522
H    -2.12612   2.31398  -0.33073
H    -3.90812   2.10272  -0.40915
H    -3.03325   2.00179   1.16139
H     0.81438   0.85708   2.21257
H     0.63915  -0.94243   1.57796
26

C     4.38622   0.09693   1.11482
O     3.07324  -0.21667   0.62012
C     2.49602   0.71137  -0.15182
O     2.99656   1.79780  -0.39421
C     1.24475   0.27153  -0.73315
C     0.33486  -0.01536  -1.48484
C    -0.64022  -0.34192  -2.51439
C    -1.72707  -0.36955   0.52689
C    -1.47634  -1.74710   0.39639
N    -1.28479  -2.89585   0.29771
C    -2.82306   0.28754  -0.13098
C    -2.98611   1.77104   0.08662
O    -3.56998  -0.35546  -0.88077
O    -0.89725   0.40149   1.27948
C     0.23848   0.08237   1.74906
H     4.36192   1.00229   1.72879
H     4.70608  -0.76622   1.70095
H     5.08351   0.25328   0.26444
H    -0.03291  -0.39533  -3.43840
H    -1.11864  -1.29811  -2.34284
H    -1.37930   0.44601  -2.62413
H    -2.12600   2.31371  -0.33132
H    -3.90799   2.10281  -0.40923
H    -3.03293   2.00268   1.16123
H     0.81103   0.85792   2.21777
H     0.63848  -0.94202   1.57974
26

C     4.38491   0.09673   1.11721
O     3.07241  -0.21613   0.62043
C     2.49900   0.71251  -0.15399
O     3.00034   1.80155  -0.38871
C     1.25953   0.27102  -0.76053
C     0.34502  -0.01584  -1.50200
C    -0.64677  -0.34381  -2.51745
C    -1.73403  -0.37170   0.53508
C    -1.47726  -1.74707   0.39845
N    -1.28309  -2.89532   0.29728
C    -2.82441   0.28729  -0.12833
C    -2.98571   1.77160   0.08661
O    -3.57102  -0.35492  -0.87964
O    -0.89707   0.40132   1.27917
C     0.22695   0.08017   1.77394
H     4.36152   1.00208   1.72970
H     4.70547  -0.76646   1.70149
H     5.08336   0.25340   0.26534
H    -0.03815  -0.39709  -3.44133
H    -1.12083  -1.29806  -2.34112
H    -1.38092   0.44606  -2.62303
H    -2.12587   2.31344  -0.33190
H    -3.90786   2.10291  -0.40931
H    -3.03260   2.00357   1.16107
H     0.80769   0.85876   2.22297
H     0.63781  -0.94161   1.58153
26

C     4.38361   0.09653   1.11959
O     3.07158  -0.21558   0.62074
C     2.50198   0.71366  -0.15615
O     3.00412   1.80531  -0.38322
C     1.27432   0.27051  -0.78791
C     0.35519  -0.01632  -1.51916
C    -0.65332  -0.34571  -2.52051
C    -1.74100  -0.37386   0.54328
C    -1.47818  -1.74704   0.40050
N    -1.28140  -2.89479   0.29685
C    -2.82577   0.28705  -0.12568
C    -2.98532   1.77216   0.08661
O    -3.57205  -0.35439  -0.87851
O    -0.89688   0.40116   1.27886
C     0.21541   0.07797   1.79882
H     4.36112   1.00187   1.73060
H     4.70486  -0.76670   1.70204
H     5.08321   0.25352   0.26624
H    -0.04338  -0.39884  -3.44426
H    -1.12302  -1.29802  -2.33940
H    -1.38254   0.44611  -2.62194
H    -2.12575   2.31317  -0.33248
H    -3.90773   2.10301  -0.40939
H    -3.03228   2.00446   1.16092
H     0.80435   0.85960   2.22818
H     0.63714  -0.94120   1.58331
26

C     4.38230   0.09633   1.12198
O     3.07075  -0.21504   0.62105
C     2.50496   0.71481  -0.15831
O     3.00790   1.80906  -0.37772
C     1.28911   0.26999  -0.81529
C     0.36535  -0.01681  -1.53632
C    -0.65987  -0.34760  -2.52357
C    -1.74796  -0.37601   0.55147
C    -1.47909  -1.74701   0.40255
N    -1.27971  -2.89427   0.29641
C    -2.82712   0.28680  -0.12303
C    -2.98493   1.77272   0.08660
O    -3.57308  -0.35385  -0.87738
O    -0.89669   0.40100   1.27855
C     0.20388   0.07577   1.82371
H     4.36073   1.00166   1.73150
H     4.70425  -0.76694   1.70258
H     5.08307   0.25365   0.26714
H    -0.04862  -0.40060  -3.44720
H    -1.12521  -1.29797  -2.33768
H    -1.38417   0.44615  -2.62084
H    -2.12563   2.31290  -0.33307
H    -3.90761   2.10310  -0.40947
H    -3.03196   2.00535   1.16076
H     0.80100   0.86043   2.23338
H     0.63648  -0.94080   1.58510
26

C     4.38099   0.09613   1.12437
O     3.06992  -0.21450   0.62135
C     2.50794   0.71595  -0.16048
O     3.01168   1.81281  -0.37222
C     1.30390   0.26948  -0.84268
C     0.37552  -0.01729  -1.55349
C    -0.66642  -0.34949  -2.52664
C    -1.75493  -0.37817   0.55967
C    -1.48001  -1.74698   0.40461
N    -1.27802  -2.89374   0.29598
C    -2.82848   0.28655  -0.12038
C    -2.98454   1.77328   0.08660
O    -3.57411  -0.35331  -0.87624
O    -0.89651   0.40084   1.27824
C     0.19234   0.07358   1.84859
H     4.36033   1.00145   1.73240
H     4.70364  -0.76718   1.70312
H     5.08292   0.25377   0.26804
H    -0.05386  -0.40236  -3.45013
H    -1.12740  -1.29793  -2.33596
H    -1.38579   0.44620  -2.61974
H    -2.12550   2.31263  -0.33365
H    -3.90748   2.10320  -0.40955
H    -3.03163   2.00624   1.16060
H     0.79766   0.86127   2.23858
H     0.63581  -0.94039   1.58688
26

C     4.38230   0.09633   1.12198
O     3.07075  -0.21504   0.62105
C     2.50496   0.71481  -0.15831
O     3.00790   1.80906  -0.37772
C     1.28911   0.26999  -0.81529
C     0.36535  -0.01681  -1.53632
C    -0.65987  -0.34760  -2.52357
C    -1.74796  -0.37601   0.55147
C    -1.47909  -1.74701   0.40255
N    -1.27971  -2.89427   0.29641
C    -2.82712   0.28680  -0.12303
C    -2.98493   1.77272   0.08660
O    -3.57308  -0.35385  -0.87738
O    -0.89669   0.40100   1.27855
C     0.20388   0.07577   1.82371
H     4.36073   1.00166   1.73150
H     4.70425  -0.76694   1.70258
H     5.08307   0.25365   0.26714
H    -0.04862  -0.40060  -3.44720
H    -1.12521  -1.29797  -2.33768
H    -1.38417   0.44615  -2.62084
H    -2.12563   2.31290  -0.33307
H    -3.90761   2.10310  -0.40947
H    -3.03196   2.00535   1.16076
H     0.80100   0.86043   2.23338
H     0.63648  -0.94080   1.58510
26

C     4.38361   0.09653   1.11959
O     3.07158  -0.21558   0.62074
C     2.50198   0.71366  -0.15615
O     3.00412   1.80531  -0.38322
C     1.27432   0.27051  -0.78791
C     0.35519  -0.01632  -1.51916
C    -0.65332  -0.34571  -2.52051
C    -1.74100  -0.37386   0.54328
C    -1.47818  -1.74704   0.40050
N    -1.28140  -2.89479   0.29685
C    -2.82577   0.28705  -0.12568
C    -2.98532   1.77216   0.08661
O    -3.57205  -0.35439  -0.87851
O    -0.89688   0.40116   1.27886
C     0.21541   0.07797   1.79882
H     4.36112   1.00187   1.73060
H     4.70486  -0.76670   1.70204
H     5.08321   0.25352   0.26624
H    -0.04338  -0.39884  -3.44426
H    -1.12302  -1.29802  -2.33940
H    -1.38254   0.44611  -2.62194
H    -2.12575   2.31317  -0.33248
H    -3.90773   2.10301  -0.40939
H    -3.03228   2.00446   1.16092
H     0.80435   0.85960   2.22818
H     0.63714  -0.94120   1.58331
26

C     4.38491   0.09673   1.11721
O     3.07241  -0.21613   0.62043
C     2.49900   0.71251  -0.15399
O     3.00034   1.80155  -0.38871
C     1.25953   0.27102  -0.76053
C     0.34502  -0.01584  -1.50200
C    -0.64677  -0.34381  -2.51745
C    -1.73403  -0.37170   0.53508
C    -1.47726  -1.74707   0.39845
N    -1.28309  -2.89532   0.29728
C    -2.82441   0.28729  -0.12833
C    -2.98571   1.77160   0.08661
O    -3.57102  -0.35492  -0.87964
O    -0.89707   0.40132   1.27917
C     0.22695   0.08017   1.77394
H     4.36152   1.00208   1.72970
H     4.70547  -0.76646   1.70149
H     5.08336   0.25340   0.26534
H    -0.03815  -0.39709  -3.44133
H    -1.12083  -1.29806  -2.34112
H    -1.38092   0.44606  -2.62303
H    -2.12587   2.31344  -0.33190
H    -3.90786   2.10291  -0.40931
H    -3.03260   2.00357   1.16107
H     0.80769   0.85876   2.22297
H     0.63781  -0.94161   1.58153
26

C     4.38622   0.09693   1.11482
O     3.07324  -0.21667   0.62012
C     2.49602   0.71137  -0.15182
O     2.99656   1.79780  -0.39421
C     1.24475   0.27153  -0.73315
C     0.33486  -0.01536  -1.48484
C    -0.64022  -0.34192  -2.51439
C    -1.72707  -0.36955   0.52689
C    -1.47634  -1.74710   0.39639
N    -1.28479  -2.89585   0.29771
C    -2.82306   0.28754  -0.13098
C    -2.98611   1.77104   0.08662
O    -3.56998  -0.35546  -0.88077
O    -0.89725   0.40149   1.27948
C     0.23848   0.08237   1.74906
H     4.36192   1.00229   1.72879
H     4.70608  -0.76622   1.70095
H     5.08351   0.25328   0.26444
H    -0.03291  -0.39533  -3.43840
H    -1.11864  -1.29811  -2.34284
H    -1.37930   0.44601  -2.62413
H    -2.12600   2.31371  -0.33132
H    -3.90799   2.10281  -0.40923
H    -3.03293   2.00268   1.16123
H     0.81103   0.85792   2.21777
H     0.63848  -0.94202   1.57974
26

C     4.38753   0.09712   1.11243
O     3.07407  -0.21721   0.61981
C     2.49304   0.71022  -0.14966
O     2.99278   1.79405  -0.39970
C     1.22996   0.27205  -0.70576
C     0.32469  -0.01487  -1.46768
C    -0.63367  -0.34003  -2.51132
C    -1.72010  -0.36739   0.51869
C    -1.47543  -1.74713   0.39434
N    -1.28648  -2.89638   0.29815
C    -2.82171   0.28778  -0.13362
C    -2.98650   1.77048   0.08662
O    -3.56895  -0.35600  -0.88190
O    -0.89744   0.40165   1.27979
C     0.25002   0.08456   1.72417
H     4.36232   1.00250   1.72789
H     4.70668  -0.76597   1.70040
H     5.08365   0.25316   0.26354
H    -0.02767  -0.39357  -3.43546
H    -1.11645  -1.29815  -2.34456
H    -1.37767   0.44597  -2.62522
H    -2.12612   2.31398  -0.33073
H    -3.90812   2.10272  -0.40915
H    -3.03325   2.00179   1.16139
H     0.81438   0.85708   2.21257
H     0.63915  -0.94243   1.57796
26

C     4.38884   0.09732   1.11004
O     3.07489  -0.21776   0.61951
C     2.49007   0.70907  -0.14750
O     2.98900   1.79030  -0.40520
C     1.21517   0.27256  -0.67838
C     0.31453  -0.01439  -1.45052
C    -0.62712  -0.33814  -2.50826
C    -1.71314  -0.36524   0.51049
C    -1.47451  -1.74716   0.39229
N    -1.28817  -2.89691   0.29858
C    -2.82035   0.28803  -0.13627
C    -2.98689   1.76992   0.08663
O    -3.56792  -0.35653  -0.88303
O    -0.89762   0.40181   1.28010
C     0.26156   0.08676   1.69929
H     4.36271   1.00271   1.72699
H     4.70729  -0.76573   1.69986
H     5.08380   0.25304   0.26264
H    -0.02244  -0.39181  -3.43253
H    -1.11427  -1.29820  -2.34627
H    -1.37605   0.44592  -2.62632
H    -2.12624   2.31426  -0.33015
H    -3.90825   2.10262  -0.40907
H    -3.03358   2.00090   1.16154
H     0.81772   0.85624   2.20736
H     0.63981  -0.94284   1.57617
26

C     4.39015   0.09752   1.10766
O     3.07572  -0.21830   0.61920
C     2.48709   0.70793  -0.14533
O     2.98522   1.78655  -0.41070
C     1.20038   0.27307  -0.65100
C     0.30437  -0.01391  -1.43336
C    -0.62057  -0.33625  -2.50520
C    -1.70617  -0.36308   0.50230
C    -1.47360  -1.74719   0.39023
N    -1.28986  -2.89743   0.29902
C    -2.81900   0.28827  -0.13892
C    -2.98729   1.76935   0.08664
O    -3.56689  -0.35707  -0.88416
O    -0.89781   0.40198   1.28041
C     0.27309   0.08896   1.67441
H     4.36311   1.00292   1.72609
H     4.70790  -0.76549   1.69932
H     5.08394   0.25292   0.26173
H    -0.01720  -0.39005  -3.42959
H    -1.11208  -1.29824  -2.34799
H    -1.37443   0.44587  -2.62742
H    -2.12637   2.31453  -0.32957
H    -3.90838   2.10253  -0.40899
H    -3.03390   2.00001   1.16170
H     0.82106   0.85540   2.20216
H     0.64048  -0.94324   1.57438
26

C     4.39146   0.09772   1.10527
O     3.07655  -0.21884   0.61889
C     2.48411   0.70678  -0.14317
O     2.98144   1.78280  -0.41619
C     1.18559   0.27359  -0.62361
C     0.29420  -0.01342  -1.41620
C    -0.61403  -0.33436  -2.50213
C    -1.69921  -0.36093   0.49410
C    -1.47268  -1.74721   0.38818
N    -1.29155  -2.89796   0.29945
C    -2.81764   0.28852  -0.14157
C    -2.98768   1.76879   0.08664
O    -3.56586  -0.35761  -0.88529
O    -0.89799   0.40214   1.28072
C     0.28463   0.09115   1.64953
H     4.36351   1.00313   1.72519
H     4.70851  -0.76525   1.69877
H     5.08409   0.25280   0.26083
H    -0.01196  -0.38829  -3.42666
H    -1.10989  -1.29828  -2.34971
H    -1.37280   0.44583  -2.62851
H    -2.12649   2.31480  -0.32898
H    -3.90850   2.10243  -0.40892
H    -3.03422   1.99912   1.16186
H     0.82441   0.85456   2.19695
H     0.64115  -0.94365   1.57260
26

C     4.39277   0.09792   1.10288
O     3.07738  -0.21939   0.61858
C     2.48113   0.70563  -0.14101
O     2.97766   1.77905  -0.42169
C     1.17080   0.27410  -0.59623
C     0.28404  -0.01294  -1.39904
C    -0.60748  -0.33247  -2.49907
C    -1.69224  -0.35877   0.48591
C    -1.47177  -1.74724   0.38613
N    -1.29324  -2.89849   0.29988
C    -2.81629   0.28877  -0.14422
C    -2.98807   1.76823   0.08665
O    -3.56483  -0.35815  -0.88642
O    -0.89818   0.40230   1.28103
C     0.29616   0.09335   1.62464
H     4.36390   1.00334   1.72429
H     4.70911  -0.76500   1.69823
H     5.08424   0.25268   0.25993
H    -0.00672  -0.38653  -3.42372
H    -1.10770  -1.29833  -2.35143
H    -1.37118   0.44578  -2.62961
H    -2.12661   2.31507  -0.32840
H    -3.90863   2.10234  -0.40884
H    -3.03455   1.99823   1.16202
H     0.82775   0.85372   2.19175
H     0.64182  -0.94406   1.57081
26

C     4.39408   0.09812   1.10050
O     3.07821  -0.21993   0.61828
C     2.47815   0.70449  -0.13884
O     2.97388   1.77530  -0.42718
C     1.15601   0.27461  -0.56885
C     0.27387  -0.01246  -1.38188
C    -0.60093  -0.33058  -2.49601
C    -1.68528  -0.35662   0.47771
C    -1.47085  -1.74727   0.38407
N    -1.29493  -2.89902   0.30032
C    -2.81493   0.28901  -0.14687
C    -2.98847   1.76767   0.08665
O    -3.56379  -0.35868  -0.88755
O    -0.89836   0.40246   1.28134
C     0.30770   0.09555   1.59976
H     4.36430   1.00355   1.72339
H     4.70972  -0.76476   1.69769
H     5.08438   0.25256   0.25903
H    -0.00149  -0.38477  -3.42079
H    -1.10551  -1.29837  -2.35315
H    -1.36956   0.44573  -2.63071
H    -2.12673   2.31534  -0.32782
H    -3.90876   2.10224  -0.40876
H    -3.03487   1.99734   1.16217
H     0.83110   0.85288   2.18655
H     0.64248  -0.94447   1.56903
26

C     4.39539   0.09831   1.09811
O     3.07904  -0.22048   0.61797
C     2.47517   0.70334  -0.13668
O     2.97010   1.77155  -0.43268
C     1.14123   0.27513  -0.54147
C     0.26371  -0.01197  -1.36471
C    -0.59438  -0.32869  -2.49294
C    -1.67831  -0.35446   0.46952
C    -1.46994  -1.74730   0.38202
N    -1.29662  -2.89955   0.30075
C    -2.81358   0.28926  -0.14951
C    -2.98886   1.76711   0.08666
O    -3.56276  -0.35922  -0.88868
O    -0.89855   0.40263   1.28165
C     0.31923   0.09775   1.57488
H     4.36470   1.00376   1.72249
H     4.71033  -0.76452   1.69714
H     5.08453   0.25244   0.25813
H     0.00375  -0.38301  -3.41785
H    -1.10332  -1.29842  -2.35487
H    -1.36793   0.44569  -2.63180
H    -2.12686   2.31562  -0.32723
H    -3.90889   2.10214  -0.40868
H    -3.03520   1.99645   1.16233
H     0.83444   0.85204   2.18134
H     0.64315  -0.94488   1.56724
26

C     4.39670   0.09851   1.09572
O     3.07987  -0.22102   0.61766
C     2.47219   0.70220  -0.13452
O     2.96632   1.76780  -0.43818
C     1.12644   0.27564  -0.51408
C     0.25355  -0.01149  -1.34755
C    -0.58783  -0.32680  -2.48988
C    -1.67135  -0.35231   0.46132
C    -1.46902  -1.74733   0.37997
N    -1.29831  -2.90007   0.30119
C    -2.81222   0.28950  -0.15216
C    -2.98925   1.76655   0.08667
O    -3.56173  -0.35976  -0.88981
O    -0.89873   0.40279   1.28196
C     0.33077   0.09994   1.55000
H     4.36510   1.00397   1.72159
H     4.71094  -0.76428   1.69660
H     5.08468   0.25232   0.25723
H     0.00899  -0.38125  -3.41492
H    -1.10113  -1.29846  -2.35659
H    -1.36631   0.44564  -2.63290
H    -2.12698   2.31589  -0.32665
H    -3.90902   2.10205  -0.40860
H    -3.03552   1.99556   1.16249
H     0.83778   0.85120   2.17614
H     0.64382  -0.94528   1.56546
26

C     4.39801   0.09871   1.09334
O     3.08070  -0.22156   0.61735
C     2.46921   0.70105  -0.13235
O     2.96254   1.76405  -0.44367
C     1.11165   0.27615  -0.48670
C     0.24338  -0.01101  -1.33039
C    -0.58128  -0.32491  -2.48682
C    -1.66438  -0.35015   0.45312
C    -1.46810  -1.74736   0.37792
N    -1.30000  -2.90060   0.30162
C    -2.81087   0.28975  -0.15481
C    -2.98965   1.76599   0.08667
O    -3.56070  -0.36029  -0.89094
O    -0.89892   0.40295   1.28227
C     0.34231   0.10214   1.52511
H     4.36549   1.00418   1.72069
H     4.71155  -0.76404   1.69606
H     5.08482   0.25220   0.25633
H     0.01423  -0.37950  -3.41198
H    -1.09894  -1.29851  -2.35830
H    -1.36469   0.44559  -2.63399
H    -2.12710   2.31616  -0.32607
H    -3.90915   2.10195  -0.40852
H    -3.03584   1.99468   1.16264
H     0.84113   0.85036   2.17093
H     0.64449  -0.94569   1.56367
26

C     4.39932   0.09891   1.09095
O     3.08152  -0.22211   0.61704
C     2.46623   0.69990  -0.13019
O     2.95877   1.76030  -0.44917
C     1.09686   0.27667  -0.45932
C     0.23322  -0.01052  -1.31323
C    -0.57473  -0.32302  -2.48375
C    -1.65742  -0.34800   0.44493
C    -1.46719  -1.74739   0.37586
N    -1.30169  -2.90113   0.30205
C    -2.80951   0.29000  -0.15746
C    -2.99004   1.76543   0.08668
O    -3.55967  -0.36083  -0.89208
O    -0.89911   0.40311   1.28258
C     0.35384   0.10434   1.50023
H     4.36589   1.00439   1.71979
H     4.71215  -0.76379   1.69551
H     5.08497   0.25208   0.25543
H     0.01946  -0.37774  -3.40905
H    -1.09675  -1.29855  -2.36002
H    -1.36306   0.44554  -2.63509
H    -2.12723   2.31643  -0.32548
H    -3.90927   2.10186  -0.40844
H    -3.03617   1.99379   1.16280
H     0.84447   0.84952   2.16573
H     0.64515  -0.94610   1.56189
26

C     4.40063   0.09911   1.08856
O     3.08235  -0.22265   0.61674
C     2.46325   0.69876  -0.12802
O     2.95499   1.75655  -0.45467
C     1.08207   0.27718  -0.43193
C     0.22305  -0.01004  -1.29607
C    -0.56818  -0.32113  -2.48069
C    -1.65045  -0.34584   0.43673
C    -1.46627  -1.74742   0.37381
N    -1.30338  -2.90166   0.30249
C    -2.80816   0.29024  -0.16011
C    -2.99043   1.76487   0.08668
O    -3.55864  -0.36137  -0.89321
O    -0.89929   0.40328   1.28289
C     0.36538   0.10654   1.47535
H     4.36629   1.00459   1.71889
H     4.71276  -0.76355   1.69497
H     5.08511   0.25196   0.25452
H     0.02470  -0.37598  -3.40611
H    -1.09456  -1.29860  -2.36174
H    -1.36144   0.44550  -2.63619
H    -2.12735   2.31670  -0.32490
H    -3.90940   2.10176  -0.40836
H    -3.03649   1.99290   1.16296
H     0.84781   0.84868   2.16053
H     0.64582  -0.94651   1.56010
26

C     4.40194   0.09930   1.08618
O     3.08318  -0.22319   0.61643
C     2.46028   0.69761  -0.12586
O     2.95121   1.75280  -0.46016
C     1.06728   0.27769  -0.40455
C     0.21289  -0.00955  -1.27891
C    -0.56163  -0.31924  -2.47763
C    -1.64349  -0.34369   0.42854
C    -1.46536  -1.74745   0.37176
N    -1.30508  -2.90219   0.30292
C    -2.80680   0.29049  -0.16276
C    -2.99082   1.76430   0.08669
O    -3.55761  -0.36191  -0.89434
O    -0.89948   0.40344   1.28320
C     0.37691   0.10873   1.45047
H     4.36668   1.00480   1.71799
H     4.71337  -0.76331   1.69443
H     5.08526   0.25184   0.25362
H     0.02994  -0.37422  -3.40318
H    -1.09237  -1.29864  -2.36346
H    -1.35982   0.44545  -2.63728
H    -2.12747   2.31697  -0.32431
H    -3.90953   2.10167  -0.40828
H    -3.03681   1.99201   1.16312
H     0.85116   0.84784   2.15532
H     0.64649  -0.94692   1.55832
26

C     4.40325   0.09950   1.08379
O     3.08401  -0.22374   0.61612
C     2.45730   0.69646  -0.12370
O     2.94743   1.74905  -0.46566
C     1.05250   0.27821  -0.37717
C     0.20272  -0.00907  -1.26175
C    -0.55508  -0.31735  -2.47456
C    -1.63652  -0.34153   0.42034
C    -1.46444  -1.74748   0.36970
N    -1.30677  -2.90271   0.30335
C    -2.80545   0.29073  -0.16540
C    -2.99122   1.76374   0.08669
O    -3.55657  -0.36244  -0.89547
O    -0.89966   0.40360   1.28351
C     0.38845   0.11093   1.42558
H     4.36708   1.00501   1.71709
H     4.71398  -0.76307   1.69388
H     5.08541   0.25172   0.25272
H     0.03517  -0.37246  -3.40024
H    -1.09018  -1.29869  -2.36518
H    -1.35819   0.44540  -2.63838
H    -2.12760   2.31725  -0.32373
H    -3.90966   2.10157  -0.40820
H    -3.03714   1.99112   1.16327
H     0.85450   0.84700   2.15012
H     0.64716  -0.94732   1.55653
26

C     4.40456   0.09970   1.08140
O     3.08484  -0.22428   0.61581
C     2.45432   0.69532  -0.12153
O     2.94365   1.74530  -0.47115
C     1.03771   0.27872  -0.34979
C     0.19256  -0.00859  -1.24459
C    -0.54854  -0.31546  -2.47150
C    -1.62956  -0.33938   0.41215
C    -1.46353  -1.74750   0.36765
N    -1.30846  -2.90324   0.30379
C    -2.80410   0.29098  -0.16805
C    -2.99161   1.76318   0.08670
O    -3.55554  -0.36298  -0.89660
O    -0.89985   0.40376   1.28382
C     0.39998   0.11313   1.40070
H     4.36748   1.00522   1.71619
H     4.71458  -0.76283   1.69334
H     5.08555   0.25160   0.25182
H     0.04041  -0.37070  -3.39731
H    -1.08799  -1.29873  -2.36690
H    -1.35657   0.44536  -2.63948
H    -2.12772   2.31752  -0.32315
H    -3.90979   2.10147  -0.40812
H    -3.03746   1.99023   1.16343
H     0.85784   0.84616   2.14491
H     0.64783  -0.94773   1.55475
26

C     4.40587   0.09990   1.07902
O     3.08567  -0.22482   0.61551
C     2.45134   0.69417  -0.11937
O     2.93987   1.74155  -0.47665
C     1.02292   0.27923  -0.32240
C     0.18240  -0.00810  -1.22743
C    -0.54199  -0.31357  -2.46844
C    -1.62259  -0.33722   0.40395
C    -1.46261  -1.74753   0.36560
N    -1.31015  -2.90377   0.30422
C    -2.80274   0.29122  -0.17070
C    -2.99200   1.76262   0.08671
O    -3.55451  -0.36352  -0.89773
O    -0.90003   0.40393   1.28413
C     0.41152   0.11532   1.37582
H     4.36788   1.00543   1.71528
H     4.71519  -0.76258   1.69280
H     5.08570   0.25148   0.25092
H     0.04565  -0.36894  -3.39437
H    -1.08581  -1.29878  -2.36862
H    -1.35495   0.44531  -2.64057
H    -2.12784   2.31779  -0.32256
H    -3.90992   2.10138  -0.40805
H    -3.03779   1.98934   1.16359
H     0.86119   0.84532   2.13971
H     0.64849  -0.94814   1.55296
