12

C 4.377182468 -0.111948415 0.229182432
C 1.895772417 1.187017954 0.837479413
H 2.225832397 2.982691029 1.805302591
C -0.128055987 1.371419432 -1.279242390
H 0.372274006 0.444470803 -3.053316369
H -0.882729207 3.248647154 -1.678010639
N -1.857690958 -0.188229969 0.291645534
C -0.180595154 -0.352375927 2.020037934
H -0.366396617 -1.366863794 3.802354539
H 4.056237033 -1.901215470 -0.749263615
H 5.547359333 1.077517490 -0.984758337
H 5.452606047 -0.509541765 1.944580055

