15

C 3.192085496 -0.756094597 -0.848142344
C 1.493552526 0.924932329 0.743794880
C -0.586940808 2.483780845 -0.649314791
N -2.395376603 1.104943425 0.940944791
C -0.735688011 -0.341779476 1.956218803
C -2.713891132 -3.973509907 -0.995413161
N -4.771735192 -3.377906405 -0.476711156
H 2.057146789 -1.984615661 -2.052119758
H 4.438633395 0.409862888 -2.003654481
H 4.358361986 -1.947941897 0.361820362
H 2.577198171 2.049578246 2.093256223
H -0.814274105 1.966935024 -2.629957888
H -0.615074862 4.523044135 -0.385715514
H -4.256052100 0.655622338 0.712543421
H -1.070554076 -1.925825808 3.202075212

