19

C 6.252572865 1.186770381 -1.466297422
C 4.322467356 -0.425069363 -0.114887090
O 1.889323235 0.472262646 -0.709522315
C -0.043903270 -0.884807396 0.494899354
C -2.543234539 0.240821595 -0.314125016
O -4.475550442 -1.091727985 0.921735120
C -6.894191425 -0.216924912 0.286757738
H 6.088543466 3.155339583 -0.877066681
H 5.970014817 1.095027522 -3.506136360
H 8.161174255 0.532741366 -1.039002849
H 4.617386689 -0.349839479 1.941364289
H 4.498943701 -2.415535313 -0.687678253
H 0.019558968 -2.894037684 -0.027749400
H 0.138587166 -0.765701587 2.560381555
H -2.595848407 2.256820731 0.183939799
H -2.742876394 0.095961578 -2.376643276
H -7.267523205 -0.426769361 -1.743658931
H -7.138180995 1.780172352 0.794875840
H -8.257263805 -1.345504673 1.338022227

