13

C -2.533021098 0.266781991 -0.359049343
H -4.197735077 0.689808882 0.777436691
H -3.120256969 -0.675032830 -2.091078087
C -0.487594202 -1.075262253 1.248663465
C -1.299651319 -2.584218428 3.396746464
N -1.966194572 -3.739858783 5.107335093
H 0.746422450 -2.224942544 0.062726265
C 0.699895389 1.550931735 1.764652598
H -0.021604974 2.347566003 3.521538762
H 2.754377777 1.657090370 1.767939399
C -0.744661470 2.559028416 -0.557205930
H 0.406296710 2.485186990 -2.265527852
H -1.587482667 4.429584913 -0.408574057

