16

C -1.195815668 -1.808881657 -0.980751002
C -0.543570970 -1.227985648 1.751325966
C 0.526501452 1.432743218 1.571218323
C 2.380083201 1.246044267 -0.525925520
O 1.392772884 1.061053308 -4.342823808
C -2.633227662 -1.446868581 3.559853223
N -4.299910244 -1.593437723 4.941731893
H 0.347096032 -0.272074377 -3.376373327
H -2.978323853 -0.907673725 -1.520040269
H -1.268036522 -3.817800329 -1.429765369
H 0.947274126 -2.504331900 2.405175117
H -0.992874956 2.752104475 1.104111492
H 1.459822426 2.199434322 3.265648207
H 3.529922947 -0.440265558 -0.613288183
H 3.340288213 2.951238088 -1.120091621
H 0.239649663 2.390789690 -4.815535831

