11

C 4.276396193 0.126005143 0.722506095
C 2.025066741 1.019243816 1.182826333
N 0.005569533 1.971545238 1.721264656
C -2.262119731 1.492509019 0.288718102
C -3.123358841 -1.234687221 0.345479636
O -1.918241544 -2.959724715 1.166708802
H -5.025923292 -1.531479159 -0.485179189
H -3.802089845 2.658761094 1.019816649
H -2.035196391 1.998593776 -1.710337485
H 5.582330246 1.191943903 -0.429536203
H 4.825466965 -1.689489554 1.476998317

