13

C 3.590273316 -0.663030650 0.267002125
C 1.300519799 0.351926965 1.050795572
N 0.150568767 2.433932666 0.723192972
C -2.445387015 1.804034717 -0.039400336
C -2.213201166 -1.015205472 -0.321395624
O -0.475692235 -1.834964280 1.167489543
H 4.976855495 0.620581392 -0.508030362
H 1.541539097 -1.131546385 -2.371339060
H 4.229513524 -2.434249611 1.059388988
H -3.849620709 2.316867005 1.406215696
H -2.993252255 2.730287303 -1.797693080
H -0.045976923 -1.084302079 -2.875934429
H -3.622049987 -2.346509835 -0.988125621

