16

C -1.944220214 1.691006172 -2.469679916
C 0.402812131 -2.394088528 0.681021031
C 3.104813144 -2.447989205 0.076307160
C -0.385739476 2.169344439 -0.096422406
C -0.471084799 -0.032697326 1.825813036
O -2.936340224 -0.231479791 2.838367486
H -1.176873488 0.141115355 -3.597259653
H -3.885702365 1.212134058 -1.973736073
H -1.986152613 3.376048199 -3.657282476
H 4.175373380 -0.671479634 0.110166781
H 3.485049114 -3.522919528 -1.642792985
H 3.833085039 -3.674254881 1.595961773
H 1.579253665 2.583655592 -0.575079224
H -1.122501286 3.817012937 0.902129967
H 0.837502487 0.458807588 3.379305841
H -3.479023760 -1.929460338 2.479608575

