11

O -1.304873482 1.765174748 -1.841539677
C -1.033217340 -0.930714494 -1.400460724
C -0.652371650 -0.905256255 1.549410978
C 1.382181762 1.360872927 1.597951901
C 1.238549859 1.297537679 -1.242676567
N 1.732407748 -0.880902088 -2.252502858
H -2.367504579 -2.181621196 -2.342243268
H 0.221688439 -2.637217970 2.239408417
H -2.382356447 -0.519465359 2.601513069
H 3.197271094 0.779045094 2.351584147
H 0.681169148 3.076908409 2.477347801

