15

O 4.351019795 0.232867965 -0.654558119
C 3.073908828 0.084513862 1.577854607
C 0.698817357 0.841247603 1.816602719
C -0.885631581 1.880280990 -0.290163988
C -2.951912247 0.028026453 -1.120277173
C -1.859512390 -2.399331913 -2.125808797
O -2.684710038 -4.466373913 -1.688843910
H 6.009138346 -0.461428317 -0.459058865
H 4.117490805 -0.694785400 3.162393685
H -0.179947167 -2.166312525 -3.366009067
H -0.160230577 0.625940107 3.663392886
H -1.775427401 3.645399179 0.307367601
H 0.319169735 2.339700680 -1.901744537
H -4.061922010 0.870478548 -2.654148612
H -4.254557138 -0.426195564 0.413389608

