15

O 3.957497860 0.695772800 -1.092594651
C 2.449606168 -0.708389292 0.397818908
C 0.297342094 0.332438012 1.582824001
C -1.125558750 2.342310599 0.082492819
C -2.552536905 0.349607950 -1.469725215
C -1.120082550 -1.936543352 -0.283098416
O -1.891851613 -3.992031868 0.466412961
H 5.161859153 -0.360516035 -1.950120562
H 3.225241346 -2.446843464 1.173312148
H 0.778614860 -2.071975999 -1.697804084
H 0.009238361 0.052244767 3.586193757
H -2.353292648 3.485980806 1.268439619
H 0.083617735 3.603620433 -1.003523279
H -2.490961615 0.459688806 -3.523678083
H -4.512822549 0.170702419 -0.867930479

