9

C -3.459524375 0.556905785 -0.253321604
C -0.725322656 1.147717905 -0.394368835
O 0.506320840 -1.036853721 -0.077596596
C 2.995766725 -0.968827435 -0.152268991
C 5.242892367 -1.089198889 -0.192350063
H -4.278828837 1.159905089 -2.055853498
H -4.288070524 1.825848260 1.152464085
H -3.941849416 -1.411771548 0.145954868
H 7.250711654 -1.150753108 -0.235705502

