15

C -1.221000426 2.516055383 -0.232742014
C -0.641922995 -0.283735688 -0.589314059
C -2.361591343 -2.003365315 0.963283300
N 0.292982571 -1.108975175 -2.837316156
C 2.314743067 -0.975517274 -0.266752946
C 3.956831335 1.171644295 0.125387788
N 5.302805756 2.832226160 0.481280627
H -1.050701728 3.097639347 1.738982256
H -3.173336257 2.834993796 -0.817441173
H 0.005028127 3.678943064 -1.403519170
H -4.286942716 -1.813400672 0.247553593
H -1.801680307 -3.974276417 0.752775558
H -2.378752796 -1.488216752 2.961305339
H 2.914169636 -2.076148722 -1.993564118
H 2.379284376 -2.376524960 1.236818416

