15

O 1.414463840 -2.849006399 3.194764032
C 0.692562042 -2.681773593 0.955046267
C -1.508198187 -3.560554652 -0.139433952
C -2.204834781 1.522701778 -0.417495719
C 0.190490327 2.512312572 0.237921376
C 2.452226311 1.381583248 -0.743285731
C 2.599575212 -1.157207637 -0.506429329
H -1.757828135 -3.487705634 -2.169197381
H -2.712302024 -4.818628311 0.935485259
H -2.392331933 0.342786417 -2.060657919
H -3.859235541 1.938483288 0.714089954
H -1.462015510 3.600268512 -1.398377055
H 0.280907316 3.948109153 1.702609714
H 4.095208855 2.532085249 -1.148092865
H 4.401752989 -2.080772787 -0.827419154

