17

C 4.980693019 0.594907988 -1.984483134
O 2.549511623 0.773963696 -1.756999642
C 1.069656891 0.158573798 0.087630928
C -1.715647634 0.345186275 -0.309698749
C -2.979016098 -2.258801164 -0.417104640
H -5.013621818 -2.083216581 -0.723076905
H -2.693861282 -3.291527231 1.349191755
H -2.192982230 -3.393840764 -1.946777712
C -2.939950735 1.967384061 1.750499116
O -2.006050805 4.458651641 1.792947410
H -0.191120664 4.359945822 1.788005985
H -4.970571929 2.112731533 1.412763257
H -2.685091782 1.043014095 3.596445710
H -1.999472253 1.315735628 -2.113517149
H 1.920915922 -0.745262592 1.725728000
H 6.082154170 -0.179495258 -0.446932266
H 5.741717363 1.329933670 -3.719420450

