19

C 4.954202233 0.713873164 -1.738391301
O 2.493599711 1.027062426 -1.573628820
C 0.992552077 -0.477675994 -0.335238397
C -1.780453014 0.033087687 -0.470911832
C -3.264924215 -2.419360837 -0.135208581
C -2.615226037 1.977168118 1.515879942
O -1.561160029 4.392723311 1.147467214
H 5.927854819 -0.130808411 -0.147294533
H 4.050188908 -2.622287206 -2.820376217
H 5.869672098 2.099562183 -2.921046727
H 2.697026574 -3.138641887 -2.365853261
H 1.794013046 -1.502933542 1.256844940
H -2.182794886 0.840124047 -2.331359542
H -5.294714383 -2.063334791 -0.223854859
H -2.861133300 -3.290655009 1.694397097
H -2.781249002 -3.781286417 -1.602698666
H -4.660651610 2.230457086 1.404894853
H -2.178977318 1.248879782 3.413639879
H 0.246031948 4.247708317 1.113761757

