10

C 3.043657336 0.200534335 0.190738694
H 4.459718505 -0.939440852 -0.744818148
H 3.752140699 1.700616790 1.387242128
C 0.659319322 -1.112649180 0.956096142
H 0.390670357 -3.133967253 0.949796438
O -0.788795004 0.178365164 2.825591861
C -1.613659115 2.397451390 2.017190816
O -0.832797390 2.718604581 -0.338143190
C 0.630952057 0.635035264 -1.218450997
H 0.335988070 0.188573672 -3.186092098

