13

C -2.698433456 -1.176689655 0.142197129
C -2.585480727 1.714962892 0.383144825
C 0.004218681 1.235550637 1.164555554
N 2.041588144 2.444427620 0.207714803
C 3.506036658 0.419410918 -0.667001682
C 2.331207513 -1.826186389 -0.295151448
N 0.075514098 -1.307758395 1.019347940
H -2.808600161 -1.904771160 -1.776630759
H -3.946076677 -2.226941213 1.401925319
H -0.096548186 2.890431652 -1.004815512
H -3.956882811 2.812958191 1.428944188
H 5.362559557 0.736096514 -1.450489352
H 2.965104501 -3.720265063 -0.690341747

