13

O 2.679973232 3.806378012 1.055502747
C 1.624092520 1.916408472 0.374553582
N 2.282084971 -0.510337869 0.903568559
C 1.205616846 -2.341966839 -0.657902103
C -2.598736211 -0.193913453 -0.813628726
C -2.706921274 2.172357305 0.486292540
N -0.651506722 1.993853417 -1.141175881
H 3.803811442 -0.818152636 2.016789155
H 1.240828396 -4.251299477 0.086093598
H 1.477446182 -2.151506842 -2.679368236
H -3.560272365 -0.669521405 -2.547553054
H -2.194519314 -1.798161845 0.450758565
H -2.505054909 2.551196314 2.495503647

