13

C -3.087881538 0.984904394 -0.091343106
C -1.354591156 -1.302162897 0.348448679
C 0.137863590 -1.693164259 -2.042760625
C 3.645429811 0.400730692 0.101038043
O 2.432395601 -0.825628638 -2.026847846
H -4.400416008 1.205491255 1.480743887
H -2.007535355 2.734663209 -0.266851269
H -4.174127522 0.744671108 -1.825528065
H -2.533158217 -2.979906424 0.576205974
H -0.257610262 -1.051605433 2.085782111
H 2.523014035 1.985601568 0.781342528
H 5.441512334 1.081101185 -0.625502843
H 3.974025178 -0.950954972 1.617824620

