12

C -2.542775940 1.386752651 2.446629453
C -0.233395066 0.817275576 1.704634443
C 1.508809022 -1.415892625 2.198060718
H 2.155778700 -1.643174710 4.144949054
H 0.862062785 -3.244855248 1.493842844
C 3.435996076 -0.106832095 0.475627115
O 5.502365786 -0.641396725 -0.238474555
C 1.675855955 2.147809574 0.016404070
H 2.418521326 3.934599558 0.735324693
H 1.130345388 2.400377499 -1.957824446
H -3.454925368 3.118986884 1.845974146
H -3.609179138 0.143545581 3.675640371

