14

O 3.154930873 -2.606136303 0.675289133
C 2.177095718 -0.425474766 -0.608446780
C -0.278294618 2.124466449 -0.320641397
O -0.214771361 3.127104731 2.055200786
C -1.290490985 -1.240703523 0.125650252
C -2.811540783 0.932267149 -0.712331450
H 2.235749491 -4.087904081 0.174605157
H 2.264826688 -0.637301632 -2.654289435
H 3.578806307 0.960761971 -0.022845579
H 1.437547809 3.830481412 2.328307955
H -1.304580461 -1.656540025 2.126122359
H -1.213841955 -2.859222617 -1.128390693
H -3.461055186 0.885572357 -2.655011253
H -4.235757443 1.590638302 0.607863327

