9

C -4.366113265 -1.800257533 -1.441256358
C -3.295047621 0.776555682 -0.994921076
C -2.541111450 1.656864698 1.222370780
H -2.657647686 0.517850872 2.924196182
H -3.138606738 1.990482259 -2.646257551
H -1.776547914 3.545365033 1.421392087
H -6.260686990 -1.681276842 -2.255612194
H -3.204197110 -2.858113707 -2.782350429
H -4.477593443 -2.882168655 0.309788265

