8

O 1.247959807 -0.831742450 -0.257014394
C 3.313249936 0.639104714 -0.946865038
C 5.626250524 0.023914012 0.578902084
O 5.609257785 -1.567640354 2.199497590
H 7.353579084 1.116001876 0.138198090
H 2.917784984 2.664195058 -0.696394445
H 3.790796426 0.374959873 -2.951958338
H 1.814357743 -1.924955249 1.091570948

