9

N -1.317197123 2.096311457 -0.013857929
C 1.045609559 1.591765183 0.098433982
C 1.847566316 -1.009449725 0.094645138
N -0.033026970 -2.560250030 -0.193170771
C -2.254190024 -2.553777321 -0.719602455
H -1.656404040 3.978299871 -0.136670190
H 2.518731915 3.033576497 0.151249692
H 3.772007012 -1.664790078 0.207025053
H -3.843703580 -2.938132554 0.513279757

