12

O 2.381081600 0.736163032 -2.004924736
C 0.501676196 -0.683165701 -0.979825074
C 0.260840881 -0.137093583 1.780964884
C -0.613595773 2.545898240 2.272867000
O 0.036913664 3.777570384 4.055695173
C -0.945065565 -2.276596677 -2.271637998
H 2.491828168 0.416338847 -3.788295260
H -2.410201542 -3.338819990 -1.328938672
H -1.142992399 -1.400547841 2.616869210
H 2.054702598 -0.424760223 2.756801124
H -1.977146480 3.306032429 0.871187970
H -0.696324260 -2.573574092 -4.282821224

