10

C -3.437496046 0.062782314 0.070279255
C -0.778951137 -0.668841898 -0.575286811
N 1.021655957 1.079047677 0.374632195
C 3.281764963 0.600019584 0.517388645
N 5.475854761 0.229759252 0.982203710
O -0.202048251 -2.490543324 -1.795522786
H -3.631396213 0.238774833 2.115515345
H -4.750954705 -1.337780833 -0.657146402
H -3.846097825 1.915723673 -0.737626360
H 6.873613574 0.364348305 -0.300313821

