10

C -3.177185837 0.093214691 0.058998894
C -0.415529950 -0.476350426 -0.202408735
N 1.193495519 1.464662676 0.628383409
C 3.395263634 0.527480122 0.206875689
N 4.654190145 -1.256763266 -0.575405807
O 0.393457760 -2.452764052 -1.065252525
H -3.593747578 0.533983407 2.027682217
H -4.299265337 -1.505779999 -0.572482136
H -3.626605512 1.767032613 -1.055484946
H 5.469063671 1.275553172 0.516609530

