18

C -2.151207793 -3.733753758 0.857730928
C -2.597065542 -0.927075278 0.418895666
C -0.244619926 0.560860736 -0.112969226
C -0.438429424 3.276002564 -0.859151284
O 1.739861829 -0.166780047 1.163053335
C 4.025063242 0.781200856 0.761248693
H -1.214064300 -4.584047310 -0.770925451
H -0.962071551 -4.058360934 2.507794502
H -3.942099918 -4.709868752 1.157030721
H -3.574102136 -0.101283179 2.056680253
H -3.871207145 -0.654124371 -1.183391645
H 1.787362401 -0.325609184 -2.922000302
H -2.249714699 3.632885620 -1.768592847
H 1.064277237 3.851240658 -2.147164875
H -0.308520807 4.484716747 0.826427274
H 5.465470319 -0.184139109 1.838468116
H 3.285887098 -0.093206999 -2.558583594
H 4.194104402 2.793611988 0.433609451

