10

N -2.275317030 -1.684077775 -0.711854124
C -1.466518217 0.244921356 0.784590817
C 1.807502894 0.822407430 0.222896711
C 3.895198844 -0.110992006 0.181242971
C -2.267937669 2.873862269 0.096659850
N 0.062301247 3.210672351 -0.325812046
H -3.234960793 -1.195452538 -2.279206238
H -1.125545238 -3.186862879 -0.910020216
H -1.240122640 -0.042901129 2.798951447
H 5.744706437 -0.903180202 0.144905390

