13

C 0.199329332 2.303970910 -1.162427590
C 0.550825156 -0.349675187 -0.176743212
C -3.020314494 -0.539411475 2.529725794
N -0.786943412 -1.583462407 1.377036907
C 2.754064328 -1.614471187 -1.199680158
C 4.599052548 -2.561670820 -2.107359646
H 0.099591212 2.254655124 -3.221803707
H 1.843615711 3.444652930 -0.662088338
H -1.489691475 3.219548206 -0.439972121
H -2.845750590 -0.751393469 4.574601740
H -3.428697273 1.442468656 2.108654732
H -4.640458129 -1.681634284 1.953277085
H 6.230986486 -3.439570398 -2.889868174

