14

C -3.014216461 -1.820256939 0.021770325
C -0.817861448 -0.437347254 -1.164195013
C -0.365323669 2.271327894 -0.150783893
N 2.225802124 2.266512569 0.783838554
C 3.010252685 0.029068920 0.478230005
O 5.268717024 -0.855744013 1.101958641
O 1.519645184 -1.725482223 -0.558082725
H -2.825477513 -1.848840823 2.075824596
H -3.126599626 -3.761734857 -0.659114136
H -4.777633613 -0.860888017 -0.457203570
H -0.978637911 -0.463452025 -3.222471385
H -1.679957322 2.729985816 1.378425138
H -0.609307758 3.696728449 -1.622053165
H 6.184128724 0.531062268 1.843092370

