14

C -3.080087155 -1.750093430 -0.092914829
C -0.682411284 -0.550475085 -1.049069666
C -0.138603966 2.158075096 -0.044662694
N 2.540887045 1.998320200 0.504744997
C 3.184510624 -0.377663278 0.511926297
O 5.400359976 -0.693299187 1.357655215
O 1.497528453 -2.049474009 -0.230508925
H -3.080428043 -1.835762822 1.967053907
H -3.300697165 -3.658357333 -0.836275828
H -4.700605522 -0.626896233 -0.701748039
H -0.627797027 -0.570412527 -3.113269309
H -1.255955541 2.569003695 1.649456500
H -0.577217072 3.580821738 -1.469918439
H 4.827550256 1.770964075 1.528408675

