13

O 3.993645411 0.978663365 -0.356300264
C 1.670280998 0.142558293 -0.263175808
C 0.042970463 -0.417648598 2.072157356
C -2.330445614 -0.096370968 0.400247508
C -0.668198748 1.142795131 -1.657448454
H 3.343226963 -1.391591994 -1.224484741
H 1.775416119 -2.351816734 -1.330713144
H 0.318064736 1.160995990 3.373626572
H 0.341018880 -2.182865487 3.084583645
H -3.848990391 1.055177015 1.170752873
H -3.114805184 -1.901370107 -0.207123489
H -0.610831274 3.200307487 -1.498540779
H -0.937729157 0.627593731 -3.630190360

