10

C 5.789967457 -1.435099971 0.772773301
C 3.477271795 -0.469217239 0.761287545
C 2.682723501 1.844390196 2.178541359
H 1.958325205 3.279866261 0.878586814
H 4.263872448 2.652707677 3.213934132
H 1.183560586 1.392891558 3.528575138
O 1.621427609 -1.614048191 -0.616905629
H 0.072983604 -0.690435968 -0.448386089
H 6.228946092 -3.118070026 -0.300362141
H 7.271376206 -0.545720704 1.858038025

