21

C -3.572327646 -3.144635286 0.150232150
C -3.015016099 -0.525493208 1.113490033
C -3.456222816 1.552354359 -0.384769177
C 1.302895412 -0.946667996 1.668131151
C 2.657587933 0.156477184 -0.248383920
C 4.537205610 2.253425800 0.203000749
O 3.166607528 -1.390545407 -2.301858158
H -5.612980111 -3.455251780 0.031505060
H -2.800123322 -4.608468146 1.378318161
H -2.783426194 -3.420571564 -1.737287323
H -3.061440320 -0.270617323 3.143256523
H -4.275397094 1.296152377 -2.249190735
H -0.914287180 2.253105341 -1.493087748
H -3.787923551 3.382451631 0.475576168
H 0.937116602 -2.950405815 1.574196002
H 1.369558675 -0.092499524 3.522636069
H 0.694695014 1.972701826 -1.413866781
H 6.356015925 1.465679255 0.782596041
H 3.857897369 3.509338954 1.687715422
H 4.832736023 3.389390516 -1.496555452
H 3.659715819 -0.364540982 -3.712451688

