11

O 3.749989057 -1.314127603 -2.037187274
C 1.701233049 -0.497979797 -0.844760547
O -0.128962148 -2.162856159 -1.075539532
C -2.378148991 -1.658567795 0.022120359
C -2.773035931 0.481763641 1.326406817
C -0.859947652 2.392045659 1.660541520
C 1.412091951 1.720769302 0.461845550
H -3.703478002 -3.177330987 -0.319250520
H -4.637068338 0.730433344 2.146185921
H 5.069104592 -0.077188604 -1.854760692
H 3.051961038 2.963056662 0.534151687

