8

O 2.215738784 2.831710510 1.129561530
C 0.887430525 1.236479815 0.450475767
C -0.212532735 -0.875901929 -0.312135324
O -2.755073688 -1.133969675 -0.911885943
C -4.122446649 0.947933962 -0.673125661
O -3.260013403 2.931429676 0.008278682
H -6.096368614 0.592361204 -1.174001577
H 0.883499630 -2.577310591 -0.500004865

