17

C -3.209420124 0.911128768 2.112534359
C -2.385041634 -0.708900029 -0.075444575
C -1.670332247 0.488799186 -2.570674231
C 0.285706578 -0.654294937 -0.921586663
C 2.452366340 -2.471975801 -1.168546977
C 2.696534810 -0.002772512 0.129062323
C 4.156049835 1.577376090 1.373197815
H -5.223899769 1.347149301 1.999831301
H -2.858899682 -0.034920910 3.912506486
H -2.169402945 2.693304078 2.130343081
H -3.315231200 -2.532008186 -0.219116428
H -2.167437044 -0.500036367 -4.292399017
H -1.734227667 2.532272162 -2.697171780
H 3.442217640 3.376970593 2.042732714
H 3.332570439 -2.679691360 -3.009598046
H 2.429210997 -4.174721141 -0.025093390
H 6.115312797 1.129752600 1.765341498

