15

C 0.198716910 2.524327980 1.370663636
C 0.264879226 -0.261152100 0.929924588
C 2.573870836 -1.415675230 0.091498970
C -1.896701784 -0.262999610 -2.598998902
O -1.437275594 -1.529715704 2.305039909
H 1.088200074 3.524827282 -0.187708102
H -1.729383487 3.187917876 1.622400365
H 1.272390640 2.886104860 3.099327307
H 4.288198666 -0.314126528 0.230832918
H 2.719761491 -3.453505768 0.244126159
H 0.727372102 -0.840576296 -1.709334003
H -1.191854197 0.711841085 -4.285025986
H -2.458745507 -2.193618614 -3.082048898
H -3.530991115 0.749369099 -1.865846959
H -0.942416377 -3.276627894 2.389803328

