8

C -0.213967188 -1.800481730 -4.260953653
C -0.677468290 -1.196104418 -1.869273165
C -2.333979420 0.798073597 -1.115901739
C -3.711345688 2.461753933 -0.430555937
H -4.939149204 3.940229543 0.162154715
H 0.225732699 -2.235505962 -0.348988517
H 1.064263253 -3.328237410 -4.725242921
H -1.092712192 -0.791048672 -5.809201902

