16

C -4.689686326 0.608289177 -0.878429797
C -2.313358238 1.091205173 0.671560552
C -0.545985625 -1.184719895 0.772937329
C 1.774883141 -0.715117133 2.380817737
H 1.326391076 -0.351424808 4.364450098
C 4.286931208 -1.881175511 1.789741887
H 5.390501539 -3.589195020 1.785268168
C 4.108486279 0.498709760 1.319657963
H 4.957159220 2.214511313 0.633996123
H 0.048430827 -1.691166761 -1.144409165
H -1.579459211 -2.818900964 1.519399727
H -2.838520724 1.626689457 2.600786828
H -1.286378430 2.708338852 -0.111099701
H -4.218435987 0.130237392 -2.831838690
H -5.778312325 -0.964246569 -0.099207277
H -5.917502352 2.265608978 -0.918022035

