12

C -1.818947188 2.050169391 0.099126094
C -0.204574399 -0.254386465 0.386686663
O -0.789146455 -1.578692851 2.519123712
C 0.753430631 -1.642014305 -1.872724731
C 2.747676808 -0.250688800 -0.570890155
C 3.573541795 1.289161865 1.041623956
H -3.779361693 1.456088668 -0.153697530
H -1.229409896 3.152877251 -1.532594230
H -1.692282739 3.216722820 1.787075294
H 0.221645354 -0.930889728 -3.721253012
H 0.804397754 -3.688250816 -1.740050253
H 0.511180913 -2.798351969 2.870030282

