12

C -2.339321808 2.015096981 -0.083042087
C -0.633007720 -0.106008042 0.483659849
O -0.388840309 -0.720804302 2.807061603
C 0.764303567 -1.504153341 -1.498127156
C 3.304110313 -0.998043111 -0.516547811
C 5.028360396 -0.356805652 0.941854637
H -3.783378571 1.401778657 -1.424225806
H -1.208315677 3.455334512 -1.042337214
H -3.178763267 2.803405512 1.616513962
H 0.368511655 -0.704952391 -3.357940900
H 0.241300433 -3.510751373 -1.513371501
H 1.207527643 -1.702015717 2.936338353

