11

O -4.154969441 -3.312000373 -0.314925391
C -4.372431243 -1.164085711 -0.005753441
C -0.837703553 0.514259712 0.042848841
C 0.570114271 2.672461495 -0.268440112
N 3.107183295 2.147256924 -0.255417008
C 3.250126828 -0.299697581 0.056373459
N 0.932918122 -1.367380312 0.258801243
H -3.921049938 0.837054584 0.412074472
H -0.103551889 4.583927180 -0.502537911
H 4.973894294 -1.389177888 0.141628567
H 0.555471143 -3.222618047 0.435349152

