14

O -4.765832708 2.916122479 0.834236057
C -3.675870200 0.947273465 1.110669069
C -1.945041073 -0.233601273 -0.813798235
C 0.542685709 -1.009463350 0.354567347
C 2.882874864 -1.091730026 -1.233515402
C 2.571993260 0.933703417 0.726962050
H 2.181755367 2.836709403 0.082858821
H -3.893719434 -0.140814322 2.895465882
H -1.669911443 1.108050097 -2.356738885
H -2.907263235 -1.898772621 -1.586227756
H 0.391950155 -2.448150834 1.807786485
H 2.714901814 -0.553758049 -3.200542323
H 4.240116626 -2.578475059 -0.877603477
H 3.718134302 0.832338527 2.416376676

