14

O -1.965812375 3.554434887 -0.246561222
C -1.902973709 1.297115798 0.828074341
C -2.173724163 -1.135017982 -0.710314451
C 0.538705209 -1.816943361 -0.128850182
C 2.508227325 -0.239085012 -1.264831641
C 1.406995662 0.647334981 1.235241345
H 0.318277671 2.810459047 0.501749971
H -2.571844633 1.091969416 2.786264166
H -2.577731263 -0.783289778 -2.696134434
H -3.551428125 -2.441397822 0.081292786
H 1.036624648 -3.598823628 0.736268176
H 2.078776537 0.862352026 -2.938782449
H 4.428873998 -0.930845584 -1.150687402
H 2.453895677 0.600561935 2.988358431

