18

C -4.901632944 0.544081291 0.710231738
C -1.430344513 0.682879426 -1.665705291
C 0.545775733 2.116357464 -0.194307857
C 2.276549264 -0.118561757 -0.998722222
C 4.413019442 -0.889109735 0.743239357
C -0.142733168 -1.785184227 -1.067569329
H -3.794921094 0.867890832 2.401437767
H -5.561211857 -1.397076697 0.580850429
H -6.462035514 1.883404934 0.575234125
H -3.858281513 1.003599775 -1.324405162
H 0.355961266 2.059323451 1.868000397
H 0.989440870 4.036982141 -0.794969873
H 2.982485786 0.183315415 -2.911091007
H 5.304236940 -2.630792164 0.085021235
H 5.864703517 0.576148564 0.825147552
H 3.723316820 -1.210509196 2.662151546
H -0.307952736 -3.319684207 -2.433508215
H -0.459954482 -2.516736969 0.845650097

