11

O 0.601211661 2.519338310 2.606138287
C -0.035339844 0.621457771 0.938011615
C 2.120600579 -1.152237903 0.408017060
O 1.678349713 -2.765177543 -1.652109996
C -2.253444603 0.439856772 -0.148755877
N -4.433513805 0.111872580 -0.878237083
H -0.880843355 3.093175152 3.477563153
H 1.570071052 -1.763282603 -3.159480861
H 3.835532158 -0.010219790 0.162657704
H 2.426396004 -2.366741791 2.049290139
H -4.826452476 0.964547867 -2.561152903

