14

O -3.255413960 0.370970756 -0.463839135
C -3.235332843 -2.278756936 -0.869758789
C -1.192389028 -1.052804956 0.514455450
C 1.348225444 -0.533885878 -0.643011647
C 2.312073280 2.108524171 -0.023493491
O 2.608616039 2.509664310 2.606773840
H 1.013590304 3.006224866 3.304495760
H -4.676294026 -3.331712106 0.144137594
H -2.916847378 -2.860905116 -2.813511711
H -1.213712130 -1.221779541 2.564869163
H 2.700413379 -1.936240656 0.046994163
H 1.224187204 -0.731122414 -2.697205304
H 1.039866605 3.519734111 -0.844615094
H 4.174327455 2.379481266 -0.868227600

