15

C -3.922081728 -0.206066546 -1.777096577
C -1.740254949 -0.877529475 -0.026888686
C 0.347452151 1.108943409 -0.089013622
C 2.381618207 0.525199525 1.795131537
O 2.205594375 0.201755230 4.004166216
C 5.020412057 -0.919271843 0.104080143
O 5.042272806 1.380348426 0.762053829
H -4.786267942 1.590003372 -1.238196329
H -5.390414328 -1.651387894 -1.712709129
H -3.292451742 -0.037879957 -3.736647685
H -0.930458776 -2.701657725 -0.561022345
H -2.415368810 -1.075196037 1.913036671
H 1.139647830 1.290236760 -1.979423033
H -0.412426925 2.953956100 0.464711036
H 6.889243461 -1.606157734 -0.540255880

