12

O 0.869861325 3.493102049 -1.878538455
C 2.455547921 1.703748520 -1.287843573
C -2.709496177 -2.512765785 0.012072213
C -2.965478875 -0.806457140 1.820009441
C 3.551525427 0.177471475 0.199716972
O 5.449299385 1.841562032 -0.523185739
H 0.955608971 3.853505363 -3.661089329
H -2.983116974 -4.511613937 0.368585109
H -2.220406276 -1.979566407 -1.905145553
H -3.459411899 -1.337693131 3.736132470
H -2.695933651 1.191722767 1.456223519
H 3.523944855 -1.395609230 1.491815905

