11

C -3.364492618 -0.356278249 0.145612128
N -0.868351226 0.178270205 -0.865731045
C 2.270283121 1.716624982 1.109871113
C 4.071640512 0.504212000 0.307708470
N 2.399944166 -2.190641728 -2.214553964
N 0.344575704 -1.548763917 -1.910022652
H -3.358786836 -1.962482054 1.444210870
H -3.957476223 1.326989268 1.167999920
H -4.726866196 -0.699369970 -1.364422967
H 1.215580427 3.104690482 2.120621725
H 5.978760413 -0.092112338 0.052842563

