14

C 2.688356605 0.296769091 -0.445990086
C 0.770246094 0.345758540 1.658130002
C -1.160684167 2.433090699 1.804461587
C -2.331569453 -3.438846482 -2.983719815
O -1.304117686 -1.376416907 -2.178994628
C 0.643880959 -1.633705746 -0.345844296
H 2.498562245 1.736996154 -1.887777363
H 4.604422091 -0.306503732 -0.068862640
H 1.419556255 -0.352962800 3.472157081
H -1.759435272 3.034257120 -0.072799866
H -0.375937353 4.072371609 2.779142015
H -3.757956690 -2.728353338 -4.358265818
H -2.839190727 1.817013564 2.833179073
H 1.025416134 -3.601250112 0.059890032

