14

C 3.052302493 0.223353968 -0.525719729
C 0.965986100 0.425612470 1.419059824
C -1.384721592 1.890675088 0.993221229
C -3.029846273 -1.450147425 -1.123850324
O -0.735001285 -1.700734388 -2.188813248
C 1.154956444 -1.832821898 -0.351956464
H 2.912402742 1.441712463 -2.163328081
H 4.954191594 -0.143900528 0.132036525
H 1.480167728 0.076787301 3.367625047
H -1.435780896 3.105446845 -0.656211686
H -2.178692272 2.794502691 2.658897418
H -4.300144948 -0.664303324 -2.562704538
H -2.967206103 -0.269514214 0.827158579
H 1.579416409 -3.700483334 0.358998169

