13

N -4.241892496 -0.958184025 0.356775700
C -1.728533714 -0.103657431 0.111513797
C -0.634957975 2.206558344 -0.230212503
C 2.041803290 1.854720101 -0.339239665
C 2.447580439 -0.681540838 -0.055435210
O 4.562339629 -2.122059032 -0.001902217
N 0.194626465 -1.863561355 0.215583717
H -5.291797799 -0.602706416 -1.194843083
H -5.119906667 -0.223316230 1.881571824
H -1.633180723 3.977466540 -0.385606628
H 3.467412565 3.287571506 -0.600190529
H 6.001559486 -1.043912811 -0.214743998
H -0.065052499 -3.727378332 0.456728814

