13

N -2.702961447 -0.934449500 1.278386344
C -1.323464854 -0.273363435 -0.756055669
C -0.703012322 2.456898300 -1.258075360
C 1.760796839 2.210116433 -0.646756820
C 2.265667975 -0.491527837 -0.592125896
O 2.934141849 -1.784331714 1.564185556
N 0.117350726 -1.849750423 -2.150079910
H -3.362516418 0.454820795 2.395544770
H -2.635487264 -2.704526991 1.971860671
H -1.768027649 3.832901584 -2.330771138
H 3.198423543 3.639233210 -0.334327133
H 2.079775711 -1.088416391 3.028806148
H 0.064797651 -3.682002871 -1.585473775

