11

C 0.142925221 2.196853069 -1.459872410
H 1.977362665 3.073858523 -1.600992149
C -0.798834060 -0.204517556 -2.603214522
H -0.818292438 -0.246286418 -4.657849864
H 0.372534845 -1.796518898 -1.917503058
C -3.426903791 -0.344532297 -1.383584884
H -4.208577002 -2.241554333 -1.266947284
H -4.755199918 0.856145296 -2.466048278
C -2.881446137 0.885994446 1.095255612
H -4.154448103 1.379008440 2.608582024
O -0.993091481 2.460062836 0.735099097

