16

C 2.740410169 -0.972023491 2.011241807
C 0.892804037 1.909415691 -1.047970942
C -0.349416067 -0.172405516 -2.529231404
C -2.578423677 -0.875313714 -0.755803031
C -2.045928203 0.782046092 1.536796470
O -0.633903696 2.793788753 0.659397387
H 3.800943008 0.406197462 3.114700418
H 3.847021485 -1.519314520 0.365351485
H 2.501055058 -2.678428702 3.158087150
H 2.358418474 3.173885223 -1.703043898
H -1.012724129 0.537300141 -4.355504909
H 0.935621999 -1.733546251 -2.914593520
H -2.586950669 -2.873540864 -0.251661102
H -4.392843308 -0.441850547 -1.640564922
H 0.287788697 -0.411813085 2.216313563
H -3.563344908 1.395677997 2.768430612

