10

C -1.314524030 1.499477838 1.171047878
H -0.058419050 3.016210387 0.626890942
H -3.140755622 2.096032552 1.865907468
C -1.241870297 -0.853468972 -0.436226401
C -3.563112321 -2.173556658 -0.944276510
N -5.420407306 -3.224632797 -1.336421912
H 0.095734962 -0.906634999 -1.981431585
C -0.201331780 -0.864778283 2.217361568
H 1.829373280 -0.996070596 2.402540725
H -1.266446752 -1.889813543 3.627443832

