10

O -1.480382269 3.509036938 0.411358417
C -0.284021377 1.332569101 0.129268586
C -1.637245127 -1.146078738 0.063897328
N 0.412388091 -2.935574658 -0.266808731
C 2.395460280 -1.564143718 -0.346491206
N 2.110598769 1.077260393 -0.114566101
H -2.679574839 -1.506989461 1.810058351
H -2.988605683 -1.253661092 -1.494277122
H 4.274218529 -2.344603158 -0.582450630
H -0.234018392 4.840380136 0.399722429

