14

C 3.775938625 -0.940255192 1.307051335
C 1.922875833 1.089057537 1.503740039
C -1.762932153 0.311775803 -2.766827520
C -2.698654176 0.770459671 -0.081559162
C -0.658281258 0.566231961 1.874996428
O -1.003461315 0.190268114 4.147441036
H 5.664745265 -0.409937079 1.931402409
H 3.182126167 -2.749887523 2.114949807
H 3.896254728 -1.193381115 -0.763113342
H -0.242033382 1.617896032 -3.261876559
H -3.280878209 0.591383573 -4.130215181
H -1.060433118 -1.614539954 -3.000567706
H -3.502378753 2.666926109 0.096696776
H -4.187459218 -0.551873142 0.458660209

