12

C 3.308745754 0.263191682 1.158988118
N 2.107380036 -0.253524977 -0.833919641
C -0.514241930 -0.625798302 -0.737029396
N -1.242307164 -2.832688481 -1.993476322
C -2.156961688 0.960210738 0.345658593
O -1.409067387 2.937028235 1.871544559
H 2.434688859 0.355201540 3.023308973
H 5.329329215 0.621805122 1.017001430
H -2.200926733 4.458963635 1.288221631
H -3.098964555 -2.919192244 -2.410422640
H -0.156112732 -3.157883419 -3.526260318
H -4.178707349 0.684111660 0.117606727

