13

N 6.057019168 2.337350295 -0.587114040
C 4.427285759 0.694343015 -1.006167951
O 1.933172931 1.256320617 -0.421293804
C 0.290288559 -0.535413249 -0.932123852
C -4.148996715 -1.653924511 0.329779186
C -2.272641443 0.433864999 -0.302322070
H 7.794558732 1.699979669 -1.089943176
H 4.601931923 -1.205088668 -1.789459127
H -4.173601120 -3.083374239 -1.154140914
H -6.053364703 -0.894024478 0.541492612
H -3.639833916 -2.589590825 2.095019206
H -2.220429292 1.926964520 1.132415546
H -2.838295299 1.358659018 -2.080945073

