14

C -3.833935359 -0.178242615 -0.607023193
C -1.390883309 -1.032553876 0.630746871
O -0.324652510 -2.910509652 -0.926998763
C 0.376751409 1.168515532 1.081047782
C 2.674822556 1.286408326 0.221417188
C 4.971365444 1.348381724 -0.654152244
H -3.434137171 0.663752601 -2.445862734
H -5.081955864 -1.794935629 -0.878989175
H -4.805093563 1.211292903 0.567383693
H -1.843054973 -1.840800718 2.494320320
H 1.417097325 -3.137609719 -0.468827445
H 5.378951684 2.152414496 -2.493642173
H -0.349241079 2.718750714 2.215019838
H 6.543519144 0.617889534 0.437824088

