12

C -1.923975861 0.699762863 1.022252223
C -0.975472222 -1.715472589 -0.331352440
O -0.935283776 -0.255439968 -2.662298170
C -0.064516365 1.741992930 -0.983111762
C 2.458302008 0.661032434 -0.053125474
C 1.829372883 -1.724921635 0.395780781
H -3.889241841 1.133776054 0.584632584
H -1.481744308 0.959334320 3.014763102
H -2.032214063 -3.474325712 -0.428366860
H -0.157955574 3.635979272 -1.772718610
H 4.237777674 1.637724305 0.141593626
H 2.934951464 -3.299442236 1.071951018

