9

C -2.338383559 0.552513079 -0.106640288
C 0.068414473 -0.650125994 -0.864377945
O 1.154738521 -2.458718031 0.775124517
C 2.022657680 0.070231539 -2.530169237
C 2.980067825 -0.757433090 -0.225669658
H -2.779344971 2.112437567 -1.366758574
H -2.211562452 1.212269135 1.842608865
H -3.838880243 -0.860685174 -0.198989257
H 4.332411965 0.038598506 1.093631922

