13

C 3.019361033 1.572654458 0.242297887
C 1.485946605 -1.229731433 -1.639498607
C 0.056962733 -3.078249585 -0.489063351
N -2.177595040 -2.000158337 0.375575811
C -2.071437975 0.458765391 -0.075180978
O -3.910238531 2.033138801 0.659888262
N 0.029307668 1.063529869 -1.312147095
H 2.221593213 2.997888301 1.499772918
H 4.150032059 2.395639653 -1.240982995
H 4.065538662 0.190188708 1.335926161
H 0.392551183 -5.070835052 -0.237801038
H -3.716457038 -2.897747840 1.044053331
H -3.616497329 3.626437081 -0.164932254

