18

C 5.330479151 0.307979778 -0.212642415
N 2.861894520 1.004585986 -1.146858269
C 0.692322255 0.120074634 -0.162004577
O 0.817596357 -1.189279030 1.847486947
C -1.691332812 0.482887972 -1.325297283
C -2.380658868 -2.990003211 1.336280428
C -3.704964404 1.985591723 0.022030654
H 6.006922756 1.610489024 1.239797418
H 6.682078134 0.275772571 -1.768495205
H 5.206676068 -1.567134360 0.625890105
H 2.734279860 2.327330910 -2.497294428
H -1.640577659 0.801910383 -3.360882032
H -2.097279110 -3.430597752 3.314995098
H -1.709175870 -4.428348995 0.052320526
H -4.293424590 -2.364658028 0.953488339
H -5.589272590 1.164761553 -0.273985646
H -3.386194214 2.017990038 2.061055952
H -3.810261531 3.947537832 -0.630377789

