10

O -0.458216123 1.971845855 -1.612265461
C -1.885432005 -0.219861358 -1.270504825
H -1.298049889 -1.815213902 -2.423272211
C -2.989250855 -0.768651581 1.275657523
H -3.145977558 -2.716634712 1.878675649
H -2.578799600 0.572930681 2.763837482
C -4.637239321 0.147535775 -0.860647909
H -5.940611623 -1.162136534 -1.734775555
H -5.278835336 2.086287631 -0.769600224
H 1.151985209 1.733613317 -0.815256045

