16

C 4.800608185 -0.237614711 -0.374946494
C 3.360427213 -0.415807248 1.853621830
O 0.479251685 1.031417262 0.333070957
C -1.691844455 -0.382143422 -0.024091646
C -3.815794366 -0.055683879 1.812952146
C -4.040917817 0.964600269 -0.832123608
H 6.201852522 1.246585088 -0.522732129
H 2.385466501 0.689991542 -1.024587244
H 5.190381980 -1.954537551 -1.420846957
H 2.520600212 -2.195243986 2.429189605
H 3.532945413 0.975204127 3.343292877
H -1.384114933 -2.270875380 -0.787073161
H -4.923003346 -1.695466569 2.331492522
H -3.514524042 1.300626266 3.312655239
H -5.298813143 0.026309693 -2.143540267
H -3.882695149 2.988406374 -1.071417926

