13

C -4.302229750 -0.253132008 -0.525505151
C -1.472250683 -0.555624059 -0.387485847
O -0.393485161 1.945296583 -0.168929138
C 2.021510239 2.439937177 -0.012153471
N 3.490375099 0.312127595 -0.065024304
C 6.024608287 0.533324214 0.078767300
N 8.188831228 0.625595856 0.195279044
H -4.829413224 0.882577160 -2.160498858
H -5.199240128 -2.101861961 -0.689875022
H -5.014080567 0.671427742 1.171396986
H -0.740665399 -1.458387652 -2.098556168
H -0.929167092 -1.674917460 1.265045312
H 2.839261950 -1.484648684 -0.205130942

