26

C    -4.39366   1.06926  -0.64669
N    -3.19856   0.33504  -1.00952
C    -2.02374   0.95921  -1.18505
O    -1.86915   2.18012  -1.00988
C    -0.88651   0.10405  -1.61364
C    -0.92719  -1.38260  -1.76326
N     0.20127   0.78962  -1.84153
O     1.35088   0.35457  -2.13606
C     1.51595  -0.21011   0.33639
C     2.93748  -0.12638   0.22971
O     3.58207   0.71546   0.84017
O     3.48627  -1.12026  -0.47937
C     4.91349  -1.18654  -0.45632
C     0.38324  -0.23516   0.69888
Br   -1.00171  -0.41999   1.87495
H    -4.26173   1.60048   0.30054
H    -5.22557   0.36284  -0.56032
H    -4.63839   1.81258  -1.42865
H    -3.25926  -0.66928  -1.15109
H     0.05955  -1.80846  -1.91480
H    -1.53461  -1.52071  -2.67733
H    -1.43476  -1.92471  -0.94543
H     0.09188   1.81704  -1.81847
H     5.26971  -1.31277   0.57895
H     5.17328  -2.05207  -1.06048
H     5.33398  -0.26762  -0.87862
26

C    -4.39346   1.06918  -0.64783
N    -3.19765   0.33462  -1.00853
C    -2.02223   0.95809  -1.17929
O    -1.86863   2.17924  -1.00931
C    -0.87882   0.10105  -1.59330
C    -0.92852  -1.38221  -1.76269
N     0.20189   0.78982  -1.84912
O     1.35428   0.34919  -2.11394
C     1.51049  -0.20375   0.31701
C     2.93395  -0.12629   0.23006
O     3.57726   0.71406   0.84283
O     3.48398  -1.12025  -0.47793
C     4.91190  -1.18610  -0.45535
C     0.36983  -0.22963   0.67466
Br   -0.99462  -0.41994   1.87223
H    -4.26189   1.60062   0.30015
H    -5.22552   0.36281  -0.56074
H    -4.63813   1.81239  -1.42919
H    -3.25879  -0.66957  -1.14959
H     0.05872  -1.80920  -1.91536
H    -1.53463  -1.51704  -2.67772
H    -1.43588  -1.92626  -0.94689
H     0.09354   1.81664  -1.81701
H     5.26933  -1.31268   0.57918
H     5.17280  -2.05188  -1.06029
H     5.33334  -0.26741  -0.87834
26

C    -4.39325   1.06910  -0.64896
N    -3.19674   0.33421  -1.00754
C    -2.02072   0.95698  -1.17353
O    -1.86811   2.17837  -1.00875
C    -0.87114   0.09806  -1.57295
C    -0.92985  -1.38183  -1.76211
N     0.20251   0.79002  -1.85672
O     1.35769   0.34380  -2.09181
C     1.50504  -0.19739   0.29763
C     2.93042  -0.12620   0.23041
O     3.57246   0.71266   0.84549
O     3.48169  -1.12025  -0.47650
C     4.91030  -1.18567  -0.45439
C     0.35643  -0.22411   0.65044
Br   -0.98754  -0.41988   1.86950
H    -4.26205   1.60077   0.29976
H    -5.22546   0.36278  -0.56116
H    -4.63787   1.81220  -1.42972
H    -3.25831  -0.66986  -1.14810
H     0.05788  -1.80994  -1.91592
H    -1.53465  -1.51336  -2.67810
H    -1.43699  -1.92780  -0.94835
H     0.09521   1.81624  -1.81554
H     5.26894  -1.31260   0.57942
H     5.17232  -2.05170  -1.06010
H     5.33269  -0.26720  -0.87806
26

C    -4.39305   1.06903  -0.65010
N    -3.19583   0.33380  -1.00655
C    -2.01922   0.95586  -1.16777
O    -1.86759   2.17749  -1.00818
C    -0.86345   0.09506  -1.55260
C    -0.93118  -1.38144  -1.76153
N     0.20313   0.79023  -1.86432
O     1.36109   0.33842  -2.06969
C     1.49959  -0.19103   0.27825
C     2.92689  -0.12611   0.23076
O     3.56765   0.71126   0.84816
O     3.47940  -1.12024  -0.47506
C     4.90871  -1.18523  -0.45342
C     0.34303  -0.21859   0.62622
Br   -0.98046  -0.41983   1.86677
H    -4.26221   1.60091   0.29936
H    -5.22541   0.36276  -0.56157
H    -4.63761   1.81201  -1.43026
H    -3.25783  -0.67015  -1.14660
H     0.05704  -1.81068  -1.91647
H    -1.53467  -1.50968  -2.67848
H    -1.43811  -1.92935  -0.94981
H     0.09687   1.81584  -1.81408
H     5.26856  -1.31251   0.57966
H     5.17183  -2.05151  -1.05991
H     5.33205  -0.26699  -0.87779
26

C    -4.39285   1.06895  -0.65123
N    -3.19492   0.33339  -1.00556
C    -2.01771   0.95474  -1.16201
O    -1.86706   2.17662  -1.00761
C    -0.85577   0.09206  -1.53226
C    -0.93251  -1.38106  -1.76096
N     0.20375   0.79043  -1.87192
O     1.36450   0.33304  -2.04756
C     1.49414  -0.18467   0.25887
C     2.92335  -0.12602   0.23111
O     3.56285   0.70986   0.85082
O     3.47711  -1.12024  -0.47363
C     4.90712  -1.18480  -0.45245
C     0.32963  -0.21307   0.60200
Br   -0.97338  -0.41977   1.86405
H    -4.26237   1.60106   0.29897
H    -5.22536   0.36273  -0.56199
H    -4.63735   1.81181  -1.43079
H    -3.25735  -0.67044  -1.14510
H     0.05621  -1.81143  -1.91703
H    -1.53469  -1.50601  -2.67886
H    -1.43923  -1.93090  -0.95127
H     0.09854   1.81544  -1.81261
H     5.26817  -1.31242   0.57989
H     5.17135  -2.05133  -1.05973
H     5.33140  -0.26678  -0.87751
26

C    -4.39265   1.06888  -0.65237
N    -3.19401   0.33297  -1.00457
C    -2.01620   0.95363  -1.15625
O    -1.86654   2.17574  -1.00704
C    -0.84808   0.08907  -1.51191
C    -0.93384  -1.38068  -1.76038
N     0.20437   0.79063  -1.87952
O     1.36790   0.32765  -2.02544
C     1.48869  -0.17831   0.23950
C     2.91982  -0.12592   0.23146
O     3.55804   0.70845   0.85348
O     3.47482  -1.12023  -0.47219
C     4.90552  -1.18436  -0.45148
C     0.31623  -0.20755   0.57778
Br   -0.96630  -0.41972   1.86132
H    -4.26253   1.60121   0.29858
H    -5.22531   0.36270  -0.56241
H    -4.63709   1.81162  -1.43133
H    -3.25687  -0.67073  -1.14360
H     0.05537  -1.81217  -1.91758
H    -1.53471  -1.50233  -2.67925
H    -1.44035  -1.93245  -0.95273
H     0.10020   1.81504  -1.81115
H     5.26779  -1.31233   0.58013
H     5.17087  -2.05114  -1.05954
H     5.33076  -0.26657  -0.87724
26

C    -4.39245   1.06880  -0.65350
N    -3.19310   0.33256  -1.00358
C    -2.01469   0.95251  -1.15050
O    -1.86602   2.17487  -1.00648
C    -0.84039   0.08607  -1.49157
C    -0.93517  -1.38029  -1.75980
N     0.20499   0.79083  -1.88712
O     1.37131   0.32227  -2.00331
C     1.48324  -0.17195   0.22012
C     2.91629  -0.12583   0.23182
O     3.55323   0.70705   0.85615
O     3.47253  -1.12023  -0.47075
C     4.90393  -1.18393  -0.45051
C     0.30283  -0.20203   0.55356
Br   -0.95922  -0.41967   1.85860
H    -4.26269   1.60135   0.29819
H    -5.22525   0.36267  -0.56283
H    -4.63683   1.81143  -1.43186
H    -3.25640  -0.67102  -1.14210
H     0.05454  -1.81291  -1.91814
H    -1.53473  -1.49866  -2.67963
H    -1.44147  -1.93399  -0.95419
H     0.10187   1.81464  -1.80968
H     5.26740  -1.31225   0.58037
H     5.17038  -2.05095  -1.05935
H     5.33012  -0.26636  -0.87696
26

C    -4.39224   1.06872  -0.65464
N    -3.19219   0.33215  -1.00259
C    -2.01318   0.95139  -1.14474
O    -1.86550   2.17399  -1.00591
C    -0.83271   0.08307  -1.47122
C    -0.93650  -1.37991  -1.75923
N     0.20561   0.79103  -1.89471
O     1.37471   0.31688  -1.98119
C     1.47779  -0.16560   0.20074
C     2.91276  -0.12574   0.23217
O     3.54843   0.70565   0.85881
O     3.47024  -1.12022  -0.46932
C     4.90233  -1.18349  -0.44954
C     0.28943  -0.19651   0.52934
Br   -0.95214  -0.41961   1.85587
H    -4.26285   1.60150   0.29780
H    -5.22520   0.36265  -0.56325
H    -4.63656   1.81123  -1.43240
H    -3.25592  -0.67131  -1.14060
H     0.05370  -1.81365  -1.91869
H    -1.53475  -1.49498  -2.68001
H    -1.44259  -1.93554  -0.95565
H     0.10353   1.81424  -1.80822
H     5.26702  -1.31216   0.58061
H     5.16990  -2.05077  -1.05916
H     5.32947  -0.26615  -0.87669
26

C    -4.39204   1.06865  -0.65577
N    -3.19128   0.33173  -1.00160
C    -2.01167   0.95028  -1.13898
O    -1.86498   2.17311  -1.00534
C    -0.82502   0.08008  -1.45088
C    -0.93783  -1.37952  -1.75865
N     0.20623   0.79124  -1.90231
O     1.37811   0.31150  -1.95906
C     1.47233  -0.15924   0.18136
C     2.90922  -0.12565   0.23252
O     3.54362   0.70425   0.86147
O     3.46795  -1.12022  -0.46788
C     4.90074  -1.18305  -0.44857
C     0.27603  -0.19099   0.50512
Br   -0.94506  -0.41956   1.85315
H    -4.26301   1.60164   0.29741
H    -5.22515   0.36262  -0.56367
H    -4.63630   1.81104  -1.43293
H    -3.25544  -0.67160  -1.13910
H     0.05286  -1.81439  -1.91925
H    -1.53477  -1.49130  -2.68040
H    -1.44371  -1.93709  -0.95711
H     0.10520   1.81384  -1.80675
H     5.26663  -1.31207   0.58084
H     5.16941  -2.05058  -1.05898
H     5.32883  -0.26594  -0.87641
26

C    -4.39184   1.06857  -0.65691
N    -3.19037   0.33132  -1.00061
C    -2.01016   0.94916  -1.13322
O    -1.86445   2.17224  -1.00477
C    -0.81734   0.07708  -1.43053
C    -0.93916  -1.37914  -1.75807
N     0.20685   0.79144  -1.90991
O     1.38152   0.30612  -1.93694
C     1.46688  -0.15288   0.16198
C     2.90569  -0.12556   0.23287
O     3.53882   0.70285   0.86414
O     3.46566  -1.12021  -0.46645
C     4.89915  -1.18262  -0.44760
C     0.26263  -0.18547   0.48090
Br   -0.93798  -0.41950   1.85042
H    -4.26317   1.60179   0.29701
H    -5.22509   0.36259  -0.56409
H    -4.63604   1.81085  -1.43347
H    -3.25496  -0.67189  -1.13761
H     0.05203  -1.81513  -1.91981
H    -1.53479  -1.48763  -2.68078
H    -1.44483  -1.93864  -0.95857
H     0.10686   1.81344  -1.80529
H     5.26625  -1.31199   0.58108
H     5.16893  -2.05039  -1.05879
H     5.32818  -0.26573  -0.87614
26

C    -4.39164   1.06850  -0.65804
N    -3.18946   0.33091  -0.99962
C    -2.00865   0.94804  -1.12746
O    -1.86393   2.17136  -1.00420
C    -0.80965   0.07408  -1.41018
C    -0.94049  -1.37875  -1.75750
N     0.20747   0.79164  -1.91751
O     1.38492   0.30073  -1.91481
C     1.46143  -0.14652   0.14260
C     2.90216  -0.12547   0.23322
O     3.53401   0.70145   0.86680
O     3.46337  -1.12021  -0.46501
C     4.89755  -1.18218  -0.44663
C     0.24923  -0.17994   0.45668
Br   -0.93090  -0.41945   1.84770
H    -4.26333   1.60194   0.29662
H    -5.22504   0.36256  -0.56451
H    -4.63578   1.81065  -1.43400
H    -3.25448  -0.67218  -1.13611
H     0.05119  -1.81587  -1.92036
H    -1.53481  -1.48395  -2.68116
H    -1.44595  -1.94018  -0.96003
H     0.10853   1.81304  -1.80382
H     5.26586  -1.31190   0.58132
H     5.16845  -2.05021  -1.05860
H     5.32754  -0.26551  -0.87586
26

C    -4.39144   1.06842  -0.65918
N    -3.18855   0.33049  -0.99863
C    -2.00714   0.94693  -1.12170
O    -1.86341   2.17049  -1.00364
C    -0.80197   0.07108  -1.38984
C    -0.94182  -1.37837  -1.75692
N     0.20809   0.79184  -1.92511
O     1.38833   0.29535  -1.89269
C     1.45598  -0.14016   0.12322
C     2.89863  -0.12537   0.23357
O     3.52920   0.70005   0.86946
O     3.46108  -1.12020  -0.46357
C     4.89596  -1.18175  -0.44567
C     0.23583  -0.17442   0.43246
Br   -0.92382  -0.41939   1.84497
H    -4.26349   1.60208   0.29623
H    -5.22499   0.36254  -0.56493
H    -4.63552   1.81046  -1.43454
H    -3.25400  -0.67247  -1.13461
H     0.05035  -1.81661  -1.92092
H    -1.53483  -1.48028  -2.68154
H    -1.44707  -1.94173  -0.96149
H     0.11019   1.81264  -1.80236
H     5.26548  -1.31181   0.58155
H     5.16796  -2.05002  -1.05841
H     5.32689  -0.26530  -0.87559
26

C    -4.39124   1.06834  -0.66031
N    -3.18765   0.33008  -0.99765
C    -2.00563   0.94581  -1.11594
O    -1.86289   2.16961  -1.00307
C    -0.79428   0.06809  -1.36949
C    -0.94315  -1.37798  -1.75634
N     0.20871   0.79205  -1.93270
O     1.39173   0.28997  -1.87056
C     1.45053  -0.13380   0.10384
C     2.89509  -0.12528   0.23393
O     3.52440   0.69865   0.87213
O     3.45879  -1.12020  -0.46214
C     4.89437  -1.18131  -0.44470
C     0.22243  -0.16890   0.40824
Br   -0.91674  -0.41934   1.84225
H    -4.26365   1.60223   0.29584
H    -5.22494   0.36251  -0.56535
H    -4.63526   1.81027  -1.43507
H    -3.25353  -0.67276  -1.13311
H     0.04952  -1.81735  -1.92147
H    -1.53486  -1.47660  -2.68193
H    -1.44819  -1.94328  -0.96295
H     0.11186   1.81224  -1.80090
H     5.26510  -1.31172   0.58179
H     5.16748  -2.04983  -1.05823
H     5.32625  -0.26509  -0.87531
26

C    -4.39103   1.06827  -0.66145
N    -3.18674   0.32967  -0.99666
C    -2.00412   0.94470  -1.11018
O    -1.86236   2.16874  -1.00250
C    -0.78659   0.06509  -1.34915
C    -0.94448  -1.37760  -1.75577
N     0.20933   0.79225  -1.94030
O     1.39514   0.28458  -1.84844
C     1.44508  -0.12744   0.08446
C     2.89156  -0.12519   0.23428
O     3.51959   0.69725   0.87479
O     3.45650  -1.12019  -0.46070
C     4.89277  -1.18088  -0.44373
C     0.20903  -0.16338   0.38401
Br   -0.90966  -0.41929   1.83952
H    -4.26381   1.60237   0.29545
H    -5.22488   0.36248  -0.56577
H    -4.63500   1.81007  -1.43561
H    -3.25305  -0.67305  -1.13161
H     0.04868  -1.81809  -1.92203
H    -1.53488  -1.47293  -2.68231
H    -1.44930  -1.94483  -0.96441
H     0.11352   1.81184  -1.79943
H     5.26471  -1.31164   0.58203
H     5.16700  -2.04965  -1.05804
H     5.32561  -0.26488  -0.87504
26

C    -4.39083   1.06819  -0.66258
N    -3.18583   0.32925  -0.99567
C    -2.00261   0.94358  -1.10443
O    -1.86184   2.16786  -1.00193
C    -0.77891   0.06209  -1.32880
C    -0.94581  -1.37721  -1.75519
N     0.20995   0.79245  -1.94790
O     1.39854   0.27920  -1.82631
C     1.43963  -0.12108   0.06509
C     2.88803  -0.12510   0.23463
O     3.51479   0.69584   0.87745
O     3.45421  -1.12019  -0.45927
C     4.89118  -1.18044  -0.44276
C     0.19562  -0.15786   0.35979
Br   -0.90258  -0.41923   1.83680
H    -4.26397   1.60252   0.29506
H    -5.22483   0.36245  -0.56619
H    -4.63474   1.80988  -1.43614
H    -3.25257  -0.67335  -1.13011
H     0.04785  -1.81884  -1.92258
H    -1.53490  -1.46925  -2.68269
H    -1.45042  -1.94637  -0.96587
H     0.11519   1.81144  -1.79797
H     5.26433  -1.31155   0.58226
H     5.16651  -2.04946  -1.05785
H     5.32496  -0.26467  -0.87476
26

C    -4.39063   1.06812  -0.66372
N    -3.18492   0.32884  -0.99468
C    -2.00110   0.94246  -1.09867
O    -1.86132   2.16698  -1.00136
C    -0.77122   0.05910  -1.30846
C    -0.94714  -1.37683  -1.75461
N     0.21058   0.79265  -1.95550
O     1.40195   0.27382  -1.80419
C     1.43417  -0.11472   0.04571
C     2.88450  -0.12501   0.23498
O     3.50998   0.69444   0.88012
O     3.45192  -1.12018  -0.45783
C     4.88959  -1.18001  -0.44179
C     0.18222  -0.15234   0.33557
Br   -0.89550  -0.41918   1.83407
H    -4.26413   1.60267   0.29467
H    -5.22478   0.36243  -0.56661
H    -4.63448   1.80969  -1.43668
H    -3.25209  -0.67364  -1.12862
H     0.04701  -1.81958  -1.92314
H    -1.53492  -1.46557  -2.68307
H    -1.45154  -1.94792  -0.96733
H     0.11685   1.81104  -1.79650
H     5.26394  -1.31146   0.58250
H     5.16603  -2.04928  -1.05767
H     5.32432  -0.26446  -0.87448
26

C    -4.39043   1.06804  -0.66485
N    -3.18401   0.32843  -0.99369
C    -1.99959   0.94135  -1.09291
O    -1.86080   2.16611  -1.00080
C    -0.76354   0.05610  -1.28811
C    -0.94847  -1.37644  -1.75404
N     0.21120   0.79286  -1.96310
O     1.40535   0.26843  -1.78206
C     1.42872  -0.10836   0.02633
C     2.88096  -0.12492   0.23533
O     3.50517   0.69304   0.88278
O     3.44963  -1.12018  -0.45639
C     4.88799  -1.17957  -0.44082
C     0.16882  -0.14682   0.31135
Br   -0.88842  -0.41912   1.83135
H    -4.26429   1.60281   0.29427
H    -5.22472   0.36240  -0.56703
H    -4.63421   1.80950  -1.43721
H    -3.25161  -0.67393  -1.12712
H     0.04617  -1.82032  -1.92370
H    -1.53494  -1.46190  -2.68346
H    -1.45266  -1.94947  -0.96879
H     0.11852   1.81064  -1.79504
H     5.26356  -1.31138   0.58274
H     5.16555  -2.04909  -1.05748
H     5.32367  -0.26425  -0.87421
26

C    -4.39023   1.06796  -0.66599
N    -3.18310   0.32801  -0.99270
C    -1.99808   0.94023  -1.08715
O    -1.86028   2.16523  -1.00023
C    -0.75585   0.05310  -1.26776
C    -0.94980  -1.37606  -1.75346
N     0.21182   0.79306  -1.97069
O     1.40875   0.26305  -1.75994
C     1.42327  -0.10201   0.00695
C     2.87743  -0.12482   0.23569
O     3.50037   0.69164   0.88544
O     3.44734  -1.12017  -0.45496
C     4.88640  -1.17913  -0.43985
C     0.15542  -0.14130   0.28713
Br   -0.88134  -0.41907   1.82862
H    -4.26445   1.60296   0.29388
H    -5.22467   0.36237  -0.56745
H    -4.63395   1.80930  -1.43775
H    -3.25114  -0.67422  -1.12562
H     0.04534  -1.82106  -1.92425
H    -1.53496  -1.45822  -2.68384
H    -1.45378  -1.95102  -0.97025
H     0.12018   1.81025  -1.79357
H     5.26317  -1.31129   0.58297
H     5.16506  -2.04890  -1.05729
H     5.32303  -0.26404  -0.87393
26

C    -4.39002   1.06789  -0.66712
N    -3.18219   0.32760  -0.99171
C    -1.99657   0.93911  -1.08139
O    -1.85975   2.16436  -0.99966
C    -0.74816   0.05011  -1.24742
C    -0.95113  -1.37568  -1.75288
N     0.21244   0.79326  -1.97829
O     1.41216   0.25766  -1.73781
C     1.41782  -0.09565  -0.01243
C     2.87390  -0.12473   0.23604
O     3.49556   0.69024   0.88811
O     3.44505  -1.12017  -0.45352
C     4.88481  -1.17870  -0.43888
C     0.14202  -0.13577   0.26291
Br   -0.87426  -0.41901   1.82590
H    -4.26461   1.60310   0.29349
H    -5.22462   0.36234  -0.56787
H    -4.63369   1.80911  -1.43828
H    -3.25066  -0.67451  -1.12412
H     0.04450  -1.82180  -1.92481
H    -1.53498  -1.45455  -2.68422
H    -1.45490  -1.95256  -0.97171
H     0.12185   1.80985  -1.79211
H     5.26279  -1.31120   0.58321
H     5.16458  -2.04872  -1.05710
H     5.32239  -0.26383  -0.87366
26

C    -4.38982   1.06781  -0.66826
N    -3.18128   0.32719  -0.99072
C    -1.99506   0.93800  -1.07563
O    -1.85923   2.16348  -0.99909
C    -0.74048   0.04711  -1.22707
C    -0.95246  -1.37529  -1.75231
N     0.21306   0.79346  -1.98589
O     1.41556   0.25228  -1.71569
C     1.41237  -0.08929  -0.03181
C     2.87037  -0.12464   0.23639
O     3.49076   0.68884   0.89077
O     3.44276  -1.12016  -0.45209
C     4.88321  -1.17826  -0.43792
C     0.12862  -0.13025   0.23869
Br   -0.86718  -0.41896   1.82317
H    -4.26477   1.60325   0.29310
H    -5.22456   0.36232  -0.56829
H    -4.63343   1.80892  -1.43882
H    -3.25018  -0.67480  -1.12262
H     0.04367  -1.82254  -1.92536
H    -1.53500  -1.45087  -2.68461
H    -1.45602  -1.95411  -0.97317
H     0.12351   1.80945  -1.79064
H     5.26240  -1.31111   0.58345
H     5.16409  -2.04853  -1.05692
H     5.32174  -0.26361  -0.87338
26

C    -4.38962   1.06774  -0.66939
N    -3.18037   0.32678  -0.98973
C    -1.99355   0.93688  -1.06987
O    -1.85871   2.16261  -0.99853
C    -0.73279   0.04411  -1.20673
C    -0.95379  -1.37491  -1.75173
N     0.21368   0.79366  -1.99349
O     1.41897   0.24690  -1.69356
C     1.40692  -0.08293  -0.05119
C     2.86684  -0.12455   0.23674
O     3.48595   0.68744   0.89344
O     3.44047  -1.12016  -0.45065
C     4.88162  -1.17783  -0.43695
C     0.11522  -0.12473   0.21447
Br   -0.86010  -0.41891   1.82045
H    -4.26493   1.60340   0.29271
H    -5.22451   0.36229  -0.56871
H    -4.63317   1.80872  -1.43936
H    -3.24970  -0.67509  -1.12112
H     0.04283  -1.82328  -1.92592
H    -1.53502  -1.44720  -2.68499
H    -1.45714  -1.95566  -0.97463
H     0.12518   1.80905  -1.78918
H     5.26202  -1.31103   0.58368
H     5.16361  -2.04834  -1.05673
H     5.32110  -0.26340  -0.87311
26

C    -4.38982   1.06781  -0.66826
N    -3.18128   0.32719  -0.99072
C    -1.99506   0.93800  -1.07563
O    -1.85923   2.16348  -0.99909
C    -0.74048   0.04711  -1.22707
C    -0.95246  -1.37529  -1.75231
N     0.21306   0.79346  -1.98589
O     1.41556   0.25228  -1.71569
C     1.41237  -0.08929  -0.03181
C     2.87037  -0.12464   0.23639
O     3.49076   0.68884   0.89077
O     3.44276  -1.12016  -0.45209
C     4.88321  -1.17826  -0.43792
C     0.12862  -0.13025   0.23869
Br   -0.86718  -0.41896   1.82317
H    -4.26477   1.60325   0.29310
H    -5.22456   0.36232  -0.56829
H    -4.63343   1.80892  -1.43882
H    -3.25018  -0.67480  -1.12262
H     0.04367  -1.82254  -1.92536
H    -1.53500  -1.45087  -2.68461
H    -1.45602  -1.95411  -0.97317
H     0.12351   1.80945  -1.79064
H     5.26240  -1.31111   0.58345
H     5.16409  -2.04853  -1.05692
H     5.32174  -0.26361  -0.87338
26

C    -4.39002   1.06789  -0.66712
N    -3.18219   0.32760  -0.99171
C    -1.99657   0.93911  -1.08139
O    -1.85975   2.16436  -0.99966
C    -0.74816   0.05011  -1.24742
C    -0.95113  -1.37568  -1.75288
N     0.21244   0.79326  -1.97829
O     1.41216   0.25766  -1.73781
C     1.41782  -0.09565  -0.01243
C     2.87390  -0.12473   0.23604
O     3.49556   0.69024   0.88811
O     3.44505  -1.12017  -0.45352
C     4.88481  -1.17870  -0.43888
C     0.14202  -0.13577   0.26291
Br   -0.87426  -0.41901   1.82590
H    -4.26461   1.60310   0.29349
H    -5.22462   0.36234  -0.56787
H    -4.63369   1.80911  -1.43828
H    -3.25066  -0.67451  -1.12412
H     0.04450  -1.82180  -1.92481
H    -1.53498  -1.45455  -2.68422
H    -1.45490  -1.95256  -0.97171
H     0.12185   1.80985  -1.79211
H     5.26279  -1.31120   0.58321
H     5.16458  -2.04872  -1.05710
H     5.32239  -0.26383  -0.87366
26

C    -4.39023   1.06796  -0.66599
N    -3.18310   0.32801  -0.99270
C    -1.99808   0.94023  -1.08715
O    -1.86028   2.16523  -1.00023
C    -0.75585   0.05310  -1.26776
C    -0.94980  -1.37606  -1.75346
N     0.21182   0.79306  -1.97069
O     1.40875   0.26305  -1.75994
C     1.42327  -0.10201   0.00695
C     2.87743  -0.12482   0.23569
O     3.50037   0.69164   0.88544
O     3.44734  -1.12017  -0.45496
C     4.88640  -1.17913  -0.43985
C     0.15542  -0.14130   0.28713
Br   -0.88134  -0.41907   1.82862
H    -4.26445   1.60296   0.29388
H    -5.22467   0.36237  -0.56745
H    -4.63395   1.80930  -1.43775
H    -3.25114  -0.67422  -1.12562
H     0.04534  -1.82106  -1.92425
H    -1.53496  -1.45822  -2.68384
H    -1.45378  -1.95102  -0.97025
H     0.12018   1.81025  -1.79357
H     5.26317  -1.31129   0.58297
H     5.16506  -2.04890  -1.05729
H     5.32303  -0.26404  -0.87393
26

C    -4.39043   1.06804  -0.66485
N    -3.18401   0.32843  -0.99369
C    -1.99959   0.94135  -1.09291
O    -1.86080   2.16611  -1.00080
C    -0.76354   0.05610  -1.28811
C    -0.94847  -1.37644  -1.75404
N     0.21120   0.79286  -1.96310
O     1.40535   0.26843  -1.78206
C     1.42872  -0.10836   0.02633
C     2.88096  -0.12492   0.23533
O     3.50517   0.69304   0.88278
O     3.44963  -1.12018  -0.45639
C     4.88799  -1.17957  -0.44082
C     0.16882  -0.14682   0.31135
Br   -0.88842  -0.41912   1.83135
H    -4.26429   1.60281   0.29427
H    -5.22472   0.36240  -0.56703
H    -4.63421   1.80950  -1.43721
H    -3.25161  -0.67393  -1.12712
H     0.04617  -1.82032  -1.92370
H    -1.53494  -1.46190  -2.68346
H    -1.45266  -1.94947  -0.96879
H     0.11852   1.81064  -1.79504
H     5.26356  -1.31138   0.58274
H     5.16555  -2.04909  -1.05748
H     5.32367  -0.26425  -0.87421
26

C    -4.39063   1.06812  -0.66372
N    -3.18492   0.32884  -0.99468
C    -2.00110   0.94246  -1.09867
O    -1.86132   2.16698  -1.00136
C    -0.77122   0.05910  -1.30846
C    -0.94714  -1.37683  -1.75461
N     0.21058   0.79265  -1.95550
O     1.40195   0.27382  -1.80419
C     1.43417  -0.11472   0.04571
C     2.88450  -0.12501   0.23498
O     3.50998   0.69444   0.88012
O     3.45192  -1.12018  -0.45783
C     4.88959  -1.18001  -0.44179
C     0.18222  -0.15234   0.33557
Br   -0.89550  -0.41918   1.83407
H    -4.26413   1.60267   0.29467
H    -5.22478   0.36243  -0.56661
H    -4.63448   1.80969  -1.43668
H    -3.25209  -0.67364  -1.12862
H     0.04701  -1.81958  -1.92314
H    -1.53492  -1.46557  -2.68307
H    -1.45154  -1.94792  -0.96733
H     0.11685   1.81104  -1.79650
H     5.26394  -1.31146   0.58250
H     5.16603  -2.04928  -1.05767
H     5.32432  -0.26446  -0.87448
26

C    -4.39083   1.06819  -0.66258
N    -3.18583   0.32925  -0.99567
C    -2.00261   0.94358  -1.10443
O    -1.86184   2.16786  -1.00193
C    -0.77891   0.06209  -1.32880
C    -0.94581  -1.37721  -1.75519
N     0.20995   0.79245  -1.94790
O     1.39854   0.27920  -1.82631
C     1.43963  -0.12108   0.06509
C     2.88803  -0.12510   0.23463
O     3.51479   0.69584   0.87745
O     3.45421  -1.12019  -0.45927
C     4.89118  -1.18044  -0.44276
C     0.19562  -0.15786   0.35979
Br   -0.90258  -0.41923   1.83680
H    -4.26397   1.60252   0.29506
H    -5.22483   0.36245  -0.56619
H    -4.63474   1.80988  -1.43614
H    -3.25257  -0.67335  -1.13011
H     0.04785  -1.81884  -1.92258
H    -1.53490  -1.46925  -2.68269
H    -1.45042  -1.94637  -0.96587
H     0.11519   1.81144  -1.79797
H     5.26433  -1.31155   0.58226
H     5.16651  -2.04946  -1.05785
H     5.32496  -0.26467  -0.87476
26

C    -4.39103   1.06827  -0.66145
N    -3.18674   0.32967  -0.99666
C    -2.00412   0.94470  -1.11018
O    -1.86236   2.16874  -1.00250
C    -0.78659   0.06509  -1.34915
C    -0.94448  -1.37760  -1.75577
N     0.20933   0.79225  -1.94030
O     1.39514   0.28458  -1.84844
C     1.44508  -0.12744   0.08446
C     2.89156  -0.12519   0.23428
O     3.51959   0.69725   0.87479
O     3.45650  -1.12019  -0.46070
C     4.89277  -1.18088  -0.44373
C     0.20903  -0.16338   0.38401
Br   -0.90966  -0.41929   1.83952
H    -4.26381   1.60237   0.29545
H    -5.22488   0.36248  -0.56577
H    -4.63500   1.81007  -1.43561
H    -3.25305  -0.67305  -1.13161
H     0.04868  -1.81809  -1.92203
H    -1.53488  -1.47293  -2.68231
H    -1.44930  -1.94483  -0.96441
H     0.11352   1.81184  -1.79943
H     5.26471  -1.31164   0.58203
H     5.16700  -2.04965  -1.05804
H     5.32561  -0.26488  -0.87504
26

C    -4.39124   1.06834  -0.66031
N    -3.18765   0.33008  -0.99765
C    -2.00563   0.94581  -1.11594
O    -1.86289   2.16961  -1.00307
C    -0.79428   0.06809  -1.36949
C    -0.94315  -1.37798  -1.75634
N     0.20871   0.79205  -1.93270
O     1.39173   0.28997  -1.87056
C     1.45053  -0.13380   0.10384
C     2.89509  -0.12528   0.23393
O     3.52440   0.69865   0.87213
O     3.45879  -1.12020  -0.46214
C     4.89437  -1.18131  -0.44470
C     0.22243  -0.16890   0.40824
Br   -0.91674  -0.41934   1.84225
H    -4.26365   1.60223   0.29584
H    -5.22494   0.36251  -0.56535
H    -4.63526   1.81027  -1.43507
H    -3.25353  -0.67276  -1.13311
H     0.04952  -1.81735  -1.92147
H    -1.53486  -1.47660  -2.68193
H    -1.44819  -1.94328  -0.96295
H     0.11186   1.81224  -1.80090
H     5.26510  -1.31172   0.58179
H     5.16748  -2.04983  -1.05823
H     5.32625  -0.26509  -0.87531
26

C    -4.39144   1.06842  -0.65918
N    -3.18855   0.33049  -0.99863
C    -2.00714   0.94693  -1.12170
O    -1.86341   2.17049  -1.00364
C    -0.80197   0.07108  -1.38984
C    -0.94182  -1.37837  -1.75692
N     0.20809   0.79184  -1.92511
O     1.38833   0.29535  -1.89269
C     1.45598  -0.14016   0.12322
C     2.89863  -0.12537   0.23357
O     3.52920   0.70005   0.86946
O     3.46108  -1.12020  -0.46357
C     4.89596  -1.18175  -0.44567
C     0.23583  -0.17442   0.43246
Br   -0.92382  -0.41939   1.84497
H    -4.26349   1.60208   0.29623
H    -5.22499   0.36254  -0.56493
H    -4.63552   1.81046  -1.43454
H    -3.25400  -0.67247  -1.13461
H     0.05035  -1.81661  -1.92092
H    -1.53483  -1.48028  -2.68154
H    -1.44707  -1.94173  -0.96149
H     0.11019   1.81264  -1.80236
H     5.26548  -1.31181   0.58155
H     5.16796  -2.05002  -1.05841
H     5.32689  -0.26530  -0.87559
26

C    -4.39164   1.06850  -0.65804
N    -3.18946   0.33091  -0.99962
C    -2.00865   0.94804  -1.12746
O    -1.86393   2.17136  -1.00420
C    -0.80965   0.07408  -1.41018
C    -0.94049  -1.37875  -1.75750
N     0.20747   0.79164  -1.91751
O     1.38492   0.30073  -1.91481
C     1.46143  -0.14652   0.14260
C     2.90216  -0.12547   0.23322
O     3.53401   0.70145   0.86680
O     3.46337  -1.12021  -0.46501
C     4.89755  -1.18218  -0.44663
C     0.24923  -0.17994   0.45668
Br   -0.93090  -0.41945   1.84770
H    -4.26333   1.60194   0.29662
H    -5.22504   0.36256  -0.56451
H    -4.63578   1.81065  -1.43400
H    -3.25448  -0.67218  -1.13611
H     0.05119  -1.81587  -1.92036
H    -1.53481  -1.48395  -2.68116
H    -1.44595  -1.94018  -0.96003
H     0.10853   1.81304  -1.80382
H     5.26586  -1.31190   0.58132
H     5.16845  -2.05021  -1.05860
H     5.32754  -0.26551  -0.87586
26

C    -4.39184   1.06857  -0.65691
N    -3.19037   0.33132  -1.00061
C    -2.01016   0.94916  -1.13322
O    -1.86445   2.17224  -1.00477
C    -0.81734   0.07708  -1.43053
C    -0.93916  -1.37914  -1.75807
N     0.20685   0.79144  -1.90991
O     1.38152   0.30612  -1.93694
C     1.46688  -0.15288   0.16198
C     2.90569  -0.12556   0.23287
O     3.53882   0.70285   0.86414
O     3.46566  -1.12021  -0.46645
C     4.89915  -1.18262  -0.44760
C     0.26263  -0.18547   0.48090
Br   -0.93798  -0.41950   1.85042
H    -4.26317   1.60179   0.29701
H    -5.22509   0.36259  -0.56409
H    -4.63604   1.81085  -1.43347
H    -3.25496  -0.67189  -1.13761
H     0.05203  -1.81513  -1.91981
H    -1.53479  -1.48763  -2.68078
H    -1.44483  -1.93864  -0.95857
H     0.10686   1.81344  -1.80529
H     5.26625  -1.31199   0.58108
H     5.16893  -2.05039  -1.05879
H     5.32818  -0.26573  -0.87614
26

C    -4.39204   1.06865  -0.65577
N    -3.19128   0.33173  -1.00160
C    -2.01167   0.95028  -1.13898
O    -1.86498   2.17311  -1.00534
C    -0.82502   0.08008  -1.45088
C    -0.93783  -1.37952  -1.75865
N     0.20623   0.79124  -1.90231
O     1.37811   0.31150  -1.95906
C     1.47233  -0.15924   0.18136
C     2.90922  -0.12565   0.23252
O     3.54362   0.70425   0.86147
O     3.46795  -1.12022  -0.46788
C     4.90074  -1.18305  -0.44857
C     0.27603  -0.19099   0.50512
Br   -0.94506  -0.41956   1.85315
H    -4.26301   1.60164   0.29741
H    -5.22515   0.36262  -0.56367
H    -4.63630   1.81104  -1.43293
H    -3.25544  -0.67160  -1.13910
H     0.05286  -1.81439  -1.91925
H    -1.53477  -1.49130  -2.68040
H    -1.44371  -1.93709  -0.95711
H     0.10520   1.81384  -1.80675
H     5.26663  -1.31207   0.58084
H     5.16941  -2.05058  -1.05898
H     5.32883  -0.26594  -0.87641
26

C    -4.39224   1.06872  -0.65464
N    -3.19219   0.33215  -1.00259
C    -2.01318   0.95139  -1.14474
O    -1.86550   2.17399  -1.00591
C    -0.83271   0.08307  -1.47122
C    -0.93650  -1.37991  -1.75923
N     0.20561   0.79103  -1.89471
O     1.37471   0.31688  -1.98119
C     1.47779  -0.16560   0.20074
C     2.91276  -0.12574   0.23217
O     3.54843   0.70565   0.85881
O     3.47024  -1.12022  -0.46932
C     4.90233  -1.18349  -0.44954
C     0.28943  -0.19651   0.52934
Br   -0.95214  -0.41961   1.85587
H    -4.26285   1.60150   0.29780
H    -5.22520   0.36265  -0.56325
H    -4.63656   1.81123  -1.43240
H    -3.25592  -0.67131  -1.14060
H     0.05370  -1.81365  -1.91869
H    -1.53475  -1.49498  -2.68001
H    -1.44259  -1.93554  -0.95565
H     0.10353   1.81424  -1.80822
H     5.26702  -1.31216   0.58061
H     5.16990  -2.05077  -1.05916
H     5.32947  -0.26615  -0.87669
26

C    -4.39245   1.06880  -0.65350
N    -3.19310   0.33256  -1.00358
C    -2.01469   0.95251  -1.15050
O    -1.86602   2.17487  -1.00648
C    -0.84039   0.08607  -1.49157
C    -0.93517  -1.38029  -1.75980
N     0.20499   0.79083  -1.88712
O     1.37131   0.32227  -2.00331
C     1.48324  -0.17195   0.22012
C     2.91629  -0.12583   0.23182
O     3.55323   0.70705   0.85615
O     3.47253  -1.12023  -0.47075
C     4.90393  -1.18393  -0.45051
C     0.30283  -0.20203   0.55356
Br   -0.95922  -0.41967   1.85860
H    -4.26269   1.60135   0.29819
H    -5.22525   0.36267  -0.56283
H    -4.63683   1.81143  -1.43186
H    -3.25640  -0.67102  -1.14210
H     0.05454  -1.81291  -1.91814
H    -1.53473  -1.49866  -2.67963
H    -1.44147  -1.93399  -0.95419
H     0.10187   1.81464  -1.80968
H     5.26740  -1.31225   0.58037
H     5.17038  -2.05095  -1.05935
H     5.33012  -0.26636  -0.87696
26

C    -4.39265   1.06888  -0.65237
N    -3.19401   0.33297  -1.00457
C    -2.01620   0.95363  -1.15625
O    -1.86654   2.17574  -1.00704
C    -0.84808   0.08907  -1.51191
C    -0.93384  -1.38068  -1.76038
N     0.20437   0.79063  -1.87952
O     1.36790   0.32765  -2.02544
C     1.48869  -0.17831   0.23950
C     2.91982  -0.12592   0.23146
O     3.55804   0.70845   0.85348
O     3.47482  -1.12023  -0.47219
C     4.90552  -1.18436  -0.45148
C     0.31623  -0.20755   0.57778
Br   -0.96630  -0.41972   1.86132
H    -4.26253   1.60121   0.29858
H    -5.22531   0.36270  -0.56241
H    -4.63709   1.81162  -1.43133
H    -3.25687  -0.67073  -1.14360
H     0.05537  -1.81217  -1.91758
H    -1.53471  -1.50233  -2.67925
H    -1.44035  -1.93245  -0.95273
H     0.10020   1.81504  -1.81115
H     5.26779  -1.31233   0.58013
H     5.17087  -2.05114  -1.05954
H     5.33076  -0.26657  -0.87724
26

C    -4.39285   1.06895  -0.65123
N    -3.19492   0.33339  -1.00556
C    -2.01771   0.95474  -1.16201
O    -1.86706   2.17662  -1.00761
C    -0.85577   0.09206  -1.53226
C    -0.93251  -1.38106  -1.76096
N     0.20375   0.79043  -1.87192
O     1.36450   0.33304  -2.04756
C     1.49414  -0.18467   0.25887
C     2.92335  -0.12602   0.23111
O     3.56285   0.70986   0.85082
O     3.47711  -1.12024  -0.47363
C     4.90712  -1.18480  -0.45245
C     0.32963  -0.21307   0.60200
Br   -0.97338  -0.41977   1.86405
H    -4.26237   1.60106   0.29897
H    -5.22536   0.36273  -0.56199
H    -4.63735   1.81181  -1.43079
H    -3.25735  -0.67044  -1.14510
H     0.05621  -1.81143  -1.91703
H    -1.53469  -1.50601  -2.67886
H    -1.43923  -1.93090  -0.95127
H     0.09854   1.81544  -1.81261
H     5.26817  -1.31242   0.57989
H     5.17135  -2.05133  -1.05973
H     5.33140  -0.26678  -0.87751
26

C    -4.39305   1.06903  -0.65010
N    -3.19583   0.33380  -1.00655
C    -2.01922   0.95586  -1.16777
O    -1.86759   2.17749  -1.00818
C    -0.86345   0.09506  -1.55260
C    -0.93118  -1.38144  -1.76153
N     0.20313   0.79023  -1.86432
O     1.36109   0.33842  -2.06969
C     1.49959  -0.19103   0.27825
C     2.92689  -0.12611   0.23076
O     3.56765   0.71126   0.84816
O     3.47940  -1.12024  -0.47506
C     4.90871  -1.18523  -0.45342
C     0.34303  -0.21859   0.62622
Br   -0.98046  -0.41983   1.86677
H    -4.26221   1.60091   0.29936
H    -5.22541   0.36276  -0.56157
H    -4.63761   1.81201  -1.43026
H    -3.25783  -0.67015  -1.14660
H     0.05704  -1.81068  -1.91647
H    -1.53467  -1.50968  -2.67848
H    -1.43811  -1.92935  -0.94981
H     0.09687   1.81584  -1.81408
H     5.26856  -1.31251   0.57966
H     5.17183  -2.05151  -1.05991
H     5.33205  -0.26699  -0.87779
26

C    -4.39325   1.06910  -0.64896
N    -3.19674   0.33421  -1.00754
C    -2.02072   0.95698  -1.17353
O    -1.86811   2.17837  -1.00875
C    -0.87114   0.09806  -1.57295
C    -0.92985  -1.38183  -1.76211
N     0.20251   0.79002  -1.85672
O     1.35769   0.34380  -2.09181
C     1.50504  -0.19739   0.29763
C     2.93042  -0.12620   0.23041
O     3.57246   0.71266   0.84549
O     3.48169  -1.12025  -0.47650
C     4.91030  -1.18567  -0.45439
C     0.35643  -0.22411   0.65044
Br   -0.98754  -0.41988   1.86950
H    -4.26205   1.60077   0.29976
H    -5.22546   0.36278  -0.56116
H    -4.63787   1.81220  -1.42972
H    -3.25831  -0.66986  -1.14810
H     0.05788  -1.80994  -1.91592
H    -1.53465  -1.51336  -2.67810
H    -1.43699  -1.92780  -0.94835
H     0.09521   1.81624  -1.81554
H     5.26894  -1.31260   0.57942
H     5.17232  -2.05170  -1.06010
H     5.33269  -0.26720  -0.87806
26

C    -4.39346   1.06918  -0.64783
N    -3.19765   0.33462  -1.00853
C    -2.02223   0.95809  -1.17929
O    -1.86863   2.17924  -1.00931
C    -0.87882   0.10105  -1.59330
C    -0.92852  -1.38221  -1.76269
N     0.20189   0.78982  -1.84912
O     1.35428   0.34919  -2.11394
C     1.51049  -0.20375   0.31701
C     2.93395  -0.12629   0.23006
O     3.57726   0.71406   0.84283
O     3.48398  -1.12025  -0.47793
C     4.91190  -1.18610  -0.45535
C     0.36983  -0.22963   0.67466
Br   -0.99462  -0.41994   1.87223
H    -4.26189   1.60062   0.30015
H    -5.22552   0.36281  -0.56074
H    -4.63813   1.81239  -1.42919
H    -3.25879  -0.66957  -1.14959
H     0.05872  -1.80920  -1.91536
H    -1.53463  -1.51704  -2.67772
H    -1.43588  -1.92626  -0.94689
H     0.09354   1.81664  -1.81701
H     5.26933  -1.31268   0.57918
H     5.17280  -2.05188  -1.06029
H     5.33334  -0.26741  -0.87834
