14

O 3.646507276 -1.860535128 -0.978130009
C 2.005665093 -0.498480253 0.616957823
C 0.698569198 1.703058940 -0.680577910
C -1.957503609 1.776736282 0.404339767
C -1.357736492 -0.008497739 -1.690990771
C -0.605669487 -1.758481093 0.593094872
N -2.044044618 -0.153306885 2.411578265
H 5.062395214 -0.810457274 -1.392590355
H 2.843411676 -0.190333688 2.483295053
H 1.540964885 3.335861435 -1.577506425
H -3.076776374 3.485621191 0.427378778
H -2.085596067 -0.296175812 -3.574500264
H -3.842209317 -0.821410694 2.468626640
H -0.773103493 -3.798900895 0.737721943

