16

O -2.331478821 -0.613023621 1.732007730
C -1.908752473 0.260241970 -0.923710753
C -0.851913633 -1.872309426 -2.305208057
C 1.381841517 -1.173371107 2.166812244
C 2.259888153 1.105570852 0.768450533
C -0.054710122 2.392436643 -0.479323532
H -2.716317540 -2.388276033 1.533166344
H -3.775824277 0.949171260 -1.507518679
H -2.196577755 -3.259767757 -3.008993712
H 0.661639131 -1.474631378 -3.631731904
H 2.035432985 -3.001866062 1.553851060
H 1.018959904 -0.991714305 4.174525252
H 3.203815045 2.424587328 2.047872617
H 3.591182823 0.517127768 -0.688237347
H -0.872333049 3.772076157 0.816218482
H 0.438257214 3.360894618 -2.229362406

