14

C -1.052325078 -3.529167340 0.016842090
C -1.259879292 -0.914260006 -1.101622685
C -2.287445444 1.262248121 0.491683192
O 3.169944653 4.271098232 1.185114640
C 0.375092532 1.133671835 -0.228441130
C 2.656543576 2.092072537 -0.103056025
H -0.520230207 -3.423400635 2.007651422
H 0.385304726 -4.641501012 -0.960297287
H -2.845903242 -4.541992872 -0.120029621
H -1.801117528 -0.864633209 -3.082958272
H -3.489293420 2.648349081 -0.420973892
H -2.786199064 0.852511920 2.438680906
H 4.930055218 4.656575867 1.027970402
H 4.253143037 1.189023388 -1.025548906

