13

C 2.348329755 1.366891459 0.411841299
C 0.564788664 -0.036074456 -1.345866555
C -1.034299529 -2.024118628 0.025075116
N -2.625827381 -0.886863588 1.872114274
C -3.905332084 0.145850839 3.331215033
O -0.986586495 1.624901285 -2.734445267
H 3.470804491 2.711697066 -0.670356834
H 1.297099886 2.404612129 1.854968203
H 3.629432051 0.064567085 1.370820899
H 1.661090239 -1.064381663 -2.763217349
H -2.230313505 -3.002705856 -1.337809141
H 0.172696836 -3.409052814 0.963059613
H -1.925341056 2.655258316 -1.568607685

