19

C -1.238114901 -3.236871703 -1.787196823
C -0.904620211 -0.575106588 -1.494929097
C -2.270084190 0.895537960 1.892036258
C -1.044694723 3.371269762 1.280830535
O 1.412323650 2.945976750 0.256016864
C 1.644148032 0.650716854 -1.079742642
C 3.577398026 -1.031312666 0.206315064
H -2.017577870 -1.640910875 0.351581996
H -2.854476022 -3.937174253 -2.812257689
H 0.181587808 -4.542335801 -1.130322768
H -2.221864634 0.587953947 -2.553844614
H -1.528625824 0.001593795 3.599257377
H -4.329007132 0.945225531 1.892852223
H -0.755135712 4.593203618 2.919199425
H -2.203474027 4.429129263 -0.078687043
H 2.310757181 1.094136856 -2.996597600
H 2.875124852 -1.715746958 2.022268964
H 4.061080987 -2.648313875 -0.976930524
H 5.285739526 0.065123534 0.550498517

