14

O 2.675049229 -0.421490335 2.541539738
C 4.212993765 -0.909136902 -0.347056026
C 1.988717141 -0.176753473 -1.692531068
C 0.701709621 0.328408001 0.363562482
C -1.789309159 1.007341603 1.338427270
C -3.959206173 0.699162308 -0.386995482
N -3.686129447 -0.971005590 1.784256862
H 3.268963902 1.066140167 3.419883855
H 5.837550760 0.353627738 -0.271893133
H 4.720428334 -2.896618956 -0.198801135
H -1.846973112 2.516618842 2.727675834
H -3.548580912 -0.033262903 -2.255008805
H -5.514390586 2.025337614 -0.274982061
H -2.973383845 -2.655491206 1.214035122

