15

O 3.830356482 0.630628234 -1.620460750
C 2.605001881 1.214369566 0.533741617
C 0.037227397 2.422303783 -0.010180805
C -1.638264445 0.156002655 0.381438365
O -4.092123235 0.427990369 1.282544913
C -0.931071293 -2.134815912 -1.148445941
C 0.123509533 -1.754357918 1.427819574
H 5.501797186 0.056271679 -1.208066592
H 2.405179822 -0.415315409 2.086052946
H -0.364713400 3.913402027 1.357138885
H -0.028328242 3.218223527 -1.913840939
H -5.189513236 0.770749064 -0.119793405
H -2.405950471 -3.548641497 -1.302016519
H 0.289595162 -1.969609969 -2.793702751
H -0.173932755 -3.016746086 3.009837059

