8

C 2.436576223 1.093070522 -1.080501556
C 4.752732200 -0.025916252 -0.223343650
H 6.336705306 -0.181065375 -1.517788415
H 5.209482822 -0.098268385 1.775452572
O 2.544552642 -1.507601922 -0.954248217
C 0.503567528 2.919852363 -0.975026625
H -1.012861588 3.996200736 -0.123405087
N 1.516780454 2.678635570 -3.132015147

