17

C -2.595708794 -2.924865070 -0.602112475
C -1.103874445 -0.825078388 -0.309579564
C 1.572097084 -0.805303972 -1.253546896
C 3.477581408 0.517413400 0.500273112
O 3.299306232 3.130103292 0.448770573
C -2.484794059 1.996089567 0.486708469
O -1.292690418 3.309381628 2.130593602
H -1.463823997 -1.752022028 1.716722775
H -4.506423540 -2.923726000 0.158462077
H -1.956017660 -4.644081509 -1.540706276
H 1.563814320 0.230565503 -3.043769434
H 2.201597057 -2.735243885 -1.662624357
H 5.370641311 -0.007262255 -0.142301007
H 3.262041419 -0.244944411 2.427175422
H 1.621431767 3.569100674 1.192756863
H -4.438245755 1.384657152 0.977318258
H -2.517598571 2.708486591 -1.504710792

