15

C -2.727989188 -1.339776025 -0.335926938
C -0.615641704 0.595716224 -0.050797426
O -1.515655556 3.075381737 -0.334385167
C 0.814930388 0.319093692 2.437736175
C 3.403293212 -1.434660912 -0.760481691
C 1.487516457 0.072442292 -1.945067227
O 1.492875834 0.731801676 -4.143755900
H -4.200469737 -0.937113069 1.050746911
H -3.544129455 -1.217250359 -2.225138925
H -2.030163881 -3.259208171 -0.047527576
H -1.555816866 3.426478205 -2.122957049
H 1.797166394 2.050955365 2.942222129
H -0.321583047 -0.365963964 4.013590884
H 5.150981096 -0.429478151 -0.297662856
H 2.253730802 -1.262024774 2.166322446

