12

C 3.777853314 0.966933608 -2.036400695
C 1.726077826 -0.166656591 -0.483104440
O -0.254319039 1.291140200 -0.663825412
C -2.663265407 -1.664519318 2.198992277
C -2.515880999 0.523530274 0.559123889
O -3.636586819 -1.651323776 -0.336888279
H 4.164268102 -0.394734251 -3.547213960
H 5.503306435 1.020109991 -0.904751622
H 3.360042030 2.822270232 -2.847333708
H -0.969236636 -2.784411932 2.448945558
H -4.086575377 -1.721436791 3.674957727
H -3.708518110 2.177907015 0.758099785

