14

O 3.266209323 -2.329983368 -0.491732154
C 2.264045797 -0.002537562 -1.271731598
C 0.703597193 1.222560754 0.803456425
C -2.668390212 2.177510607 0.637028831
C -1.714267019 -0.246622979 1.529277760
O -2.074087049 -2.528914043 0.185158106
H 1.847664903 -3.443221368 -0.238360567
H 1.110979040 -0.196170523 -2.982791752
H 3.862654698 1.212809163 -1.737714420
H 1.755518002 1.806928228 2.466697305
H -3.037769478 1.975658529 -1.411166835
H -0.076674031 3.183079270 0.147815946
H -1.861006502 -0.660336921 3.533122877
H -3.176757701 -2.220431220 -1.219003515

