16

C -1.988020078 -1.376251443 2.581034296
C -0.996714350 0.928031102 1.207922709
C 1.883263356 1.379672244 0.921584169
C 1.419142670 1.396054299 -1.927510613
C 0.839984358 -1.256072647 -2.864979498
C -1.430614007 1.273577785 -1.671411602
H -1.598021821 -1.259824490 4.604509188
H -4.028989563 -1.543995042 2.326042060
H -1.120086802 -3.114262360 1.881424463
H -1.901840460 2.615600127 1.995330313
H 2.497069437 3.193840239 1.677486732
H 3.155631262 -0.085836274 1.628321935
H 2.415256560 2.601573408 -3.255092329
H 1.648682487 -2.777584824 -1.751114241
H 1.106937426 -1.444589439 -4.888532342
H -1.358951132 -1.419683755 -2.714343797

