16

C 5.867832129 0.383350012 1.285139998
O 3.435794593 1.328957135 0.821467121
C 1.649056123 -0.591978743 0.422984957
C -0.892981709 0.632445017 -0.065797864
C -7.214411961 -0.423403947 -2.164771359
C -2.936738843 -1.277149273 -0.453212355
N -5.001581484 -0.760492443 -1.299005883
H 7.116636171 1.992773854 1.579349701
H 6.568205052 -0.728142826 -0.320874513
H 5.904668012 -0.814677108 2.978785155
H 1.523300481 -1.838569594 2.079778829
H 2.195715397 -1.773813404 -1.196870608
H -1.417516164 1.784323683 1.571629131
H -8.740025599 0.022567487 -0.878804209
H -0.766865960 1.914988626 -1.684980025
H -7.551823090 -0.627780303 -4.171027672

