16

C 5.172035253 0.741295528 0.188072460
O 2.644421549 1.386775309 0.691949204
C 1.028988699 -0.702733134 0.669490301
C -1.636563087 0.292420321 1.107131917
C -4.505584898 1.365316675 -3.704306213
C -3.471958754 -1.756850013 1.297923599
N -4.891631303 -3.390163905 1.428045094
H 6.268830312 2.480380661 0.240573569
H 5.366811441 -0.126009829 -1.684750839
H 5.913619210 -0.572874821 1.610315755
H 1.538349391 -2.058413188 2.158538211
H 1.121651533 -1.699309516 -1.149956172
H -1.694237680 1.409396993 2.840224558
H -6.392841566 1.428200959 -2.795388803
H -2.147383290 1.570159680 -0.456085079
H -4.353108245 -0.653516729 -4.245995413

