16

C -3.895780010 -1.425731729 -0.596532000
C -1.202563124 -0.542470866 -1.028854132
O -1.338358484 1.839658190 -2.211365467
C 0.259441709 -0.438691114 1.466014586
N 3.016514122 -0.537679012 1.199761964
C 4.459977209 1.365373215 0.502926968
O 3.388943804 3.515187883 -0.165131412
H -3.944580808 -3.361025141 0.117139795
H -4.936684699 -1.354977492 -2.371825060
H -4.851771726 -0.189012183 0.751481832
H -0.233585550 -1.900375071 -2.271761775
H 0.222258324 2.744379690 -1.929943522
H -0.258871333 1.288567470 2.472738967
H -0.264276762 -2.041275829 2.650268948
H 3.905964708 -2.151782723 1.654026519
H 5.646479909 3.224585989 -0.253035991

