15

O 4.908997527 1.531474076 1.066576977
C 3.556749764 -0.536542890 0.103081083
C 1.089697625 -0.875069278 1.552560887
O -0.465965417 1.364885515 1.392338643
C -2.400488558 -0.273808144 0.375106781
C -3.605708543 0.661065656 -2.041793161
C -0.796931371 -2.591348950 0.357660451
H 3.822816267 2.985412594 0.976090749
H 3.154145919 -0.296277271 -1.915935190
H 4.716030676 -2.223361845 0.335025198
H 1.500154473 -1.394539305 3.519446986
H -3.861483408 -0.644010953 1.821068765
H -4.524714123 2.473940587 -1.705502507
H -5.006884982 -0.701918889 -2.690672275
H -2.185150279 0.910937981 -3.512009836

