15

O 4.683972361 1.594025144 1.077907265
C 3.083205146 0.016753575 -0.348007541
C 0.859748305 -0.854806010 1.205682835
O -0.700239792 1.207135694 2.132728520
C -2.808367423 -0.068083544 1.056514904
C -2.863435440 0.262353267 -1.762932437
C -1.376621659 -2.339429693 0.123242250
H 3.668750373 2.941918658 1.749593881
H 2.428249542 0.980831164 -2.063858604
H 4.190292334 -1.624956087 -0.926353252
H 1.524545584 -1.955857374 2.830057567
H -4.556085864 -0.021044481 2.123598384
H -1.945427937 1.957261081 -2.456439683
H -4.652306523 -0.236239425 -2.627047861
H -1.625247294 -1.549895863 -2.424593753

