29

C     3.33449  -1.50899  -0.29886
N     2.40242  -0.41684  -0.50089
C     1.72702   0.09894   0.54932
O     2.01930  -0.14918   1.72608
C     0.68223   1.04981   0.21797
C    -0.04296   2.00314   0.02557
O    -0.95317   2.91903  -0.25080
C    -1.51170   3.59466   0.91041
C    -2.36771   0.23816  -0.30832
C    -2.14859   0.36607  -1.77164
O    -1.74586  -0.56463   0.46280
C    -0.85945  -1.57752   0.28415
C    -0.45670  -2.28535   1.54488
C    -0.30677  -1.86955  -0.95111
N     0.23716  -2.20419  -1.94462
H     3.84499  -1.72453  -1.24345
H     2.81596  -2.41831   0.04472
H     4.08684  -1.23732   0.45569
H     1.96191  -0.35077  -1.41540
H    -1.93183   4.51049   0.51380
H    -0.71995   3.79524   1.64535
H    -2.28361   2.94738   1.34115
H    -2.94652   0.98291   0.22991
H    -2.83051  -0.39606  -2.17959
H    -1.14241   0.17046  -2.17972
H    -2.48233   1.35456  -2.13726
H    -0.15891  -3.30390   1.27996
H     0.40869  -1.80199   2.05489
H    -1.29643  -2.30757   2.22786
29

C     3.33433  -1.50844  -0.29871
N     2.40345  -0.41531  -0.50149
C     1.72510   0.09942   0.54871
O     2.01881  -0.14872   1.72595
C     0.67560   1.04252   0.21732
C    -0.07078   1.97865   0.02393
O    -0.94765   2.91809  -0.24950
C    -1.51005   3.59270   0.90902
C    -2.34640   0.25557  -0.30654
C    -2.14765   0.36731  -1.77226
O    -1.74819  -0.56627   0.46407
C    -0.85441  -1.56826   0.28661
C    -0.45487  -2.28344   1.54314
C    -0.30544  -1.86658  -0.95110
N     0.23687  -2.20434  -1.94332
H     3.84502  -1.72453  -1.24334
H     2.81579  -2.41812   0.04475
H     4.08683  -1.23735   0.45578
H     1.96256  -0.35025  -1.41572
H    -1.93024   4.51058   0.51364
H    -0.72046   3.79389   1.64629
H    -2.28433   2.94769   1.33996
H    -2.94443   0.98443   0.22851
H    -2.83276  -0.39518  -2.17544
H    -1.14382   0.16892  -2.18267
H    -2.48154   1.35475  -2.13844
H    -0.15907  -3.30328   1.27863
H     0.40986  -1.80189   2.05393
H    -1.29573  -2.30602   2.22751
29

C     3.33417  -1.50790  -0.29856
N     2.40449  -0.41379  -0.50209
C     1.72317   0.09990   0.54809
O     2.01831  -0.14827   1.72581
C     0.66898   1.03524   0.21667
C    -0.09861   1.95416   0.02228
O    -0.94213   2.91714  -0.24820
C    -1.50840   3.59073   0.90764
C    -2.32509   0.27297  -0.30475
C    -2.14671   0.36856  -1.77287
O    -1.75052  -0.56791   0.46535
C    -0.84936  -1.55899   0.28907
C    -0.45303  -2.28153   1.54139
C    -0.30412  -1.86360  -0.95109
N     0.23658  -2.20449  -1.94202
H     3.84505  -1.72453  -1.24323
H     2.81563  -2.41792   0.04477
H     4.08682  -1.23739   0.45587
H     1.96321  -0.34972  -1.41604
H    -1.92864   4.51067   0.51347
H    -0.72097   3.79253   1.64723
H    -2.28505   2.94801   1.33877
H    -2.94234   0.98594   0.22710
H    -2.83502  -0.39430  -2.17128
H    -1.14523   0.16737  -2.18562
H    -2.48076   1.35493  -2.13963
H    -0.15922  -3.30266   1.27730
H     0.41103  -1.80180   2.05296
H    -1.29503  -2.30447   2.22717
29

C     3.33401  -1.50735  -0.29841
N     2.40552  -0.41226  -0.50270
C     1.72125   0.10039   0.54747
O     2.01782  -0.14781   1.72567
C     0.66235   1.02795   0.21602
C    -0.12643   1.92967   0.02063
O    -0.93660   2.91619  -0.24689
C    -1.50675   3.58877   0.90625
C    -2.30378   0.29038  -0.30296
C    -2.14576   0.36980  -1.77349
O    -1.75285  -0.56955   0.46662
C    -0.84432  -1.54973   0.29154
C    -0.45120  -2.27962   1.53964
C    -0.30279  -1.86062  -0.95108
N     0.23629  -2.20464  -1.94071
H     3.84508  -1.72453  -1.24312
H     2.81546  -2.41773   0.04480
H     4.08681  -1.23742   0.45595
H     1.96387  -0.34920  -1.41636
H    -1.92705   4.51076   0.51330
H    -0.72149   3.79117   1.64818
H    -2.28577   2.94832   1.33758
H    -2.94026   0.98746   0.22570
H    -2.83728  -0.39342  -2.16713
H    -1.14665   0.16583  -2.18857
H    -2.47998   1.35512  -2.14081
H    -0.15938  -3.30204   1.27597
H     0.41221  -1.80170   2.05200
H    -1.29434  -2.30292   2.22682
29

C     3.33386  -1.50680  -0.29826
N     2.40655  -0.41073  -0.50330
C     1.71932   0.10087   0.54685
O     2.01732  -0.14735   1.72554
C     0.65572   1.02067   0.21537
C    -0.15426   1.90518   0.01898
O    -0.93108   2.91524  -0.24559
C    -1.50510   3.58681   0.90486
C    -2.28247   0.30778  -0.30118
C    -2.14482   0.37104  -1.77410
O    -1.75518  -0.57118   0.46790
C    -0.83928  -1.54046   0.29400
C    -0.44936  -2.27771   1.53789
C    -0.30146  -1.85765  -0.95107
N     0.23599  -2.20479  -1.93941
H     3.84511  -1.72453  -1.24301
H     2.81530  -2.41753   0.04482
H     4.08680  -1.23746   0.45604
H     1.96452  -0.34867  -1.41668
H    -1.92545   4.51084   0.51313
H    -0.72200   3.78981   1.64912
H    -2.28649   2.94864   1.33638
H    -2.93817   0.98897   0.22430
H    -2.83953  -0.39254  -2.16298
H    -1.14806   0.16428  -2.19153
H    -2.47919   1.35531  -2.14200
H    -0.15954  -3.30142   1.27464
H     0.41338  -1.80161   2.05104
H    -1.29364  -2.30137   2.22648
29

C     3.33370  -1.50625  -0.29810
N     2.40758  -0.40920  -0.50390
C     1.71740   0.10135   0.54623
O     2.01683  -0.14690   1.72540
C     0.64910   1.01338   0.21472
C    -0.18208   1.88069   0.01733
O    -0.92556   2.91429  -0.24428
C    -1.50345   3.58485   0.90348
C    -2.26116   0.32519  -0.29939
C    -2.14388   0.37229  -1.77471
O    -1.75751  -0.57282   0.46917
C    -0.83424  -1.53119   0.29646
C    -0.44753  -2.27581   1.53615
C    -0.30013  -1.85467  -0.95106
N     0.23570  -2.20494  -1.93811
H     3.84514  -1.72453  -1.24290
H     2.81513  -2.41734   0.04484
H     4.08678  -1.23749   0.45613
H     1.96517  -0.34815  -1.41700
H    -1.92385   4.51093   0.51297
H    -0.72251   3.78845   1.65006
H    -2.28720   2.94895   1.33519
H    -2.93608   0.99049   0.22290
H    -2.84179  -0.39167  -2.15882
H    -1.14947   0.16274  -2.19448
H    -2.47841   1.35549  -2.14318
H    -0.15969  -3.30080   1.27331
H     0.41455  -1.80151   2.05007
H    -1.29294  -2.29982   2.22613
29

C     3.33354  -1.50570  -0.29795
N     2.40861  -0.40768  -0.50451
C     1.71547   0.10183   0.54561
O     2.01633  -0.14644   1.72526
C     0.64247   1.00610   0.21407
C    -0.20991   1.85620   0.01568
O    -0.92004   2.91335  -0.24298
C    -1.50180   3.58288   0.90209
C    -2.23986   0.34259  -0.29760
C    -2.14293   0.37353  -1.77533
O    -1.75983  -0.57446   0.47044
C    -0.82920  -1.52193   0.29893
C    -0.44570  -2.27390   1.53440
C    -0.29880  -1.85169  -0.95105
N     0.23541  -2.20509  -1.93681
H     3.84517  -1.72453  -1.24279
H     2.81497  -2.41714   0.04487
H     4.08677  -1.23753   0.45621
H     1.96582  -0.34762  -1.41732
H    -1.92226   4.51102   0.51280
H    -0.72303   3.78709   1.65100
H    -2.28792   2.94927   1.33400
H    -2.93399   0.99200   0.22149
H    -2.84405  -0.39079  -2.15467
H    -1.15089   0.16119  -2.19743
H    -2.47763   1.35568  -2.14437
H    -0.15985  -3.30018   1.27198
H     0.41572  -1.80142   2.04911
H    -1.29224  -2.29827   2.22578
29

C     3.33338  -1.50515  -0.29780
N     2.40965  -0.40615  -0.50511
C     1.71355   0.10231   0.54500
O     2.01584  -0.14598   1.72513
C     0.63584   0.99881   0.21342
C    -0.23774   1.83171   0.01403
O    -0.91452   2.91240  -0.24168
C    -1.50015   3.58092   0.90070
C    -2.21855   0.36000  -0.29582
C    -2.14199   0.37477  -1.77594
O    -1.76216  -0.57610   0.47172
C    -0.82416  -1.51266   0.30139
C    -0.44386  -2.27199   1.53265
C    -0.29748  -1.84871  -0.95104
N     0.23512  -2.20524  -1.93551
H     3.84520  -1.72453  -1.24268
H     2.81480  -2.41695   0.04489
H     4.08676  -1.23756   0.45630
H     1.96647  -0.34710  -1.41764
H    -1.92066   4.51111   0.51263
H    -0.72354   3.78574   1.65194
H    -2.28864   2.94958   1.33281
H    -2.93190   0.99352   0.22009
H    -2.84630  -0.38991  -2.15051
H    -1.15230   0.15965  -2.20039
H    -2.47685   1.35586  -2.14555
H    -0.16001  -3.29956   1.27065
H     0.41689  -1.80132   2.04814
H    -1.29155  -2.29672   2.22544
29

C     3.33322  -1.50460  -0.29765
N     2.41068  -0.40462  -0.50571
C     1.71162   0.10280   0.54438
O     2.01534  -0.14553   1.72499
C     0.62922   0.99153   0.21278
C    -0.26556   1.80722   0.01238
O    -0.90899   2.91145  -0.24037
C    -1.49850   3.57896   0.89932
C    -2.19724   0.37740  -0.29403
C    -2.14105   0.37602  -1.77656
O    -1.76449  -0.57774   0.47299
C    -0.81912  -1.50340   0.30385
C    -0.44203  -2.27008   1.53091
C    -0.29615  -1.84574  -0.95103
N     0.23483  -2.20539  -1.93421
H     3.84523  -1.72452  -1.24258
H     2.81464  -2.41675   0.04492
H     4.08675  -1.23760   0.45639
H     1.96712  -0.34658  -1.41796
H    -1.91907   4.51120   0.51247
H    -0.72405   3.78438   1.65288
H    -2.28936   2.94990   1.33161
H    -2.92981   0.99503   0.21869
H    -2.84856  -0.38903  -2.14636
H    -1.15371   0.15810  -2.20334
H    -2.47606   1.35605  -2.14674
H    -0.16016  -3.29894   1.26933
H     0.41807  -1.80123   2.04718
H    -1.29085  -2.29517   2.22509
29

C     3.33307  -1.50405  -0.29750
N     2.41171  -0.40309  -0.50632
C     1.70970   0.10328   0.54376
O     2.01485  -0.14507   1.72485
C     0.62259   0.98424   0.21213
C    -0.29339   1.78273   0.01073
O    -0.90347   2.91050  -0.23907
C    -1.49684   3.57700   0.89793
C    -2.17593   0.39481  -0.29224
C    -2.14010   0.37726  -1.77717
O    -1.76682  -0.57938   0.47426
C    -0.81408  -1.49413   0.30631
C    -0.44019  -2.26817   1.52916
C    -0.29482  -1.84276  -0.95102
N     0.23453  -2.20555  -1.93291
H     3.84525  -1.72452  -1.24247
H     2.81447  -2.41656   0.04494
H     4.08674  -1.23763   0.45647
H     1.96777  -0.34605  -1.41828
H    -1.91747   4.51129   0.51230
H    -0.72456   3.78302   1.65382
H    -2.29008   2.95021   1.33042
H    -2.92773   0.99654   0.21729
H    -2.85082  -0.38815  -2.14220
H    -1.15513   0.15656  -2.20629
H    -2.47528   1.35623  -2.14792
H    -0.16032  -3.29833   1.26800
H     0.41924  -1.80113   2.04622
H    -1.29015  -2.29362   2.22475
29

C     3.33291  -1.50350  -0.29735
N     2.41274  -0.40157  -0.50692
C     1.70777   0.10376   0.54314
O     2.01435  -0.14461   1.72472
C     0.61596   0.97696   0.21148
C    -0.32121   1.75824   0.00908
O    -0.89795   2.90956  -0.23776
C    -1.49519   3.57503   0.89654
C    -2.15462   0.41221  -0.29046
C    -2.13916   0.37850  -1.77778
O    -1.76915  -0.58102   0.47554
C    -0.80904  -1.48486   0.30878
C    -0.43836  -2.26627   1.52741
C    -0.29349  -1.83978  -0.95101
N     0.23424  -2.20570  -1.93161
H     3.84528  -1.72452  -1.24236
H     2.81431  -2.41636   0.04497
H     4.08673  -1.23767   0.45656
H     1.96842  -0.34553  -1.41860
H    -1.91588   4.51138   0.51213
H    -0.72508   3.78166   1.65476
H    -2.29079   2.95053   1.32923
H    -2.92564   0.99806   0.21589
H    -2.85307  -0.38727  -2.13805
H    -1.15654   0.15501  -2.20924
H    -2.47450   1.35642  -2.14911
H    -0.16047  -3.29771   1.26667
H     0.42041  -1.80104   2.04525
H    -1.28946  -2.29207   2.22440
29

C     3.33275  -1.50295  -0.29720
N     2.41377  -0.40004  -0.50752
C     1.70585   0.10424   0.54252
O     2.01386  -0.14416   1.72458
C     0.60934   0.96967   0.21083
C    -0.34904   1.73376   0.00744
O    -0.89243   2.90861  -0.23646
C    -1.49354   3.57307   0.89516
C    -2.13332   0.42962  -0.28867
C    -2.13822   0.37975  -1.77840
O    -1.77148  -0.58266   0.47681
C    -0.80400  -1.47560   0.31124
C    -0.43652  -2.26436   1.52567
C    -0.29217  -1.83680  -0.95100
N     0.23395  -2.20585  -1.93031
H     3.84531  -1.72452  -1.24225
H     2.81415  -2.41616   0.04499
H     4.08672  -1.23770   0.45665
H     1.96908  -0.34500  -1.41892
H    -1.91428   4.51147   0.51196
H    -0.72559   3.78030   1.65570
H    -2.29151   2.95085   1.32804
H    -2.92355   0.99957   0.21448
H    -2.85533  -0.38639  -2.13390
H    -1.15796   0.15347  -2.21220
H    -2.47371   1.35660  -2.15029
H    -0.16063  -3.29709   1.26534
H     0.42158  -1.80094   2.04429
H    -1.28876  -2.29051   2.22405
29

C     3.33259  -1.50240  -0.29705
N     2.41481  -0.39851  -0.50813
C     1.70392   0.10473   0.54191
O     2.01336  -0.14370   1.72444
C     0.60271   0.96239   0.21018
C    -0.37686   1.70927   0.00579
O    -0.88691   2.90766  -0.23516
C    -1.49189   3.57111   0.89377
C    -2.11201   0.44702  -0.28688
C    -2.13728   0.38099  -1.77901
O    -1.77381  -0.58430   0.47809
C    -0.79896  -1.46633   0.31370
C    -0.43469  -2.26245   1.52392
C    -0.29084  -1.83383  -0.95099
N     0.23366  -2.20600  -1.92901
H     3.84534  -1.72452  -1.24214
H     2.81398  -2.41597   0.04502
H     4.08671  -1.23774   0.45673
H     1.96973  -0.34448  -1.41924
H    -1.91268   4.51156   0.51180
H    -0.72610   3.77894   1.65664
H    -2.29223   2.95116   1.32684
H    -2.92146   1.00109   0.21308
H    -2.85759  -0.38551  -2.12974
H    -1.15937   0.15192  -2.21515
H    -2.47293   1.35679  -2.15148
H    -0.16079  -3.29647   1.26401
H     0.42276  -1.80085   2.04333
H    -1.28806  -2.28896   2.22371
29

C     3.33243  -1.50185  -0.29690
N     2.41584  -0.39698  -0.50873
C     1.70200   0.10521   0.54129
O     2.01286  -0.14324   1.72431
C     0.59608   0.95510   0.20953
C    -0.40469   1.68478   0.00414
O    -0.88138   2.90671  -0.23385
C    -1.49024   3.56915   0.89238
C    -2.09070   0.46443  -0.28510
C    -2.13633   0.38223  -1.77963
O    -1.77614  -0.58593   0.47936
C    -0.79392  -1.45706   0.31616
C    -0.43285  -2.26054   1.52217
C    -0.28951  -1.83085  -0.95098
N     0.23337  -2.20615  -1.92771
H     3.84537  -1.72452  -1.24203
H     2.81382  -2.41577   0.04504
H     4.08670  -1.23777   0.45682
H     1.97038  -0.34395  -1.41956
H    -1.91109   4.51165   0.51163
H    -0.72662   3.77758   1.65758
H    -2.29295   2.95148   1.32565
H    -2.91937   1.00260   0.21168
H    -2.85985  -0.38464  -2.12559
H    -1.16078   0.15038  -2.21810
H    -2.47215   1.35697  -2.15266
H    -0.16094  -3.29585   1.26268
H     0.42393  -1.80075   2.04236
H    -1.28736  -2.28741   2.22336
29

C     3.33227  -1.50130  -0.29675
N     2.41687  -0.39546  -0.50933
C     1.70007   0.10569   0.54067
O     2.01237  -0.14279   1.72417
C     0.58946   0.94782   0.20888
C    -0.43251   1.66029   0.00249
O    -0.87586   2.90576  -0.23255
C    -1.48859   3.56718   0.89100
C    -2.06939   0.48183  -0.28331
C    -2.13539   0.38348  -1.78024
O    -1.77846  -0.58757   0.48063
C    -0.78888  -1.44780   0.31863
C    -0.43102  -2.25863   1.52042
C    -0.28818  -1.82787  -0.95097
N     0.23308  -2.20630  -1.92641
H     3.84540  -1.72452  -1.24192
H     2.81365  -2.41558   0.04507
H     4.08669  -1.23781   0.45691
H     1.97103  -0.34343  -1.41988
H    -1.90949   4.51174   0.51146
H    -0.72713   3.77623   1.65852
H    -2.29367   2.95179   1.32446
H    -2.91728   1.00412   0.21028
H    -2.86210  -0.38376  -2.12143
H    -1.16220   0.14883  -2.22106
H    -2.47137   1.35716  -2.15385
H    -0.16110  -3.29523   1.26135
H     0.42510  -1.80065   2.04140
H    -1.28667  -2.28586   2.22302
29

C     3.33212  -1.50075  -0.29660
N     2.41790  -0.39393  -0.50994
C     1.69815   0.10617   0.54005
O     2.01187  -0.14233   1.72403
C     0.58283   0.94053   0.20823
C    -0.46034   1.63580   0.00084
O    -0.87034   2.90482  -0.23124
C    -1.48694   3.56522   0.88961
C    -2.04808   0.49923  -0.28152
C    -2.13445   0.38472  -1.78085
O    -1.78079  -0.58921   0.48191
C    -0.78384  -1.43853   0.32109
C    -0.42919  -2.25673   1.51868
C    -0.28686  -1.82490  -0.95096
N     0.23278  -2.20645  -1.92511
H     3.84543  -1.72452  -1.24181
H     2.81349  -2.41538   0.04509
H     4.08668  -1.23784   0.45699
H     1.97168  -0.34290  -1.42020
H    -1.90790   4.51182   0.51129
H    -0.72764   3.77487   1.65946
H    -2.29439   2.95211   1.32327
H    -2.91520   1.00563   0.20887
H    -2.86436  -0.38288  -2.11728
H    -1.16361   0.14729  -2.22401
H    -2.47058   1.35735  -2.15503
H    -0.16125  -3.29461   1.26002
H     0.42627  -1.80056   2.04044
H    -1.28597  -2.28431   2.22267
29

C     3.33196  -1.50020  -0.29645
N     2.41893  -0.39240  -0.51054
C     1.69622   0.10665   0.53943
O     2.01138  -0.14187   1.72390
C     0.57621   0.93325   0.20758
C    -0.48816   1.61131  -0.00081
O    -0.86482   2.90387  -0.22994
C    -1.48529   3.56326   0.88822
C    -2.02677   0.51664  -0.27974
C    -2.13350   0.38596  -1.78147
O    -1.78312  -0.59085   0.48318
C    -0.77879  -1.42927   0.32355
C    -0.42735  -2.25482   1.51693
C    -0.28553  -1.82192  -0.95095
N     0.23249  -2.20660  -1.92381
H     3.84546  -1.72451  -1.24171
H     2.81332  -2.41519   0.04512
H     4.08667  -1.23788   0.45708
H     1.97233  -0.34238  -1.42052
H    -1.90630   4.51191   0.51113
H    -0.72815   3.77351   1.66040
H    -2.29510   2.95242   1.32208
H    -2.91311   1.00715   0.20747
H    -2.86662  -0.38200  -2.11313
H    -1.16502   0.14574  -2.22696
H    -2.46980   1.35753  -2.15622
H    -0.16141  -3.29399   1.25869
H     0.42744  -1.80046   2.03947
H    -1.28527  -2.28276   2.22233
29

C     3.33180  -1.49965  -0.29630
N     2.41997  -0.39088  -0.51114
C     1.69430   0.10714   0.53881
O     2.01088  -0.14142   1.72376
C     0.56958   0.92596   0.20694
C    -0.51599   1.58682  -0.00246
O    -0.85930   2.90292  -0.22863
C    -1.48364   3.56129   0.88684
C    -2.00547   0.53404  -0.27795
C    -2.13256   0.38721  -1.78208
O    -1.78545  -0.59249   0.48445
C    -0.77375  -1.42000   0.32601
C    -0.42552  -2.25291   1.51518
C    -0.28420  -1.81894  -0.95094
N     0.23220  -2.20676  -1.92251
H     3.84549  -1.72451  -1.24160
H     2.81316  -2.41499   0.04514
H     4.08666  -1.23791   0.45717
H     1.97298  -0.34185  -1.42085
H    -1.90471   4.51200   0.51096
H    -0.72867   3.77215   1.66134
H    -2.29582   2.95274   1.32088
H    -2.91102   1.00866   0.20607
H    -2.86887  -0.38112  -2.10897
H    -1.16644   0.14420  -2.22991
H    -2.46902   1.35772  -2.15740
H    -0.16157  -3.29337   1.25736
H     0.42862  -1.80037   2.03851
H    -1.28457  -2.28121   2.22198
29

C     3.33164  -1.49910  -0.29615
N     2.42100  -0.38935  -0.51174
C     1.69237   0.10762   0.53820
O     2.01039  -0.14096   1.72362
C     0.56295   0.91868   0.20629
C    -0.54381   1.56233  -0.00411
O    -0.85377   2.90197  -0.22733
C    -1.48199   3.55933   0.88545
C    -1.98416   0.55145  -0.27617
C    -2.13162   0.38845  -1.78270
O    -1.78778  -0.59413   0.48573
C    -0.76871  -1.41073   0.32848
C    -0.42368  -2.25100   1.51344
C    -0.28287  -1.81596  -0.95093
N     0.23191  -2.20691  -1.92121
H     3.84551  -1.72451  -1.24149
H     2.81299  -2.41480   0.04516
H     4.08665  -1.23795   0.45725
H     1.97363  -0.34133  -1.42117
H    -1.90311   4.51209   0.51079
H    -0.72918   3.77079   1.66228
H    -2.29654   2.95305   1.31969
H    -2.90893   1.01017   0.20467
H    -2.87113  -0.38024  -2.10482
H    -1.16785   0.14265  -2.23287
H    -2.46823   1.35790  -2.15858
H    -0.16172  -3.29275   1.25603
H     0.42979  -1.80027   2.03755
H    -1.28388  -2.27966   2.22163
29

C     3.33148  -1.49855  -0.29600
N     2.42203  -0.38782  -0.51235
C     1.69045   0.10810   0.53758
O     2.00989  -0.14050   1.72349
C     0.55633   0.91139   0.20564
C    -0.57164   1.53784  -0.00576
O    -0.84825   2.90103  -0.22603
C    -1.48034   3.55737   0.88406
C    -1.96285   0.56885  -0.27438
C    -2.13067   0.38969  -1.78331
O    -1.79011  -0.59577   0.48700
C    -0.76367  -1.40147   0.33094
C    -0.42185  -2.24909   1.51169
C    -0.28154  -1.81299  -0.95092
N     0.23162  -2.20706  -1.91991
H     3.84554  -1.72451  -1.24138
H     2.81283  -2.41460   0.04519
H     4.08664  -1.23798   0.45734
H     1.97429  -0.34081  -1.42149
H    -1.90151   4.51218   0.51063
H    -0.72969   3.76943   1.66323
H    -2.29726   2.95337   1.31850
H    -2.90684   1.01169   0.20327
H    -2.87339  -0.37936  -2.10066
H    -1.16926   0.14111  -2.23582
H    -2.46745   1.35809  -2.15977
H    -0.16188  -3.29213   1.25470
H     0.43096  -1.80018   2.03658
H    -1.28318  -2.27811   2.22129
29

C     3.33133  -1.49800  -0.29585
N     2.42306  -0.38629  -0.51295
C     1.68852   0.10858   0.53696
O     2.00940  -0.14005   1.72335
C     0.54970   0.90410   0.20499
C    -0.59947   1.51335  -0.00741
O    -0.84273   2.90008  -0.22472
C    -1.47869   3.55541   0.88268
C    -1.94154   0.58626  -0.27259
C    -2.12973   0.39094  -1.78392
O    -1.79244  -0.59741   0.48827
C    -0.75863  -1.39220   0.33340
C    -0.42001  -2.24719   1.50994
C    -0.28022  -1.81001  -0.95091
N     0.23133  -2.20721  -1.91861
H     3.84557  -1.72451  -1.24127
H     2.81266  -2.41441   0.04521
H     4.08663  -1.23802   0.45743
H     1.97494  -0.34028  -1.42181
H    -1.89992   4.51227   0.51046
H    -0.73021   3.76808   1.66417
H    -2.29798   2.95368   1.31731
H    -2.90476   1.01320   0.20186
H    -2.87564  -0.37848  -2.09651
H    -1.17068   0.13956  -2.23877
H    -2.46667   1.35827  -2.16095
H    -0.16203  -3.29151   1.25337
H     0.43213  -1.80008   2.03562
H    -1.28248  -2.27656   2.22094
29

C     3.33148  -1.49855  -0.29600
N     2.42203  -0.38782  -0.51235
C     1.69045   0.10810   0.53758
O     2.00989  -0.14050   1.72349
C     0.55633   0.91139   0.20564
C    -0.57164   1.53784  -0.00576
O    -0.84825   2.90103  -0.22603
C    -1.48034   3.55737   0.88406
C    -1.96285   0.56885  -0.27438
C    -2.13067   0.38969  -1.78331
O    -1.79011  -0.59577   0.48700
C    -0.76367  -1.40147   0.33094
C    -0.42185  -2.24909   1.51169
C    -0.28154  -1.81299  -0.95092
N     0.23162  -2.20706  -1.91991
H     3.84554  -1.72451  -1.24138
H     2.81283  -2.41460   0.04519
H     4.08664  -1.23798   0.45734
H     1.97429  -0.34081  -1.42149
H    -1.90151   4.51218   0.51063
H    -0.72969   3.76943   1.66323
H    -2.29726   2.95337   1.31850
H    -2.90684   1.01169   0.20327
H    -2.87339  -0.37936  -2.10066
H    -1.16926   0.14111  -2.23582
H    -2.46745   1.35809  -2.15977
H    -0.16188  -3.29213   1.25470
H     0.43096  -1.80018   2.03658
H    -1.28318  -2.27811   2.22129
29

C     3.33164  -1.49910  -0.29615
N     2.42100  -0.38935  -0.51174
C     1.69237   0.10762   0.53820
O     2.01039  -0.14096   1.72362
C     0.56295   0.91868   0.20629
C    -0.54381   1.56233  -0.00411
O    -0.85377   2.90197  -0.22733
C    -1.48199   3.55933   0.88545
C    -1.98416   0.55145  -0.27617
C    -2.13162   0.38845  -1.78270
O    -1.78778  -0.59413   0.48573
C    -0.76871  -1.41073   0.32848
C    -0.42368  -2.25100   1.51344
C    -0.28287  -1.81596  -0.95093
N     0.23191  -2.20691  -1.92121
H     3.84551  -1.72451  -1.24149
H     2.81299  -2.41480   0.04516
H     4.08665  -1.23795   0.45725
H     1.97363  -0.34133  -1.42117
H    -1.90311   4.51209   0.51079
H    -0.72918   3.77079   1.66228
H    -2.29654   2.95305   1.31969
H    -2.90893   1.01017   0.20467
H    -2.87113  -0.38024  -2.10482
H    -1.16785   0.14265  -2.23287
H    -2.46823   1.35790  -2.15858
H    -0.16172  -3.29275   1.25603
H     0.42979  -1.80027   2.03755
H    -1.28388  -2.27966   2.22163
29

C     3.33180  -1.49965  -0.29630
N     2.41997  -0.39088  -0.51114
C     1.69430   0.10714   0.53881
O     2.01088  -0.14142   1.72376
C     0.56958   0.92596   0.20694
C    -0.51599   1.58682  -0.00246
O    -0.85930   2.90292  -0.22863
C    -1.48364   3.56129   0.88684
C    -2.00547   0.53404  -0.27795
C    -2.13256   0.38721  -1.78208
O    -1.78545  -0.59249   0.48445
C    -0.77375  -1.42000   0.32601
C    -0.42552  -2.25291   1.51518
C    -0.28420  -1.81894  -0.95094
N     0.23220  -2.20676  -1.92251
H     3.84549  -1.72451  -1.24160
H     2.81316  -2.41499   0.04514
H     4.08666  -1.23791   0.45717
H     1.97298  -0.34185  -1.42085
H    -1.90471   4.51200   0.51096
H    -0.72867   3.77215   1.66134
H    -2.29582   2.95274   1.32088
H    -2.91102   1.00866   0.20607
H    -2.86887  -0.38112  -2.10897
H    -1.16644   0.14420  -2.22991
H    -2.46902   1.35772  -2.15740
H    -0.16157  -3.29337   1.25736
H     0.42862  -1.80037   2.03851
H    -1.28457  -2.28121   2.22198
29

C     3.33196  -1.50020  -0.29645
N     2.41893  -0.39240  -0.51054
C     1.69622   0.10665   0.53943
O     2.01138  -0.14187   1.72390
C     0.57621   0.93325   0.20758
C    -0.48816   1.61131  -0.00081
O    -0.86482   2.90387  -0.22994
C    -1.48529   3.56326   0.88822
C    -2.02677   0.51664  -0.27974
C    -2.13350   0.38596  -1.78147
O    -1.78312  -0.59085   0.48318
C    -0.77879  -1.42927   0.32355
C    -0.42735  -2.25482   1.51693
C    -0.28553  -1.82192  -0.95095
N     0.23249  -2.20660  -1.92381
H     3.84546  -1.72451  -1.24171
H     2.81332  -2.41519   0.04512
H     4.08667  -1.23788   0.45708
H     1.97233  -0.34238  -1.42052
H    -1.90630   4.51191   0.51113
H    -0.72815   3.77351   1.66040
H    -2.29510   2.95242   1.32208
H    -2.91311   1.00715   0.20747
H    -2.86662  -0.38200  -2.11313
H    -1.16502   0.14574  -2.22696
H    -2.46980   1.35753  -2.15622
H    -0.16141  -3.29399   1.25869
H     0.42744  -1.80046   2.03947
H    -1.28527  -2.28276   2.22233
29

C     3.33212  -1.50075  -0.29660
N     2.41790  -0.39393  -0.50994
C     1.69815   0.10617   0.54005
O     2.01187  -0.14233   1.72403
C     0.58283   0.94053   0.20823
C    -0.46034   1.63580   0.00084
O    -0.87034   2.90482  -0.23124
C    -1.48694   3.56522   0.88961
C    -2.04808   0.49923  -0.28152
C    -2.13445   0.38472  -1.78085
O    -1.78079  -0.58921   0.48191
C    -0.78384  -1.43853   0.32109
C    -0.42919  -2.25673   1.51868
C    -0.28686  -1.82490  -0.95096
N     0.23278  -2.20645  -1.92511
H     3.84543  -1.72452  -1.24181
H     2.81349  -2.41538   0.04509
H     4.08668  -1.23784   0.45699
H     1.97168  -0.34290  -1.42020
H    -1.90790   4.51182   0.51129
H    -0.72764   3.77487   1.65946
H    -2.29439   2.95211   1.32327
H    -2.91520   1.00563   0.20887
H    -2.86436  -0.38288  -2.11728
H    -1.16361   0.14729  -2.22401
H    -2.47058   1.35735  -2.15503
H    -0.16125  -3.29461   1.26002
H     0.42627  -1.80056   2.04044
H    -1.28597  -2.28431   2.22267
29

C     3.33227  -1.50130  -0.29675
N     2.41687  -0.39546  -0.50933
C     1.70007   0.10569   0.54067
O     2.01237  -0.14279   1.72417
C     0.58946   0.94782   0.20888
C    -0.43251   1.66029   0.00249
O    -0.87586   2.90576  -0.23255
C    -1.48859   3.56718   0.89100
C    -2.06939   0.48183  -0.28331
C    -2.13539   0.38348  -1.78024
O    -1.77846  -0.58757   0.48063
C    -0.78888  -1.44780   0.31863
C    -0.43102  -2.25863   1.52042
C    -0.28818  -1.82787  -0.95097
N     0.23308  -2.20630  -1.92641
H     3.84540  -1.72452  -1.24192
H     2.81365  -2.41558   0.04507
H     4.08669  -1.23781   0.45691
H     1.97103  -0.34343  -1.41988
H    -1.90949   4.51174   0.51146
H    -0.72713   3.77623   1.65852
H    -2.29367   2.95179   1.32446
H    -2.91728   1.00412   0.21028
H    -2.86210  -0.38376  -2.12143
H    -1.16220   0.14883  -2.22106
H    -2.47137   1.35716  -2.15385
H    -0.16110  -3.29523   1.26135
H     0.42510  -1.80065   2.04140
H    -1.28667  -2.28586   2.22302
29

C     3.33243  -1.50185  -0.29690
N     2.41584  -0.39698  -0.50873
C     1.70200   0.10521   0.54129
O     2.01286  -0.14324   1.72431
C     0.59608   0.95510   0.20953
C    -0.40469   1.68478   0.00414
O    -0.88138   2.90671  -0.23385
C    -1.49024   3.56915   0.89238
C    -2.09070   0.46443  -0.28510
C    -2.13633   0.38223  -1.77963
O    -1.77614  -0.58593   0.47936
C    -0.79392  -1.45706   0.31616
C    -0.43285  -2.26054   1.52217
C    -0.28951  -1.83085  -0.95098
N     0.23337  -2.20615  -1.92771
H     3.84537  -1.72452  -1.24203
H     2.81382  -2.41577   0.04504
H     4.08670  -1.23777   0.45682
H     1.97038  -0.34395  -1.41956
H    -1.91109   4.51165   0.51163
H    -0.72662   3.77758   1.65758
H    -2.29295   2.95148   1.32565
H    -2.91937   1.00260   0.21168
H    -2.85985  -0.38464  -2.12559
H    -1.16078   0.15038  -2.21810
H    -2.47215   1.35697  -2.15266
H    -0.16094  -3.29585   1.26268
H     0.42393  -1.80075   2.04236
H    -1.28736  -2.28741   2.22336
29

C     3.33259  -1.50240  -0.29705
N     2.41481  -0.39851  -0.50813
C     1.70392   0.10473   0.54191
O     2.01336  -0.14370   1.72444
C     0.60271   0.96239   0.21018
C    -0.37686   1.70927   0.00579
O    -0.88691   2.90766  -0.23516
C    -1.49189   3.57111   0.89377
C    -2.11201   0.44702  -0.28688
C    -2.13728   0.38099  -1.77901
O    -1.77381  -0.58430   0.47809
C    -0.79896  -1.46633   0.31370
C    -0.43469  -2.26245   1.52392
C    -0.29084  -1.83383  -0.95099
N     0.23366  -2.20600  -1.92901
H     3.84534  -1.72452  -1.24214
H     2.81398  -2.41597   0.04502
H     4.08671  -1.23774   0.45673
H     1.96973  -0.34448  -1.41924
H    -1.91268   4.51156   0.51180
H    -0.72610   3.77894   1.65664
H    -2.29223   2.95116   1.32684
H    -2.92146   1.00109   0.21308
H    -2.85759  -0.38551  -2.12974
H    -1.15937   0.15192  -2.21515
H    -2.47293   1.35679  -2.15148
H    -0.16079  -3.29647   1.26401
H     0.42276  -1.80085   2.04333
H    -1.28806  -2.28896   2.22371
29

C     3.33275  -1.50295  -0.29720
N     2.41377  -0.40004  -0.50752
C     1.70585   0.10424   0.54252
O     2.01386  -0.14416   1.72458
C     0.60934   0.96967   0.21083
C    -0.34904   1.73376   0.00744
O    -0.89243   2.90861  -0.23646
C    -1.49354   3.57307   0.89516
C    -2.13332   0.42962  -0.28867
C    -2.13822   0.37975  -1.77840
O    -1.77148  -0.58266   0.47681
C    -0.80400  -1.47560   0.31124
C    -0.43652  -2.26436   1.52567
C    -0.29217  -1.83680  -0.95100
N     0.23395  -2.20585  -1.93031
H     3.84531  -1.72452  -1.24225
H     2.81415  -2.41616   0.04499
H     4.08672  -1.23770   0.45665
H     1.96908  -0.34500  -1.41892
H    -1.91428   4.51147   0.51196
H    -0.72559   3.78030   1.65570
H    -2.29151   2.95085   1.32804
H    -2.92355   0.99957   0.21448
H    -2.85533  -0.38639  -2.13390
H    -1.15796   0.15347  -2.21220
H    -2.47371   1.35660  -2.15029
H    -0.16063  -3.29709   1.26534
H     0.42158  -1.80094   2.04429
H    -1.28876  -2.29051   2.22405
29

C     3.33291  -1.50350  -0.29735
N     2.41274  -0.40157  -0.50692
C     1.70777   0.10376   0.54314
O     2.01435  -0.14461   1.72472
C     0.61596   0.97696   0.21148
C    -0.32121   1.75824   0.00908
O    -0.89795   2.90956  -0.23776
C    -1.49519   3.57503   0.89654
C    -2.15462   0.41221  -0.29046
C    -2.13916   0.37850  -1.77778
O    -1.76915  -0.58102   0.47554
C    -0.80904  -1.48486   0.30878
C    -0.43836  -2.26627   1.52741
C    -0.29349  -1.83978  -0.95101
N     0.23424  -2.20570  -1.93161
H     3.84528  -1.72452  -1.24236
H     2.81431  -2.41636   0.04497
H     4.08673  -1.23767   0.45656
H     1.96842  -0.34553  -1.41860
H    -1.91588   4.51138   0.51213
H    -0.72508   3.78166   1.65476
H    -2.29079   2.95053   1.32923
H    -2.92564   0.99806   0.21589
H    -2.85307  -0.38727  -2.13805
H    -1.15654   0.15501  -2.20924
H    -2.47450   1.35642  -2.14911
H    -0.16047  -3.29771   1.26667
H     0.42041  -1.80104   2.04525
H    -1.28946  -2.29207   2.22440
29

C     3.33307  -1.50405  -0.29750
N     2.41171  -0.40309  -0.50632
C     1.70970   0.10328   0.54376
O     2.01485  -0.14507   1.72485
C     0.62259   0.98424   0.21213
C    -0.29339   1.78273   0.01073
O    -0.90347   2.91050  -0.23907
C    -1.49684   3.57700   0.89793
C    -2.17593   0.39481  -0.29224
C    -2.14010   0.37726  -1.77717
O    -1.76682  -0.57938   0.47426
C    -0.81408  -1.49413   0.30631
C    -0.44019  -2.26817   1.52916
C    -0.29482  -1.84276  -0.95102
N     0.23453  -2.20555  -1.93291
H     3.84525  -1.72452  -1.24247
H     2.81447  -2.41656   0.04494
H     4.08674  -1.23763   0.45647
H     1.96777  -0.34605  -1.41828
H    -1.91747   4.51129   0.51230
H    -0.72456   3.78302   1.65382
H    -2.29008   2.95021   1.33042
H    -2.92773   0.99654   0.21729
H    -2.85082  -0.38815  -2.14220
H    -1.15513   0.15656  -2.20629
H    -2.47528   1.35623  -2.14792
H    -0.16032  -3.29833   1.26800
H     0.41924  -1.80113   2.04622
H    -1.29015  -2.29362   2.22475
29

C     3.33322  -1.50460  -0.29765
N     2.41068  -0.40462  -0.50571
C     1.71162   0.10280   0.54438
O     2.01534  -0.14553   1.72499
C     0.62922   0.99153   0.21278
C    -0.26556   1.80722   0.01238
O    -0.90899   2.91145  -0.24037
C    -1.49850   3.57896   0.89932
C    -2.19724   0.37740  -0.29403
C    -2.14105   0.37602  -1.77656
O    -1.76449  -0.57774   0.47299
C    -0.81912  -1.50340   0.30385
C    -0.44203  -2.27008   1.53091
C    -0.29615  -1.84574  -0.95103
N     0.23483  -2.20539  -1.93421
H     3.84523  -1.72452  -1.24258
H     2.81464  -2.41675   0.04492
H     4.08675  -1.23760   0.45639
H     1.96712  -0.34658  -1.41796
H    -1.91907   4.51120   0.51247
H    -0.72405   3.78438   1.65288
H    -2.28936   2.94990   1.33161
H    -2.92981   0.99503   0.21869
H    -2.84856  -0.38903  -2.14636
H    -1.15371   0.15810  -2.20334
H    -2.47606   1.35605  -2.14674
H    -0.16016  -3.29894   1.26933
H     0.41807  -1.80123   2.04718
H    -1.29085  -2.29517   2.22509
29

C     3.33338  -1.50515  -0.29780
N     2.40965  -0.40615  -0.50511
C     1.71355   0.10231   0.54500
O     2.01584  -0.14598   1.72513
C     0.63584   0.99881   0.21342
C    -0.23774   1.83171   0.01403
O    -0.91452   2.91240  -0.24168
C    -1.50015   3.58092   0.90070
C    -2.21855   0.36000  -0.29582
C    -2.14199   0.37477  -1.77594
O    -1.76216  -0.57610   0.47172
C    -0.82416  -1.51266   0.30139
C    -0.44386  -2.27199   1.53265
C    -0.29748  -1.84871  -0.95104
N     0.23512  -2.20524  -1.93551
H     3.84520  -1.72453  -1.24268
H     2.81480  -2.41695   0.04489
H     4.08676  -1.23756   0.45630
H     1.96647  -0.34710  -1.41764
H    -1.92066   4.51111   0.51263
H    -0.72354   3.78574   1.65194
H    -2.28864   2.94958   1.33281
H    -2.93190   0.99352   0.22009
H    -2.84630  -0.38991  -2.15051
H    -1.15230   0.15965  -2.20039
H    -2.47685   1.35586  -2.14555
H    -0.16001  -3.29956   1.27065
H     0.41689  -1.80132   2.04814
H    -1.29155  -2.29672   2.22544
29

C     3.33354  -1.50570  -0.29795
N     2.40861  -0.40768  -0.50451
C     1.71547   0.10183   0.54561
O     2.01633  -0.14644   1.72526
C     0.64247   1.00610   0.21407
C    -0.20991   1.85620   0.01568
O    -0.92004   2.91335  -0.24298
C    -1.50180   3.58288   0.90209
C    -2.23986   0.34259  -0.29760
C    -2.14293   0.37353  -1.77533
O    -1.75983  -0.57446   0.47044
C    -0.82920  -1.52193   0.29893
C    -0.44570  -2.27390   1.53440
C    -0.29880  -1.85169  -0.95105
N     0.23541  -2.20509  -1.93681
H     3.84517  -1.72453  -1.24279
H     2.81497  -2.41714   0.04487
H     4.08677  -1.23753   0.45621
H     1.96582  -0.34762  -1.41732
H    -1.92226   4.51102   0.51280
H    -0.72303   3.78709   1.65100
H    -2.28792   2.94927   1.33400
H    -2.93399   0.99200   0.22149
H    -2.84405  -0.39079  -2.15467
H    -1.15089   0.16119  -2.19743
H    -2.47763   1.35568  -2.14437
H    -0.15985  -3.30018   1.27198
H     0.41572  -1.80142   2.04911
H    -1.29224  -2.29827   2.22578
29

C     3.33370  -1.50625  -0.29810
N     2.40758  -0.40920  -0.50390
C     1.71740   0.10135   0.54623
O     2.01683  -0.14690   1.72540
C     0.64910   1.01338   0.21472
C    -0.18208   1.88069   0.01733
O    -0.92556   2.91429  -0.24428
C    -1.50345   3.58485   0.90348
C    -2.26116   0.32519  -0.29939
C    -2.14388   0.37229  -1.77471
O    -1.75751  -0.57282   0.46917
C    -0.83424  -1.53119   0.29646
C    -0.44753  -2.27581   1.53615
C    -0.30013  -1.85467  -0.95106
N     0.23570  -2.20494  -1.93811
H     3.84514  -1.72453  -1.24290
H     2.81513  -2.41734   0.04484
H     4.08678  -1.23749   0.45613
H     1.96517  -0.34815  -1.41700
H    -1.92385   4.51093   0.51297
H    -0.72251   3.78845   1.65006
H    -2.28720   2.94895   1.33519
H    -2.93608   0.99049   0.22290
H    -2.84179  -0.39167  -2.15882
H    -1.14947   0.16274  -2.19448
H    -2.47841   1.35549  -2.14318
H    -0.15969  -3.30080   1.27331
H     0.41455  -1.80151   2.05007
H    -1.29294  -2.29982   2.22613
29

C     3.33386  -1.50680  -0.29826
N     2.40655  -0.41073  -0.50330
C     1.71932   0.10087   0.54685
O     2.01732  -0.14735   1.72554
C     0.65572   1.02067   0.21537
C    -0.15426   1.90518   0.01898
O    -0.93108   2.91524  -0.24559
C    -1.50510   3.58681   0.90486
C    -2.28247   0.30778  -0.30118
C    -2.14482   0.37104  -1.77410
O    -1.75518  -0.57118   0.46790
C    -0.83928  -1.54046   0.29400
C    -0.44936  -2.27771   1.53789
C    -0.30146  -1.85765  -0.95107
N     0.23599  -2.20479  -1.93941
H     3.84511  -1.72453  -1.24301
H     2.81530  -2.41753   0.04482
H     4.08680  -1.23746   0.45604
H     1.96452  -0.34867  -1.41668
H    -1.92545   4.51084   0.51313
H    -0.72200   3.78981   1.64912
H    -2.28649   2.94864   1.33638
H    -2.93817   0.98897   0.22430
H    -2.83953  -0.39254  -2.16298
H    -1.14806   0.16428  -2.19153
H    -2.47919   1.35531  -2.14200
H    -0.15954  -3.30142   1.27464
H     0.41338  -1.80161   2.05104
H    -1.29364  -2.30137   2.22648
29

C     3.33401  -1.50735  -0.29841
N     2.40552  -0.41226  -0.50270
C     1.72125   0.10039   0.54747
O     2.01782  -0.14781   1.72567
C     0.66235   1.02795   0.21602
C    -0.12643   1.92967   0.02063
O    -0.93660   2.91619  -0.24689
C    -1.50675   3.58877   0.90625
C    -2.30378   0.29038  -0.30296
C    -2.14576   0.36980  -1.77349
O    -1.75285  -0.56955   0.46662
C    -0.84432  -1.54973   0.29154
C    -0.45120  -2.27962   1.53964
C    -0.30279  -1.86062  -0.95108
N     0.23629  -2.20464  -1.94071
H     3.84508  -1.72453  -1.24312
H     2.81546  -2.41773   0.04480
H     4.08681  -1.23742   0.45595
H     1.96387  -0.34920  -1.41636
H    -1.92705   4.51076   0.51330
H    -0.72149   3.79117   1.64818
H    -2.28577   2.94832   1.33758
H    -2.94026   0.98746   0.22570
H    -2.83728  -0.39342  -2.16713
H    -1.14665   0.16583  -2.18857
H    -2.47998   1.35512  -2.14081
H    -0.15938  -3.30204   1.27597
H     0.41221  -1.80170   2.05200
H    -1.29434  -2.30292   2.22682
29

C     3.33417  -1.50790  -0.29856
N     2.40449  -0.41379  -0.50209
C     1.72317   0.09990   0.54809
O     2.01831  -0.14827   1.72581
C     0.66898   1.03524   0.21667
C    -0.09861   1.95416   0.02228
O    -0.94213   2.91714  -0.24820
C    -1.50840   3.59073   0.90764
C    -2.32509   0.27297  -0.30475
C    -2.14671   0.36856  -1.77287
O    -1.75052  -0.56791   0.46535
C    -0.84936  -1.55899   0.28907
C    -0.45303  -2.28153   1.54139
C    -0.30412  -1.86360  -0.95109
N     0.23658  -2.20449  -1.94202
H     3.84505  -1.72453  -1.24323
H     2.81563  -2.41792   0.04477
H     4.08682  -1.23739   0.45587
H     1.96321  -0.34972  -1.41604
H    -1.92864   4.51067   0.51347
H    -0.72097   3.79253   1.64723
H    -2.28505   2.94801   1.33877
H    -2.94234   0.98594   0.22710
H    -2.83502  -0.39430  -2.17128
H    -1.14523   0.16737  -2.18562
H    -2.48076   1.35493  -2.13963
H    -0.15922  -3.30266   1.27730
H     0.41103  -1.80180   2.05296
H    -1.29503  -2.30447   2.22717
29

C     3.33433  -1.50844  -0.29871
N     2.40345  -0.41531  -0.50149
C     1.72510   0.09942   0.54871
O     2.01881  -0.14872   1.72595
C     0.67560   1.04252   0.21732
C    -0.07078   1.97865   0.02393
O    -0.94765   2.91809  -0.24950
C    -1.51005   3.59270   0.90902
C    -2.34640   0.25557  -0.30654
C    -2.14765   0.36731  -1.77226
O    -1.74819  -0.56627   0.46407
C    -0.85441  -1.56826   0.28661
C    -0.45487  -2.28344   1.54314
C    -0.30544  -1.86658  -0.95110
N     0.23687  -2.20434  -1.94332
H     3.84502  -1.72453  -1.24334
H     2.81579  -2.41812   0.04475
H     4.08683  -1.23735   0.45578
H     1.96256  -0.35025  -1.41572
H    -1.93024   4.51058   0.51364
H    -0.72046   3.79389   1.64629
H    -2.28433   2.94769   1.33996
H    -2.94443   0.98443   0.22851
H    -2.83276  -0.39518  -2.17544
H    -1.14382   0.16892  -2.18267
H    -2.48154   1.35475  -2.13844
H    -0.15907  -3.30328   1.27863
H     0.40986  -1.80189   2.05393
H    -1.29573  -2.30602   2.22751
