10

N 3.849471289 -0.765108685 -0.010604406
C 1.567734670 -0.166844997 0.002696753
C -0.636890144 -1.897665639 0.404234906
C -2.921194409 -0.537273798 0.726942435
C -2.021558710 2.145302115 0.026437987
O -3.245644303 4.003816578 -0.161650329
O 0.596337302 2.207936937 -0.298072889
H 4.995709122 0.758744314 -0.258593524
H -0.325513961 -3.814777750 1.059119778
H -1.746409012 -2.105701090 -1.492823753

