13

C -3.034749942 0.119988897 0.039092727
C -0.723043854 -1.307537316 0.882314564
C 0.769150790 -0.614469299 -1.521631872
C 2.961861769 0.212312261 0.095788441
N 0.908652395 0.842716921 1.949434289
C -0.922921377 1.782656775 -1.083788111
H -4.118544592 -0.846253563 -1.424851665
H -4.276219881 0.968570886 1.447125716
H -0.659563361 -3.077428027 1.962548403
H 0.776084271 -1.607369767 -3.327248271
H 4.044998907 1.858871357 -0.522695714
H 4.217989596 -1.253534764 0.827221866
H 0.085333361 2.785536281 0.828415739

