14

C -2.088214604 1.624566992 -1.006498464
C -2.656921200 -0.448663746 0.860045937
C -0.021558468 0.008246595 -0.001210577
C 1.741454509 -1.759107745 -1.412744133
O 3.832090854 -0.953340090 0.121239424
C 2.277635611 0.764385317 1.537228689
H -2.659544064 1.349134874 -2.952712981
H -2.194859616 3.561815817 -0.354070009
H -3.149492940 0.086480576 2.773385191
H -3.608712773 -2.125118480 0.172344251
H 1.359331874 -3.779872694 -1.187842384
H 2.045200412 -1.327691604 -3.413068954
H 2.221633558 0.274634200 3.546478876
H 2.901956808 2.724529988 1.317425157

