15

C 3.530734112 0.283551364 0.446678306
C 0.724941385 0.170414066 0.135726385
C -1.122674650 1.873075200 1.481553748
C -3.402520163 -1.324741628 0.621433866
O -3.066297993 1.067248586 -1.274179133
C -0.778807366 -0.058343574 -2.242968736
C -0.846720212 -2.166419427 -0.372674646
H 4.088960249 -0.259697975 2.358253708
H 4.446566314 -1.022753397 -0.860726219
H 4.267215374 2.174597954 0.065887928
H -1.088343353 3.857991251 0.947460699
H -1.551511654 1.562542326 3.456012527
H -4.984697462 -2.380652386 -0.188502165
H -0.214706015 0.232608108 -4.188122096
H -0.054672933 -4.043038695 -0.514889236

