14

C -1.193103136 2.606006554 -1.270060872
C 0.127621369 0.621924685 0.303358188
C 2.980349602 0.756184586 0.265724614
N -2.031585181 -3.959313226 0.438278227
C -1.151368308 -1.657571210 1.037477897
N -1.109260996 -0.082728959 2.814316602
H -3.239227663 2.430548885 -1.111862639
H -0.675322543 2.449569375 -3.264581646
H -0.654031944 4.495172677 -0.630419722
H 3.719791441 0.538350073 -1.651703214
H 3.806307695 -0.708523576 1.455721418
H 3.614231472 2.590743936 0.973769976
H -1.396559422 -4.808008220 -1.130473002
H -2.714866439 -5.063964140 1.824596733

