14

C -1.341059848 2.326138455 -1.322364598
C 0.167243370 0.468977924 0.124308358
C 2.948758219 0.460249034 -0.162837738
N -1.403932548 -3.145841026 0.192876673
C -1.024079285 -1.046707962 2.095317329
N -1.492807917 -0.729792822 4.312728691
H -3.334865814 1.823639700 -1.371481113
H -0.608366996 2.638810556 -3.222045120
H -1.190013925 4.113825643 -0.284407523
H 3.538955479 0.748246016 -2.115645850
H 3.796674476 -1.239177683 0.625035136
H 3.645605008 2.068085922 0.944042109
H -0.398368043 -4.743665143 0.503977107
H -3.220760522 -3.534395249 -0.265355248

