16

C 4.279119401 0.211811861 -0.153808135
C 1.474416951 0.552749843 -0.097788074
C 0.242238814 2.719568512 -0.572415977
C -2.610563874 2.196884439 -0.733836401
C -2.840177145 -1.218769982 0.659191803
C -0.092874030 -1.927629023 0.409363793
H 4.822214142 -1.124602397 -1.636826402
H 5.216036808 2.006487483 -0.512619278
H 4.977489819 -0.560742420 1.633307278
H -1.592637915 1.299431468 0.980357183
H -3.950839580 3.518905920 0.081375897
H -3.107737287 1.593845053 -2.622981114
H -3.627046517 -1.266476969 2.558304689
H -4.139376441 -2.021175549 -0.700903105
H 0.204217959 -3.205312067 -1.187064498
H 0.631609947 -2.862634934 2.099907436

