12

C -4.510004268 -0.439037519 0.918245363
O -2.287914568 -1.013729180 0.094447775
C -0.093124305 -0.105902973 0.689008866
C 2.095890331 -1.290955442 -0.481211293
H 1.671844274 -2.379372002 -2.171358661
C 4.643678676 -0.277131605 -0.181069570
H 4.923526006 1.396077240 0.980351023
H 6.029829487 -0.540952547 -1.674018196
O 3.930646118 -2.484399050 1.146028358
H 0.018212708 1.290320494 2.183765412
H -6.046378102 -1.447276421 0.049031798
H -4.718623948 1.004875775 2.350081890

