14

C -4.492233756 -0.112707820 0.771698462
O -2.313271575 -1.125871953 0.208767664
C -0.162490293 0.062059192 0.486580761
C 2.079195376 -1.275268069 -0.428090128
C 4.582795952 -0.139238044 -0.234215245
O 3.881230498 -2.120226319 1.416608925
H -6.093498366 -1.279061316 0.285720826
H -4.584001219 1.222694320 2.321206950
H -3.348787615 2.605558859 -1.283782684
H -0.003954271 1.416334442 2.019381217
H -1.825038664 2.690858224 -1.397020421
H 1.720548639 -2.627373196 -1.931364199
H 4.773744745 1.710222287 0.641430494
H 6.014948479 -0.601989094 -1.630321303

