12

O 3.642208508 -0.818609024 1.749967801
C 1.888346001 -2.245729059 0.742768059
C 0.227104338 -0.622549636 -0.840360225
C -2.636430635 -1.033750545 -0.587527228
O -3.029956670 1.602633584 -0.097885848
C -0.378934213 2.150984975 -0.203736703
H 4.744001533 -1.877512428 2.738892946
H 0.915748581 -0.922482091 -2.770494609
H -3.629012570 -1.666379167 -2.283477359
H -3.189421247 -2.213241606 1.016969342
H 0.351476549 2.815694137 1.611104810
H 0.063094459 3.538936979 -1.666881362

