13

C 3.796691125 0.725705344 0.893022735
C 1.087837983 1.069205926 0.088076525
C -0.598459483 -1.261686362 0.382567514
N -3.223374920 -0.619101226 0.686361001
C -4.467378151 -0.164738916 -1.287485508
O 0.303155251 3.013181817 -0.781932312
H 4.948772804 2.272977020 0.184450800
H 3.881335529 0.701313799 2.956866391
H 4.538181464 -1.082591556 0.229346006
H -3.682162421 -0.320497437 -3.198691790
H -0.235734604 -2.412017324 -1.314588602
H 0.039682283 -2.361779881 2.007025942
H -6.434588168 0.409693040 -1.118154028

