13

C -2.900375769 0.073839064 0.078167066
C -0.703606622 -1.594881417 0.798284207
C 1.107452944 -0.023424176 -2.113971779
C 3.035253308 0.241840290 0.067013619
N 0.839167373 0.558687683 1.792238196
C -0.607680175 1.712872420 -0.449097930
H -4.035512426 -0.503943357 -1.540230349
H -4.062205884 0.667068862 1.674046277
H -0.668862628 -3.455611017 1.693816894
H 0.117803032 -2.103724890 -1.549456180
H 4.147225834 1.974454906 -0.081508801
H 4.282975633 -1.343213096 0.505725595
H -0.587505383 3.749974544 -0.736147064

