8

O -4.616861761 0.733622730 0.380599874
C -2.732800847 -0.140479311 -0.512323064
N -0.332108066 0.371214984 0.435172784
C 1.729921548 -0.653810222 -0.627432764
O 3.719978675 0.159885287 0.656851302
H -2.664034469 -1.419688725 -2.147604066
H -0.237079956 1.547458608 1.953737460
H 5.198231449 -0.570681378 -0.098856185

