8

O -4.564856007 0.523168467 0.168554424
C -2.557193549 -0.256972120 -0.513952783
N -0.284674409 0.519681582 0.549789889
C 1.970710054 -0.358696777 -0.218738728
O 3.976379796 0.483951566 0.892536470
H -2.275301005 -1.650775472 -2.029997169
H -0.342298055 1.809941906 1.974850803
H 4.098532278 -1.057501926 -0.805428789

