13

O 3.936420725 2.805016863 -2.226413658
C 3.176744851 1.607053748 -0.462867344
C 1.404511560 -0.608248019 -0.775284161
O 0.886943486 -1.902560086 1.540825159
C -1.772645440 -1.757515802 1.225892039
C -2.808129242 1.773267066 0.304055705
C -1.422686889 0.021696097 -1.199176470
H 3.708665206 2.060916206 1.512565401
H 2.162774693 -1.890119036 -2.209925590
H -2.676531265 -3.525856635 0.678540823
H -2.761084737 -0.995593629 2.885096162
H -1.531996509 2.662636109 1.692804946
H -2.280980577 -0.671245762 -2.928996918

