15

C     2.08175   0.98185   1.00856
C     1.45368  -0.15137   0.25113
O     2.08297  -1.12230  -0.13490
N     0.06690   0.02604   0.03389
C    -1.22412   1.29387   0.42006
C    -2.36460   0.63077  -0.20383
N    -1.78812  -0.76136  -0.82118
N    -0.54461  -0.95405  -0.63742
H     1.94379   1.90207   0.44337
H     1.58764   1.07841   1.97336
H     3.16451   0.78690   1.15484
H    -1.22573   1.36574   1.53329
H    -0.85428   2.22878  -0.06272
H    -2.83613   1.15281  -1.10797
H    -3.20896   0.28878   0.49089
15

C     2.08336   0.97939   1.00757
C     1.45972  -0.15619   0.24991
O     2.08977  -1.12694  -0.13592
N     0.07513   0.01977   0.03258
C    -1.24398   1.31024   0.42431
C    -2.37900   0.65192  -0.19576
N    -1.77635  -0.78469  -0.83110
N    -0.54562  -0.94756  -0.63414
H     1.94363   1.90108   0.44280
H     1.58749   1.07742   1.97277
H     3.16505   0.78714   1.15509
H    -1.22756   1.36683   1.53362
H    -0.85603   2.22998  -0.06262
H    -2.83741   1.15279  -1.10855
H    -3.21033   0.28853   0.49070
15

C     2.08496   0.97693   1.00659
C     1.46576  -0.16101   0.24870
O     2.09657  -1.13157  -0.13693
N     0.08336   0.01351   0.03126
C    -1.26384   1.32660   0.42857
C    -2.39339   0.67306  -0.18768
N    -1.76458  -0.80803  -0.84102
N    -0.54663  -0.94107  -0.63086
H     1.94347   1.90008   0.44223
H     1.58734   1.07643   1.97219
H     3.16558   0.78739   1.15533
H    -1.22939   1.36793   1.53395
H    -0.85778   2.23118  -0.06252
H    -2.83870   1.15277  -1.10913
H    -3.21171   0.28827   0.49051
15

C     2.08657   0.97446   1.00561
C     1.47181  -0.16583   0.24748
O     2.10337  -1.13621  -0.13794
N     0.09159   0.00724   0.02994
C    -1.28370   1.34297   0.43282
C    -2.40779   0.69421  -0.17960
N    -1.75282  -0.83137  -0.85094
N    -0.54763  -0.93458  -0.62759
H     1.94331   1.89909   0.44166
H     1.58718   1.07544   1.97161
H     3.16611   0.78764   1.15558
H    -1.23122   1.36902   1.53428
H    -0.85954   2.23239  -0.06242
H    -2.83999   1.15276  -1.10970
H    -3.21308   0.28802   0.49031
15

C     2.08817   0.97200   1.00462
C     1.47785  -0.17065   0.24627
O     2.11018  -1.14085  -0.13895
N     0.09982   0.00097   0.02862
C    -1.30356   1.35934   0.43707
C    -2.42219   0.71535  -0.17152
N    -1.74105  -0.85470  -0.86086
N    -0.54864  -0.92809  -0.62431
H     1.94316   1.89810   0.44108
H     1.58703   1.07445   1.97102
H     3.16664   0.78789   1.15582
H    -1.23305   1.37012   1.53460
H    -0.86129   2.23359  -0.06232
H    -2.84128   1.15274  -1.11028
H    -3.21446   0.28777   0.49012
15

C     2.08977   0.96953   1.00364
C     1.48389  -0.17547   0.24505
O     2.11698  -1.14548  -0.13996
N     0.10805  -0.00530   0.02730
C    -1.32342   1.37570   0.44132
C    -2.43659   0.73650  -0.16345
N    -1.72928  -0.87804  -0.87078
N    -0.54965  -0.92160  -0.62104
H     1.94300   1.89710   0.44051
H     1.58688   1.07346   1.97044
H     3.16717   0.78813   1.15607
H    -1.23488   1.37121   1.53493
H    -0.86304   2.23479  -0.06222
H    -2.84257   1.15272  -1.11085
H    -3.21583   0.28751   0.48992
15

C     2.09138   0.96707   1.00266
C     1.48993  -0.18029   0.24383
O     2.12378  -1.15012  -0.14097
N     0.11627  -0.01157   0.02598
C    -1.34328   1.39207   0.44557
C    -2.45099   0.75764  -0.15537
N    -1.71751  -0.90138  -0.88070
N    -0.55066  -0.91511  -0.61776
H     1.94284   1.89611   0.43994
H     1.58672   1.07247   1.96986
H     3.16771   0.78838   1.15631
H    -1.23671   1.37231   1.53526
H    -0.86480   2.23600  -0.06212
H    -2.84386   1.15270  -1.11143
H    -3.21721   0.28726   0.48973
15

C     2.09298   0.96460   1.00167
C     1.49597  -0.18511   0.24262
O     2.13058  -1.15475  -0.14198
N     0.12450  -0.01783   0.02466
C    -1.36314   1.40844   0.44982
C    -2.46538   0.77879  -0.14729
N    -1.70574  -0.92471  -0.89062
N    -0.55167  -0.90862  -0.61448
H     1.94268   1.89512   0.43937
H     1.58657   1.07148   1.96927
H     3.16824   0.78863   1.15656
H    -1.23854   1.37340   1.53558
H    -0.86655   2.23720  -0.06203
H    -2.84515   1.15269  -1.11201
H    -3.21858   0.28701   0.48954
15

C     2.09459   0.96214   1.00069
C     1.50201  -0.18993   0.24140
O     2.13739  -1.15939  -0.14300
N     0.13273  -0.02410   0.02334
C    -1.38300   1.42481   0.45407
C    -2.47978   0.79993  -0.13922
N    -1.69397  -0.94805  -0.90054
N    -0.55267  -0.90212  -0.61121
H     1.94252   1.89412   0.43880
H     1.58642   1.07049   1.96869
H     3.16877   0.78887   1.15681
H    -1.24037   1.37450   1.53591
H    -0.86830   2.23840  -0.06193
H    -2.84643   1.15267  -1.11258
H    -3.21996   0.28676   0.48934
15

C     2.09619   0.95967   0.99971
C     1.50805  -0.19475   0.24019
O     2.14419  -1.16403  -0.14401
N     0.14096  -0.03037   0.02202
C    -1.40286   1.44117   0.45832
C    -2.49418   0.82108  -0.13114
N    -1.68220  -0.97139  -0.91046
N    -0.55368  -0.89563  -0.60793
H     1.94236   1.89313   0.43823
H     1.58627   1.06950   1.96811
H     3.16930   0.78912   1.15705
H    -1.24220   1.37559   1.53624
H    -0.87006   2.23960  -0.06183
H    -2.84772   1.15265  -1.11316
H    -3.22133   0.28650   0.48915
15

C     2.09779   0.95721   0.99872
C     1.51409  -0.19957   0.23897
O     2.15099  -1.16866  -0.14502
N     0.14919  -0.03664   0.02071
C    -1.42272   1.45754   0.46258
C    -2.50858   0.84222  -0.12306
N    -1.67043  -0.99472  -0.92038
N    -0.55469  -0.88914  -0.60466
H     1.94220   1.89214   0.43766
H     1.58611   1.06851   1.96752
H     3.16983   0.78937   1.15730
H    -1.24403   1.37669   1.53656
H    -0.87181   2.24081  -0.06173
H    -2.84901   1.15263  -1.11374
H    -3.22271   0.28625   0.48896
15

C     2.09940   0.95474   0.99774
C     1.52013  -0.20439   0.23776
O     2.15780  -1.17330  -0.14603
N     0.15742  -0.04290   0.01939
C    -1.44258   1.47391   0.46683
C    -2.52297   0.86337  -0.11499
N    -1.65866  -1.01806  -0.93030
N    -0.55570  -0.88265  -0.60138
H     1.94204   1.89115   0.43709
H     1.58596   1.06752   1.96694
H     3.17037   0.78961   1.15754
H    -1.24586   1.37778   1.53689
H    -0.87356   2.24201  -0.06163
H    -2.85030   1.15262  -1.11431
H    -3.22408   0.28600   0.48876
15

C     2.10100   0.95228   0.99676
C     1.52617  -0.20921   0.23654
O     2.16460  -1.17793  -0.14704
N     0.16565  -0.04917   0.01807
C    -1.46244   1.49027   0.47108
C    -2.53737   0.88451  -0.10691
N    -1.64690  -1.04140  -0.94022
N    -0.55671  -0.87616  -0.59811
H     1.94188   1.89015   0.43652
H     1.58581   1.06653   1.96636
H     3.17090   0.78986   1.15779
H    -1.24769   1.37888   1.53722
H    -0.87531   2.24321  -0.06153
H    -2.85159   1.15260  -1.11489
H    -3.22546   0.28574   0.48857
15

C     2.10261   0.94981   0.99578
C     1.53221  -0.21403   0.23532
O     2.17140  -1.18257  -0.14805
N     0.17388  -0.05544   0.01675
C    -1.48230   1.50664   0.47533
C    -2.55177   0.90566  -0.09883
N    -1.63513  -1.06473  -0.95014
N    -0.55771  -0.86967  -0.59483
H     1.94173   1.88916   0.43595
H     1.58566   1.06554   1.96577
H     3.17143   0.79011   1.15803
H    -1.24952   1.37997   1.53754
H    -0.87707   2.24442  -0.06143
H    -2.85288   1.15258  -1.11547
H    -3.22683   0.28549   0.48837
15

C     2.10421   0.94735   0.99479
C     1.53825  -0.21885   0.23411
O     2.17820  -1.18721  -0.14906
N     0.18211  -0.06171   0.01543
C    -1.50216   1.52301   0.47958
C    -2.56617   0.92680  -0.09076
N    -1.62336  -1.08807  -0.96006
N    -0.55872  -0.86318  -0.59155
H     1.94157   1.88817   0.43538
H     1.58550   1.06455   1.96519
H     3.17196   0.79036   1.15828
H    -1.25134   1.38107   1.53787
H    -0.87882   2.24562  -0.06133
H    -2.85417   1.15256  -1.11604
H    -3.22821   0.28524   0.48818
15

C     2.10581   0.94488   0.99381
C     1.54429  -0.22367   0.23289
O     2.18501  -1.19184  -0.15008
N     0.19034  -0.06798   0.01411
C    -1.52202   1.53937   0.48383
C    -2.58056   0.94795  -0.08268
N    -1.61159  -1.11141  -0.96998
N    -0.55973  -0.85669  -0.58828
H     1.94141   1.88717   0.43481
H     1.58535   1.06356   1.96460
H     3.17250   0.79060   1.15852
H    -1.25317   1.38216   1.53820
H    -0.88057   2.24682  -0.06124
H    -2.85545   1.15254  -1.11662
H    -3.22958   0.28498   0.48799
15

C     2.10742   0.94242   0.99283
C     1.55033  -0.22849   0.23168
O     2.19181  -1.19648  -0.15109
N     0.19857  -0.07424   0.01279
C    -1.54188   1.55574   0.48808
C    -2.59496   0.96909  -0.07460
N    -1.59982  -1.13474  -0.97990
N    -0.56074  -0.85020  -0.58500
H     1.94125   1.88618   0.43424
H     1.58520   1.06257   1.96402
H     3.17303   0.79085   1.15877
H    -1.25500   1.38326   1.53852
H    -0.88233   2.24802  -0.06114
H    -2.85674   1.15253  -1.11720
H    -3.23095   0.28473   0.48779
15

C     2.10902   0.93996   0.99184
C     1.55637  -0.23331   0.23046
O     2.19861  -1.20111  -0.15210
N     0.20680  -0.08051   0.01147
C    -1.56174   1.57211   0.49233
C    -2.60936   0.99024  -0.06653
N    -1.58805  -1.15808  -0.98982
N    -0.56175  -0.84371  -0.58173
H     1.94109   1.88519   0.43367
H     1.58505   1.06158   1.96344
H     3.17356   0.79110   1.15902
H    -1.25683   1.38435   1.53885
H    -0.88408   2.24923  -0.06104
H    -2.85803   1.15251  -1.11777
H    -3.23233   0.28448   0.48760
15

C     2.11063   0.93749   0.99086
C     1.56241  -0.23813   0.22925
O     2.20541  -1.20575  -0.15311
N     0.21503  -0.08678   0.01015
C    -1.58160   1.58847   0.49659
C    -2.62376   1.01138  -0.05845
N    -1.57628  -1.18142  -0.99974
N    -0.56275  -0.83722  -0.57845
H     1.94093   1.88419   0.43310
H     1.58489   1.06059   1.96285
H     3.17409   0.79134   1.15926
H    -1.25866   1.38545   1.53918
H    -0.88583   2.25043  -0.06094
H    -2.85932   1.15249  -1.11835
H    -3.23370   0.28423   0.48741
15

C     2.11223   0.93503   0.98988
C     1.56845  -0.24295   0.22803
O     2.21222  -1.21039  -0.15412
N     0.22326  -0.09305   0.00884
C    -1.60146   1.60484   0.50084
C    -2.63815   1.03253  -0.05037
N    -1.56451  -1.20475  -1.00966
N    -0.56376  -0.83072  -0.57517
H     1.94077   1.88320   0.43252
H     1.58474   1.05960   1.96227
H     3.17462   0.79159   1.15951
H    -1.26049   1.38654   1.53950
H    -0.88759   2.25163  -0.06084
H    -2.86061   1.15247  -1.11893
H    -3.23508   0.28397   0.48721
15

C     2.11383   0.93256   0.98889
C     1.57449  -0.24778   0.22682
O     2.21902  -1.21502  -0.15513
N     0.23149  -0.09932   0.00752
C    -1.62132   1.62121   0.50509
C    -2.65255   1.05367  -0.04230
N    -1.55275  -1.22809  -1.01958
N    -0.56477  -0.82423  -0.57190
H     1.94061   1.88221   0.43195
H     1.58459   1.05861   1.96169
H     3.17516   0.79184   1.15975
H    -1.26232   1.38764   1.53983
H    -0.88934   2.25284  -0.06074
H    -2.86190   1.15246  -1.11950
H    -3.23645   0.28372   0.48702
15

C     2.11223   0.93503   0.98988
C     1.56845  -0.24295   0.22803
O     2.21222  -1.21039  -0.15412
N     0.22326  -0.09305   0.00884
C    -1.60146   1.60484   0.50084
C    -2.63815   1.03253  -0.05037
N    -1.56451  -1.20475  -1.00966
N    -0.56376  -0.83072  -0.57517
H     1.94077   1.88320   0.43252
H     1.58474   1.05960   1.96227
H     3.17462   0.79159   1.15951
H    -1.26049   1.38654   1.53950
H    -0.88759   2.25163  -0.06084
H    -2.86061   1.15247  -1.11893
H    -3.23508   0.28397   0.48721
15

C     2.11063   0.93749   0.99086
C     1.56241  -0.23813   0.22925
O     2.20541  -1.20575  -0.15311
N     0.21503  -0.08678   0.01015
C    -1.58160   1.58847   0.49659
C    -2.62376   1.01138  -0.05845
N    -1.57628  -1.18142  -0.99974
N    -0.56275  -0.83722  -0.57845
H     1.94093   1.88419   0.43310
H     1.58489   1.06059   1.96285
H     3.17409   0.79134   1.15926
H    -1.25866   1.38545   1.53918
H    -0.88583   2.25043  -0.06094
H    -2.85932   1.15249  -1.11835
H    -3.23370   0.28423   0.48741
15

C     2.10902   0.93996   0.99184
C     1.55637  -0.23331   0.23046
O     2.19861  -1.20111  -0.15210
N     0.20680  -0.08051   0.01147
C    -1.56174   1.57211   0.49233
C    -2.60936   0.99024  -0.06653
N    -1.58805  -1.15808  -0.98982
N    -0.56175  -0.84371  -0.58173
H     1.94109   1.88519   0.43367
H     1.58505   1.06158   1.96344
H     3.17356   0.79110   1.15902
H    -1.25683   1.38435   1.53885
H    -0.88408   2.24923  -0.06104
H    -2.85803   1.15251  -1.11777
H    -3.23233   0.28448   0.48760
15

C     2.10742   0.94242   0.99283
C     1.55033  -0.22849   0.23168
O     2.19181  -1.19648  -0.15109
N     0.19857  -0.07424   0.01279
C    -1.54188   1.55574   0.48808
C    -2.59496   0.96909  -0.07460
N    -1.59982  -1.13474  -0.97990
N    -0.56074  -0.85020  -0.58500
H     1.94125   1.88618   0.43424
H     1.58520   1.06257   1.96402
H     3.17303   0.79085   1.15877
H    -1.25500   1.38326   1.53852
H    -0.88233   2.24802  -0.06114
H    -2.85674   1.15253  -1.11720
H    -3.23095   0.28473   0.48779
15

C     2.10581   0.94488   0.99381
C     1.54429  -0.22367   0.23289
O     2.18501  -1.19184  -0.15008
N     0.19034  -0.06798   0.01411
C    -1.52202   1.53937   0.48383
C    -2.58056   0.94795  -0.08268
N    -1.61159  -1.11141  -0.96998
N    -0.55973  -0.85669  -0.58828
H     1.94141   1.88717   0.43481
H     1.58535   1.06356   1.96460
H     3.17250   0.79060   1.15852
H    -1.25317   1.38216   1.53820
H    -0.88057   2.24682  -0.06124
H    -2.85545   1.15254  -1.11662
H    -3.22958   0.28498   0.48799
15

C     2.10421   0.94735   0.99479
C     1.53825  -0.21885   0.23411
O     2.17820  -1.18721  -0.14906
N     0.18211  -0.06171   0.01543
C    -1.50216   1.52301   0.47958
C    -2.56617   0.92680  -0.09076
N    -1.62336  -1.08807  -0.96006
N    -0.55872  -0.86318  -0.59155
H     1.94157   1.88817   0.43538
H     1.58550   1.06455   1.96519
H     3.17196   0.79036   1.15828
H    -1.25134   1.38107   1.53787
H    -0.87882   2.24562  -0.06133
H    -2.85417   1.15256  -1.11604
H    -3.22821   0.28524   0.48818
15

C     2.10261   0.94981   0.99578
C     1.53221  -0.21403   0.23532
O     2.17140  -1.18257  -0.14805
N     0.17388  -0.05544   0.01675
C    -1.48230   1.50664   0.47533
C    -2.55177   0.90566  -0.09883
N    -1.63513  -1.06473  -0.95014
N    -0.55771  -0.86967  -0.59483
H     1.94173   1.88916   0.43595
H     1.58566   1.06554   1.96577
H     3.17143   0.79011   1.15803
H    -1.24952   1.37997   1.53754
H    -0.87707   2.24442  -0.06143
H    -2.85288   1.15258  -1.11547
H    -3.22683   0.28549   0.48837
15

C     2.10100   0.95228   0.99676
C     1.52617  -0.20921   0.23654
O     2.16460  -1.17793  -0.14704
N     0.16565  -0.04917   0.01807
C    -1.46244   1.49027   0.47108
C    -2.53737   0.88451  -0.10691
N    -1.64690  -1.04140  -0.94022
N    -0.55671  -0.87616  -0.59811
H     1.94188   1.89015   0.43652
H     1.58581   1.06653   1.96636
H     3.17090   0.78986   1.15779
H    -1.24769   1.37888   1.53722
H    -0.87531   2.24321  -0.06153
H    -2.85159   1.15260  -1.11489
H    -3.22546   0.28574   0.48857
15

C     2.09940   0.95474   0.99774
C     1.52013  -0.20439   0.23776
O     2.15780  -1.17330  -0.14603
N     0.15742  -0.04290   0.01939
C    -1.44258   1.47391   0.46683
C    -2.52297   0.86337  -0.11499
N    -1.65866  -1.01806  -0.93030
N    -0.55570  -0.88265  -0.60138
H     1.94204   1.89115   0.43709
H     1.58596   1.06752   1.96694
H     3.17037   0.78961   1.15754
H    -1.24586   1.37778   1.53689
H    -0.87356   2.24201  -0.06163
H    -2.85030   1.15262  -1.11431
H    -3.22408   0.28600   0.48876
15

C     2.09779   0.95721   0.99872
C     1.51409  -0.19957   0.23897
O     2.15099  -1.16866  -0.14502
N     0.14919  -0.03664   0.02071
C    -1.42272   1.45754   0.46258
C    -2.50858   0.84222  -0.12306
N    -1.67043  -0.99472  -0.92038
N    -0.55469  -0.88914  -0.60466
H     1.94220   1.89214   0.43766
H     1.58611   1.06851   1.96752
H     3.16983   0.78937   1.15730
H    -1.24403   1.37669   1.53656
H    -0.87181   2.24081  -0.06173
H    -2.84901   1.15263  -1.11374
H    -3.22271   0.28625   0.48896
15

C     2.09619   0.95967   0.99971
C     1.50805  -0.19475   0.24019
O     2.14419  -1.16403  -0.14401
N     0.14096  -0.03037   0.02202
C    -1.40286   1.44117   0.45832
C    -2.49418   0.82108  -0.13114
N    -1.68220  -0.97139  -0.91046
N    -0.55368  -0.89563  -0.60793
H     1.94236   1.89313   0.43823
H     1.58627   1.06950   1.96811
H     3.16930   0.78912   1.15705
H    -1.24220   1.37559   1.53624
H    -0.87006   2.23960  -0.06183
H    -2.84772   1.15265  -1.11316
H    -3.22133   0.28650   0.48915
15

C     2.09459   0.96214   1.00069
C     1.50201  -0.18993   0.24140
O     2.13739  -1.15939  -0.14300
N     0.13273  -0.02410   0.02334
C    -1.38300   1.42481   0.45407
C    -2.47978   0.79993  -0.13922
N    -1.69397  -0.94805  -0.90054
N    -0.55267  -0.90212  -0.61121
H     1.94252   1.89412   0.43880
H     1.58642   1.07049   1.96869
H     3.16877   0.78887   1.15681
H    -1.24037   1.37450   1.53591
H    -0.86830   2.23840  -0.06193
H    -2.84643   1.15267  -1.11258
H    -3.21996   0.28676   0.48934
15

C     2.09298   0.96460   1.00167
C     1.49597  -0.18511   0.24262
O     2.13058  -1.15475  -0.14198
N     0.12450  -0.01783   0.02466
C    -1.36314   1.40844   0.44982
C    -2.46538   0.77879  -0.14729
N    -1.70574  -0.92471  -0.89062
N    -0.55167  -0.90862  -0.61448
H     1.94268   1.89512   0.43937
H     1.58657   1.07148   1.96927
H     3.16824   0.78863   1.15656
H    -1.23854   1.37340   1.53558
H    -0.86655   2.23720  -0.06203
H    -2.84515   1.15269  -1.11201
H    -3.21858   0.28701   0.48954
15

C     2.09138   0.96707   1.00266
C     1.48993  -0.18029   0.24383
O     2.12378  -1.15012  -0.14097
N     0.11627  -0.01157   0.02598
C    -1.34328   1.39207   0.44557
C    -2.45099   0.75764  -0.15537
N    -1.71751  -0.90138  -0.88070
N    -0.55066  -0.91511  -0.61776
H     1.94284   1.89611   0.43994
H     1.58672   1.07247   1.96986
H     3.16771   0.78838   1.15631
H    -1.23671   1.37231   1.53526
H    -0.86480   2.23600  -0.06212
H    -2.84386   1.15270  -1.11143
H    -3.21721   0.28726   0.48973
15

C     2.08977   0.96953   1.00364
C     1.48389  -0.17547   0.24505
O     2.11698  -1.14548  -0.13996
N     0.10805  -0.00530   0.02730
C    -1.32342   1.37570   0.44132
C    -2.43659   0.73650  -0.16345
N    -1.72928  -0.87804  -0.87078
N    -0.54965  -0.92160  -0.62104
H     1.94300   1.89710   0.44051
H     1.58688   1.07346   1.97044
H     3.16717   0.78813   1.15607
H    -1.23488   1.37121   1.53493
H    -0.86304   2.23479  -0.06222
H    -2.84257   1.15272  -1.11085
H    -3.21583   0.28751   0.48992
15

C     2.08817   0.97200   1.00462
C     1.47785  -0.17065   0.24627
O     2.11018  -1.14085  -0.13895
N     0.09982   0.00097   0.02862
C    -1.30356   1.35934   0.43707
C    -2.42219   0.71535  -0.17152
N    -1.74105  -0.85470  -0.86086
N    -0.54864  -0.92809  -0.62431
H     1.94316   1.89810   0.44108
H     1.58703   1.07445   1.97102
H     3.16664   0.78789   1.15582
H    -1.23305   1.37012   1.53460
H    -0.86129   2.23359  -0.06232
H    -2.84128   1.15274  -1.11028
H    -3.21446   0.28777   0.49012
15

C     2.08657   0.97446   1.00561
C     1.47181  -0.16583   0.24748
O     2.10337  -1.13621  -0.13794
N     0.09159   0.00724   0.02994
C    -1.28370   1.34297   0.43282
C    -2.40779   0.69421  -0.17960
N    -1.75282  -0.83137  -0.85094
N    -0.54763  -0.93458  -0.62759
H     1.94331   1.89909   0.44166
H     1.58718   1.07544   1.97161
H     3.16611   0.78764   1.15558
H    -1.23122   1.36902   1.53428
H    -0.85954   2.23239  -0.06242
H    -2.83999   1.15276  -1.10970
H    -3.21308   0.28802   0.49031
15

C     2.08496   0.97693   1.00659
C     1.46576  -0.16101   0.24870
O     2.09657  -1.13157  -0.13693
N     0.08336   0.01351   0.03126
C    -1.26384   1.32660   0.42857
C    -2.39339   0.67306  -0.18768
N    -1.76458  -0.80803  -0.84102
N    -0.54663  -0.94107  -0.63086
H     1.94347   1.90008   0.44223
H     1.58734   1.07643   1.97219
H     3.16558   0.78739   1.15533
H    -1.22939   1.36793   1.53395
H    -0.85778   2.23118  -0.06252
H    -2.83870   1.15277  -1.10913
H    -3.21171   0.28827   0.49051
15

C     2.08336   0.97939   1.00757
C     1.45972  -0.15619   0.24991
O     2.08977  -1.12694  -0.13592
N     0.07513   0.01977   0.03258
C    -1.24398   1.31024   0.42431
C    -2.37900   0.65192  -0.19576
N    -1.77635  -0.78469  -0.83110
N    -0.54562  -0.94756  -0.63414
H     1.94363   1.90108   0.44280
H     1.58749   1.07742   1.97277
H     3.16505   0.78714   1.15509
H    -1.22756   1.36683   1.53362
H    -0.85603   2.22998  -0.06262
H    -2.83741   1.15279  -1.10855
H    -3.21033   0.28853   0.49070
