13

O 3.684057873 0.996817775 0.384720252
C 1.539287318 0.969012798 -0.916712889
C 0.313188846 -2.776725206 -0.095809946
C -1.698593517 -1.107995522 0.127517169
N -1.726955661 0.789613255 1.984206062
C -0.595058448 2.456673272 0.018288127
H 3.306283404 1.867325273 1.951347769
H 1.845000672 0.672653230 -2.920143910
H 1.465421515 -3.221882585 1.527152178
H 0.395548704 -4.010691213 -1.721268020
H -3.185719179 -1.082229144 -1.298684006
H -3.476463030 1.382838197 2.458872157
H -1.868468350 3.048929766 -1.495635590

