16

C -4.215327822 -0.504833815 1.185515168
C -1.730812875 0.340706395 -0.073361360
O -1.606434428 2.802980494 -0.624484054
C 0.379691237 -0.054971661 1.787320675
C 2.592842061 -1.542943750 1.460146495
C 3.404871001 1.009432150 0.067826863
H -4.566925125 0.620963532 2.878888959
H -4.258307262 -2.518027822 1.658725417
H -5.724587884 -0.103934275 -0.157969312
H -1.387861429 -0.971376260 -1.691121465
H 1.759679122 2.369527342 -0.316559758
H 0.260881454 1.178461652 3.427835709
H 3.756001957 -1.955449363 3.095604320
H 2.452793173 -3.090627310 0.122715942
H 3.999605059 0.487725576 -1.828231753
H 4.835801972 1.984438537 1.161301559

