15

C -3.897750446 -0.993610154 0.035897634
H -5.076661361 -2.576667857 -0.558335325
H -4.074207100 -0.541198608 2.038223997
C -3.256053576 1.053418209 -1.817749253
H -3.961127703 2.669848022 -2.828144144
C -1.447706542 -0.489380882 -1.309673443
C 1.164382058 -1.412616935 -1.629805370
C 2.742383194 -1.268125396 0.778875774
H 4.610098129 -2.106570478 0.526629859
C 2.459701766 0.843965936 2.639295176
H 2.771469008 2.818396388 3.009183440
C 1.595978384 -1.311939414 3.362421384
H 0.657905297 -2.440274663 4.769204527
H 1.086296024 -3.384999454 -2.255741168
H 2.098126936 -0.341428630 -3.131006581

