17

C -3.891412116 -0.627927683 -0.209270482
C -2.413320649 1.475292631 -1.427780306
C -1.112201315 -0.575060195 -0.730323759
C 1.199314307 -1.962502085 -1.630044723
C 2.896117158 -1.200060390 0.542527653
C 2.721803491 1.456250542 1.566558542
C 1.104346593 -0.226320914 2.518904088
H -5.139833281 -1.791382982 -1.366830100
H -4.528888434 -0.427531393 1.732488004
H -2.639558301 2.527132598 -3.156336187
H -0.536315594 3.713960200 -0.279814828
H 0.899758966 -4.006619477 -1.623728389
H 1.804059605 -1.391650745 -3.522091488
H 4.564701408 -2.321426272 0.981590060
H 0.981942494 3.684824119 0.198238204
H 4.053621992 2.869246632 2.166590390
H 0.184983854 -0.759314237 4.256608663

