13

C -0.998195650 -2.709169066 0.473864662
H -1.818347030 -4.398465055 -0.372164761
H -1.159923835 -2.874003261 2.525994114
C -2.253638092 -0.284061212 -0.441661517
H -2.859295504 -0.458175343 -2.416768927
H -3.893375900 0.256933098 0.689475307
O -0.396100447 1.646370237 -0.248181946
C 2.022616900 0.568084724 0.200918667
H 2.583960008 0.938959369 2.162010186
H 3.394932762 1.476090776 -1.045126734
C 1.749597641 -2.257825801 -0.281307220
H 3.094474056 -3.383088809 0.799116140
H 2.021517987 -2.675687257 -2.285125427

