16

C -1.051611669 -2.111740749 0.729803215
C -2.468785377 -0.153307528 -0.760665996
C -1.223101442 3.431059393 0.748949958
O 0.183951383 1.870103341 -1.305006160
C 2.421901536 0.594777163 -0.580232073
C 1.672401422 -2.178363006 -0.192533745
H -1.991815574 -3.931512690 0.445628317
H -1.159543830 -1.663008330 2.739072451
H -2.611642530 -0.556419728 -2.775607773
H -4.277084336 0.380935717 0.007461716
H -0.182150059 3.066893106 2.505425711
H -0.896909561 5.401971478 0.211275765
H 3.151981105 1.447484291 1.155096964
H 3.819905616 0.814476760 -2.083858426
H 2.935296094 -3.134886208 1.124371038
H 1.775380384 -3.182077545 -1.994440932

