11

C -2.724782191 0.966538448 -0.065017804
C -0.047893729 -2.021386934 0.971551400
O 2.130776603 -0.629699963 1.258573303
C 3.485045051 0.100516082 -0.801071420
O 2.837802798 -0.107685136 -2.943970806
H -1.534149456 1.507321675 -1.637866412
H -4.526434152 0.213337834 -0.704684390
H -2.947602595 2.501818866 1.286840676
H -0.202895453 -2.665616075 -0.992239271
H -2.003935691 -0.692273103 1.472796247
H 5.279874213 0.918978425 -0.163091453

