12

O 4.226296926 1.429534142 -0.927525883
C 2.080765890 0.738563891 -0.945138244
C -0.443799724 2.057520935 -0.510584818
H -1.121782831 2.929559735 -2.255639388
H -0.537266598 3.415272205 1.034332505
C -1.615093739 -0.609248534 -0.153737327
O -3.755168021 -1.209171912 -1.600650902
H -5.207042524 -0.400702686 -0.878520693
H -1.911597437 -1.054173136 1.844680080
C 0.813183053 -1.833483623 -1.190871937
H 0.566451188 -2.340681806 -3.177884034
H 1.656928703 -3.411079111 -0.175119843

