9

C -0.795762972 2.642352564 -2.189083989
O -1.332033307 0.280542637 -2.736656209
C -2.648224850 -1.025119712 -0.743180322
H -4.453253676 -1.694859778 -1.488552027
H -1.515177607 -2.656671793 -0.180510570
C -2.890569942 0.925008825 1.239211830
H -3.800921333 0.601150661 3.040265051
C -1.813269941 3.040750200 0.389020116
H -1.665826025 4.822726560 1.372574981

