17

C -2.653978310 -1.377270572 -0.302872585
C -0.829467428 0.765233634 0.326132638
O -1.384096320 2.898178206 -1.308948280
C -0.687916207 1.312976269 3.026554691
C 1.853034106 0.087586028 -0.387426208
C 2.556737577 -1.885885615 -2.234729852
O 3.732987493 1.273038136 0.616356059
H -4.553358762 -0.743550746 0.168478948
H -2.621063155 -1.825226465 -2.315406890
H -2.246090602 -3.079345853 0.787696808
H -2.187645511 4.108332474 -0.210524958
H -0.157182336 3.218256181 3.600222271
H -1.867110770 0.270488311 4.324388093
H 4.596020633 -2.033144886 -2.439946795
H 1.798730010 -3.695193821 -1.592371861
H 1.665473951 -1.478219080 -4.050711890
H 2.982312158 2.160623183 2.084219156

