10

O -0.513323825 -2.357529641 0.765023345
C -1.292169477 0.088039335 1.426356057
C 0.919875459 1.654830503 0.315966176
C 1.443914372 -0.366083263 -1.521829386
N 1.549637840 -1.624558432 -3.378504730
H 0.191961687 -2.763903187 -1.905308485
H -3.102497946 0.647243670 0.577364338
H -1.418162998 0.326038284 3.474020332
H 2.468585689 1.819215530 1.661356918
H 0.544677424 3.465849780 -0.594709737

