21

C 3.092083609 -2.404643593 1.837157478
C 2.219719946 -1.437986433 -0.687028679
C 0.153455909 0.230559343 -0.907843384
C 1.414416730 4.084737183 -0.954108774
C -2.073921642 0.357228516 -2.579972648
C -2.382778839 0.387940327 0.277658234
C -3.390917604 -1.891949652 1.654098064
H 5.124520301 -2.763500770 1.855724188
H 2.701337946 -1.028969613 3.330914604
H 2.158283513 -4.168381469 2.397568459
H 2.293636130 1.315682168 -0.807184325
H 2.988331427 -2.223762599 -2.413697555
H 1.924173224 4.526765610 -2.901573307
H 2.985363726 4.492483956 0.329933048
H -0.255399849 5.123277163 -0.360296525
H -2.475946947 2.085271696 -3.588677084
H -2.519629384 -1.369542121 -3.588517307
H -2.944483658 2.192354746 1.052380391
H -2.854838339 -1.857207075 3.645956704
H -2.660466590 -3.634381149 0.829835943
H -5.451240342 -1.944287601 1.547062634

