11

C -2.677216140 -0.773019570 0.295577506
N -0.138761796 0.032978140 -0.241099177
C 1.086413168 2.395062984 -0.335388139
N 3.423161207 1.893755021 -0.254513209
C 2.840178203 -0.924599000 -0.030838781
N 1.457802007 -1.938281428 -1.800005764
H -3.777560595 -0.962073724 -1.441455214
H -2.617716072 -2.600188428 1.239812026
H -3.560821878 0.606614445 1.546179603
H 0.112487573 4.190267975 -0.487413431
H 3.846093063 -1.872487136 1.510295424

