12

C 3.355204331 0.047751357 -0.692167978
C 5.081976802 -0.087646386 -2.413380591
C 0.569846044 0.380779039 -1.143000412
C -1.225538962 -1.464779991 0.204425224
C -2.368004771 0.931322551 1.360122649
O -0.449942373 2.486191663 0.222321611
H 4.061177136 -0.092439619 1.242552318
H 0.213562541 0.569980384 -3.168099845
H -2.444093195 -2.572899290 -1.024232259
H -0.292863141 -2.708577392 1.550223353
H -2.339627509 1.068503288 3.418915465
H -4.249894220 1.427656566 0.667881936

