12

C 3.765706249 -0.342449876 -0.127016071
C 3.728093329 1.348774712 -1.766946121
C 0.585145455 0.442930374 -1.443785568
C -1.014852981 -1.355166710 0.275317714
C -2.254739708 1.097150006 1.163074198
O -0.732187861 2.564229661 -0.536701306
H 4.015697513 -1.716487202 1.332191987
H 0.282406020 0.080310318 -3.441229918
H -2.223330476 -2.588748177 -0.839714184
H -0.079990425 -2.457803403 1.728870218
H -1.894031318 1.613725974 3.129035313
H -4.266109355 1.299374625 0.752467173

