15

C 4.457706646 -2.751524064 -2.379954095
C 2.935239931 -1.161659435 -0.729678890
C 1.733768766 0.153495045 0.676739895
C 0.031836499 1.804068524 2.118201270
C -1.572638301 2.351754128 -0.128011465
C -3.704830820 0.497154875 -0.313449515
O -5.530301418 2.078619425 0.895217122
H 6.465810601 -2.411399421 -2.061890511
H 4.071223827 -4.748017995 -2.044331800
H 4.042737718 -2.333115872 -4.355725554
H 1.045871154 3.440408114 2.848436892
H -0.874771646 0.755985598 3.659281466
H -5.677100389 3.592337691 -0.106755655
H -4.248183829 0.009923519 -2.244501606
H -3.571300731 -1.222362578 0.831467816

