16

N 4.923086437 0.952936709 1.786326188
C 3.610695228 -0.514369184 0.874215878
C 1.884845434 -2.351227272 -0.248515766
C -0.841525166 -2.094276827 0.723558804
C -2.414791593 0.012589507 -0.468086011
C -1.426629935 2.695769490 -0.149815541
O 0.599017935 3.199892409 -1.830199846
H 2.107440186 3.514185951 -0.876058191
H 1.960979193 -2.118580632 -2.297477886
H 2.621443840 -4.226669694 0.196662966
H -0.797250054 -1.866301552 2.777192063
H -1.786897452 -3.892952772 0.360154077
H -2.637848591 -0.338662827 -2.494515566
H -4.309701293 -0.079051477 0.354818492
H -0.858584857 3.030008619 1.813473294
H -2.951031446 4.025157841 -0.579150375

