8

N 0.447559164 2.503960493 -0.110098449
C 1.588902569 0.458021368 -0.527002929
N 0.258183435 -1.846541328 -0.881584166
N -1.167847325 -2.720485520 1.670664858
C -2.269176630 -1.654684597 -0.079043993
H 1.663885692 3.984835300 0.000049643
H 3.625831745 0.232915699 -0.755974184
H -4.081963576 -0.964229165 -0.710099854

