8

N 0.882692792 1.738987868 -0.847336413
C 1.566751785 -0.042137075 0.652212232
N 0.180917617 -2.096814370 1.142216818
N -2.795780014 -1.616761668 0.967360762
C -2.410144378 -0.782569263 -1.080241077
H 1.964723742 3.317084492 -0.809147448
H 3.387562622 -0.142390618 1.622358602
H -2.766073670 -0.381580680 -3.032297946

