17

C 4.329877351 0.939784556 -1.459962342
O 2.786215014 1.751646936 0.554413595
C 0.144531678 -0.928009181 1.332850273
C -1.908820144 -1.067162452 3.169858594
C -2.392077822 -1.725578485 0.400352331
C -3.228097554 0.524268457 -1.094458620
O -1.599028270 2.347092967 -0.117332982
H 3.205873259 0.414611052 -3.115553421
H 5.426437422 -0.700107757 -0.846809785
H 5.650688991 2.437608146 -1.983087156
H 1.816359133 -2.086342339 1.442521322
H -1.721885110 -2.588587985 4.531651157
H -2.764520523 0.650696105 3.862496434
H -2.746133148 -3.669482415 -0.149733262
H -2.960911388 0.161562418 -3.127638125
H -5.218612656 1.048967054 -0.814563196
H 1.148055902 2.508795641 -0.110022935

