14

C 0.711984137 3.076192259 0.613843290
C -1.268308359 -0.123913310 -1.032773424
C -3.031080774 -1.799678691 0.412320666
O 1.305548927 -0.135228405 0.528163466
C 3.452674175 -1.131960481 -0.441681057
O 3.512983178 -2.555084123 -2.182805544
H 0.718699449 3.942947234 -1.232630235
H -0.983620230 3.464518657 1.677845874
H 2.422678743 3.453706154 1.711778892
H -0.729735695 -0.962650261 -2.838917472
H -2.323976439 -3.733748939 0.686789987
H -4.787118280 -1.925771687 -0.669010877
H -3.513568313 -1.028927000 2.270043315
H 5.116402869 -0.437084412 0.591220887

