15

O -4.637702360 -1.631025490 -0.888059690
C -3.311544325 -0.767925624 1.020031757
C 0.023113448 0.173558249 -0.287344649
C 2.101790132 -1.503866424 0.703117467
O 4.513771381 -0.656788185 -0.005307749
C 0.328266234 2.862104828 -0.770759590
O 0.373044901 1.105420694 -2.805638639
H -2.184173196 -0.883919036 -1.143445726
H -3.784577375 1.084265305 1.837750493
H -2.577505761 -2.104285043 2.439929391
H 2.050046048 -1.513245456 2.765613938
H 1.753112664 -3.445372727 0.057412828
H 4.549200004 -0.539069057 -1.818034394
H 2.142093757 3.721223476 -0.349951635
H -1.308085790 4.100213265 -0.734751652

