16

C 4.401570952 -0.196024844 -0.640164983
N 2.066818199 -0.939450528 -0.234743499
C 0.726215476 -2.330402717 1.401911240
C -3.069514118 0.750974308 1.289677779
C -1.357043662 2.319298573 -0.491091518
C -0.226362375 -0.129936699 -1.589980696
C -1.801127921 -1.716614588 0.303234638
H 5.877863645 -0.793294876 0.630370003
H -2.859391313 1.091199164 3.308538149
H 4.770942244 0.924651024 -2.299249164
H 1.424473342 -3.150771057 3.134879688
H -5.066713805 0.893093921 0.795703124
H 0.044967261 3.532576576 0.405757005
H -2.393969683 3.422515280 -1.885565817
H -0.146231543 -0.420907619 -3.623565151
H -3.041109305 -3.249656910 -0.289350404

