16

C 3.267483207 0.559374636 0.682154244
N 1.855895246 -1.242777554 -0.683720411
C 0.406730988 -2.766608727 0.726392392
C -1.853595090 0.613059771 1.403129187
C -1.457876708 2.137194718 -0.997076875
C -0.409489629 -0.303189984 -2.148341683
C -2.031344298 -1.817679371 -0.224875803
H 4.344483894 -0.314378334 2.204744528
H 0.795784930 1.120982211 1.956260925
H 4.414034622 1.803083580 -0.489244273
H 0.991576790 -3.572445886 2.516440585
H -3.173748652 1.027458834 2.908061096
H -0.255586592 3.813326289 -0.942292222
H -3.231601635 2.530091380 -1.982268564
H -0.293018646 -0.614439820 -4.173602707
H -3.730605626 -2.911132940 -0.594086808

