13

N 3.188400058 -1.618684275 2.646045675
C 1.625455976 -0.733169403 1.093537341
C 1.974928414 0.779259635 -1.247759609
C -0.306112105 -0.469713595 -2.338316210
C -1.158762901 -1.070286944 0.441782517
C -2.075205616 1.672070229 0.467458150
N -0.394915117 2.220815874 -1.733916259
H 3.683400399 1.421439594 -2.155206945
H -0.628518241 -1.320377230 -4.164842126
H -2.243640005 -2.662903071 1.145696654
H 2.319329432 -2.780471002 3.909615130
H -4.026419498 1.902366049 -0.147953046
H -1.715713812 2.802426710 2.158204334

