17

C -3.532790701 -0.538037418 1.020796113
C -1.346421795 0.131215061 -0.686567321
C 0.612923730 2.104512566 0.240727090
C 2.651515732 0.400571369 -0.815796147
C 4.995278907 0.774691430 -1.582812152
O -2.587116795 -1.235111994 3.426214494
C 0.836373564 -1.800919655 -0.996480364
H -3.975153477 -1.657579336 4.506101379
H -4.804647777 1.094334257 1.181531701
H -4.606476696 -2.101625990 0.177655080
H -2.098282895 0.674297688 -2.530892643
H 0.483597205 4.019075096 -0.510301737
H 0.671314397 2.174115337 2.302913324
H 6.085886209 -0.732937194 -2.439771599
H 5.902079276 2.601319958 -1.388338055
H 0.967890509 -3.034062743 0.653473662
H 0.882089800 -2.938609917 -2.713945216

