13

N -2.880840309 -2.845276835 -3.015609170
C -1.223372316 -0.979046261 -2.846706356
O -1.506414096 0.101644929 -0.588883258
C 0.213519834 2.122155975 -0.057142880
C 2.527183734 1.116282746 1.280434675
O 1.939836824 -0.009818469 3.624637154
H -2.952998386 -3.852540752 -4.617815336
H -4.118787932 -3.269623151 -1.617551516
H -0.815602016 3.432383656 1.156719143
H 0.732388436 3.044180620 -1.826940654
H 3.506303922 -0.215413490 0.027776631
H 3.814457404 2.678949605 1.678178560
H 0.725362510 -1.321590113 3.317150141

