14

O 3.752997274 3.727284923 -0.246774289
C 1.973980206 2.578059243 0.899380718
C 0.183310294 1.849824217 -0.927275797
C -0.220830806 -0.738015644 -1.932713577
C -0.224654175 -2.778593899 0.093514930
C -2.231163730 -1.144256758 1.434496638
N -2.293209902 0.712225342 -0.712002090
H 2.033069523 2.432708955 2.953358512
H 2.286252478 3.436746883 -2.026579542
H -0.157068631 -1.071167179 -3.952191963
H 1.558158993 -3.165173491 1.048408073
H -1.005705818 -4.557443575 -0.587941702
H -1.729922871 -0.301077761 3.249112461
H -4.060989638 -2.065831592 1.619108159

