16

C -1.486710035 -0.473048905 -1.946923920
C 0.896879855 -0.075264163 -0.473640861
C 3.313353606 -1.514144059 -0.847175957
C 0.767047506 2.561956547 0.654784849
C -0.440406796 0.386359627 1.857263332
O -4.278894940 0.479937863 1.964029079
H -1.839185928 -2.466157901 -2.316821860
H -3.657822692 0.105668326 0.041448591
H -1.735335141 0.754896416 -3.581695472
H 4.698727834 -1.104891023 0.628356991
H 4.140761024 -1.017701592 -2.672673238
H 2.949096669 -3.545317223 -0.851880241
H 2.405806417 3.256594189 1.681648816
H -0.328983366 4.013086120 -0.282994386
H -0.444201347 -0.294495826 3.774227364
H -4.981652905 -1.066121591 2.631353224

