12

C -2.571157000 2.065007029 0.281917205
C -0.014990101 -2.551461084 0.278575677
C 1.046833761 -0.408724744 -0.542340966
O -0.058084682 1.890201769 -0.583893531
N 3.444253347 -0.212060908 -1.575055507
H -2.718743495 1.491643714 2.262351544
H -3.105444558 4.041095943 0.094807427
H -3.829905574 0.895275099 -0.865550199
H 1.054120961 -4.289458735 0.234942033
H -1.935639156 -2.630445154 0.948441656
H 4.612413705 -1.642890495 -1.132258188
H 4.235824377 1.501463089 -1.334229357

