16

C 3.815844330 0.379952946 2.084177771
C 1.721451966 0.112427101 -2.732301524
C 0.311413788 0.505581145 -0.683387668
O 1.197033767 0.665636015 1.712518852
C -2.505851561 0.811960174 -0.720346723
C -3.880807237 -1.313409791 0.666183658
H 4.461620533 -1.477859787 1.443996972
H 4.874186259 1.846060544 1.079629467
H 4.141560927 0.562799387 4.105985887
H 0.814182567 0.020085143 -4.558417578
H 3.748692723 -0.119820088 -2.676082985
H -3.127714962 0.906402128 -2.683160330
H -2.969183437 2.625873415 0.157070710
H -3.292757859 -1.406825813 2.638575228
H -5.920604998 -1.014382874 0.618325739
H -3.480076016 -3.138417218 -0.209043790

