13

N 3.328251186 1.787863688 0.097603353
C 0.907795933 0.725427063 0.004866328
C -0.030933702 -1.627290144 0.113521631
O 1.421626866 -3.698881111 0.363024495
C -2.777373420 -1.589051782 -0.074486295
C -3.761420766 0.759520463 -0.311744528
N -1.308403907 2.354961805 -0.264263591
H 4.451731370 1.248338055 -1.347253973
H 4.234937737 1.469640007 1.746204884
H 0.358625912 -5.166701066 0.402631719
H -3.919424962 -3.289050537 -0.028899582
H -1.480270246 3.617035674 1.177785413
H -1.275730806 3.388192656 -1.887204493

