13

N 3.437883780 1.728556467 -0.038738762
C 0.971940343 0.762654384 -0.165158057
C -0.025524096 -1.601311097 0.110406096
O 1.428996458 -3.660018629 0.529807925
C -2.702417131 -1.467591147 -0.039478779
C -3.544024121 0.932435826 -0.616915588
N -1.101295574 2.349518393 -0.484749579
H 4.497861550 1.234584855 -1.547745279
H 4.350454257 1.185940035 1.547878165
H 0.364179137 -5.115819529 0.702856987
H -3.962854157 -3.055232060 0.235797172
H -2.625733519 2.654100538 1.128269468
H -0.940059511 4.032186772 -1.370442519

