16

C 2.469489867 -3.377272194 1.269849809
N 1.791923028 2.167310017 -0.440529761
C 0.581396862 4.066238068 0.422624681
C -2.034206534 3.419541871 -0.437119958
C -0.579161486 1.112568999 -1.548834026
C -1.463894616 -1.440345435 -0.730711229
C -0.232785157 -3.286507741 0.442598104
H 2.583127564 -3.675599950 3.311687548
H 3.416044290 -4.986730240 0.384466292
H 3.495308040 -1.661894639 0.796438776
H 1.388932790 5.646871782 1.461921836
H -2.910864410 4.705167113 -1.789844140
H -3.377154672 2.964594936 1.059030375
H -0.471960347 1.180123156 -3.614050890
H -3.434116025 -1.781240803 -1.214074731
H -1.322157201 -4.983740315 0.840638128

