16

C 3.057438334 -1.875148135 1.191419523
N 1.397169142 0.841760077 -0.213583971
C 0.723724949 2.849717181 0.970418963
C -1.793565219 3.189146953 -0.256003787
C -0.945121577 0.778614822 -1.745571561
C -2.257969004 -1.676495344 -1.280090027
C -1.029509432 -3.139536975 0.320508454
H 2.561354631 -2.758810281 2.964301008
H 3.549821083 -3.251278673 -0.236202519
H 4.647491708 -0.582342765 1.496474061
H 1.776228758 3.800068405 2.455884991
H -2.089294601 4.934159741 -1.310615831
H -3.400565752 2.821775842 0.989659700
H -0.526035899 1.169125384 -3.731823479
H -4.026833839 -2.045979509 -2.279851409
H -1.691051091 -5.034811789 0.808604360

