15

C -0.751975599 -2.936900225 1.580751859
N -1.309441480 -1.343513317 -0.579542247
C 1.236595542 -2.409147907 -0.328404316
C 2.946456892 -0.284426969 0.330982016
C 1.636541488 1.841024991 0.536142419
C -1.106353898 1.384370273 -0.116597255
N -1.795587509 2.695492248 -2.427672627
H -0.520527291 -2.060345339 3.422362476
H -1.730763818 -4.736660098 1.578390722
H -2.351606464 1.854445278 1.482997725
H 1.816891129 -3.844534587 -1.668898229
H 4.956967299 -0.503825891 0.630426846
H 2.371643816 3.663390222 1.104785747
H -3.603239143 2.275756845 -2.890936833
H -1.655594973 4.589011318 -2.202480466

