15

C -1.616246094 -2.226303922 1.228647808
N -0.597982100 -1.406359693 -1.287813885
C 1.706879059 -2.252540161 -0.200618314
C 3.438551344 -0.291620419 0.118061528
C 2.147216068 1.916414934 -0.278490583
C -0.446305784 1.245678605 -0.644624906
N -2.345692245 2.797472320 -1.682661936
H -3.452163306 -1.405094389 1.665304744
H -1.697103355 -4.267690338 1.480127382
H -0.753223763 0.643675451 1.739312826
H 2.104060487 -4.253602297 -0.218844118
H 5.353861375 -0.495847808 0.788098961
H 2.809004903 3.816121553 0.081198451
H -4.005660006 1.867112963 -1.830036139
H -2.585602217 4.426605533 -0.723156255

