14

C 1.867432326 -0.638320043 -1.418709356
C -0.004295631 -2.569631877 -0.360546687
C -2.758284578 -2.045146480 -0.459300051
C -1.262625877 -1.456376019 1.880786870
N -0.526598603 1.197508541 2.089820078
C 1.289001540 1.736632476 0.073302325
C -1.279665764 2.799463411 -0.057987701
H 1.671930653 -0.370294196 -3.455041057
H 3.786631716 -1.285401782 -1.034821547
H 0.443587923 -4.562211694 -0.585856521
H -2.591730939 2.042446344 -1.446459001
H -1.675840648 -2.391521278 3.652020136
H 2.860429831 2.946600076 0.587603195
H -1.606750352 4.762576747 0.419146886

