14

C 2.067503451 -0.623074148 -1.348946488
C -0.160790957 -2.228093833 -0.597843791
C -2.747304854 -1.065764489 -0.484708194
C -1.154817058 -1.337711556 1.885266730
N -0.118978158 1.193989323 2.355554896
C 1.474963460 1.741503982 0.119696028
C -1.192338326 2.407289191 0.147463588
H 2.169956673 -0.260084669 -3.376874747
H 3.847987457 -1.466113797 -0.731745098
H -0.172160683 -4.230028550 -1.030001819
H -2.963709127 1.108968032 -1.135784190
H -1.615672656 -2.520119541 3.486509192
H 2.879259950 3.203321071 0.393752652
H -2.100677575 4.242248917 0.201620701

