12

C -2.488594223 0.769876974 0.601202061
C -3.898023474 -1.572462991 1.387292300
H -3.147807550 -2.368755748 3.131417559
H -5.897857704 -1.144440515 1.686442900
H -3.786702410 -3.021407266 -0.082620905
C -3.327548605 2.124441032 -1.755518172
H -5.294333244 2.734076336 -1.574507845
H -2.175244486 3.787347846 -2.136482121
H -3.217292969 0.874180861 -3.397910044
C -0.579007700 1.602789014 1.924274400
N 1.066792557 2.507945132 3.278439914
H 2.846878208 1.899136280 2.879017366

