18

C 4.285721613 -0.340376997 0.402503161
C 2.238682346 -1.156724982 -1.002442450
C -1.580776350 0.513393329 0.329037299
C -3.082114585 -1.792027775 1.080535420
C -2.510292228 1.926569680 -1.966943868
C -0.301606261 1.793148742 2.132169010
N 1.456340417 2.512369661 3.341959732
H 5.132248147 -1.627732076 1.756421215
H 3.140432346 1.346218271 2.237091442
H 5.562437609 1.038878902 -0.418874520
H 1.443374798 -3.014299061 -0.682322675
H 1.867408780 -0.349618570 -2.845359927
H -2.265397177 -2.730734450 2.721518917
H -5.037917138 -1.294911054 1.526617631
H -3.133899714 -3.135982041 -0.486393300
H -4.435956938 2.621848695 -1.685144091
H -1.302921717 3.533966527 -2.413358727
H -2.547486196 0.664224806 -3.601009512

