12

C -3.328711958 1.146938582 -0.311778921
C -1.071630539 -0.445317892 0.456595815
C 1.424399831 0.897411642 0.142218672
C 3.652405829 -0.568777214 0.875236557
C 5.456538964 -1.790407146 1.488513080
O 1.633266498 3.020933757 -0.648147129
H -3.436380559 2.868061811 0.814684554
H -3.193566418 1.713392681 -2.287754338
H -5.077368761 0.087206004 -0.056604006
H -0.960589080 -2.199527107 -0.636660769
H -1.192435931 -1.049519421 2.432721560
H 7.079981909 -2.852208124 2.026486795

