12

C -3.047012696 0.914471107 -0.011009563
C -1.028849918 -1.142795320 0.063844246
C 1.536085499 -0.178026676 -0.451269754
C 3.773046928 -0.567129241 -1.561760527
C 4.217497209 0.347573320 0.951328704
O 2.466345287 1.893349013 1.771263162
H -2.685581258 2.336502280 1.433677064
H -3.077987726 1.853198361 -1.845182823
H -4.906929695 0.094344671 0.324832526
H -1.381454482 -2.601126072 -1.352450550
H -1.001651411 -2.067458287 1.911715375
H 5.531076508 -0.504117023 2.298775429

