16

C 4.069511395 0.548012790 1.623603157
C 1.773109878 1.287049964 1.037388456
C 0.159304536 2.961875639 -0.460797432
C -0.956369510 0.965972872 1.313617207
C -2.346042525 -1.353806636 0.358258285
C -1.353014860 -2.455250856 -2.107886691
H 4.386405843 -0.984667214 2.945936707
H 5.718966175 1.448461941 0.808255989
H 0.654728837 -2.911227805 -1.973596592
H -0.012630627 4.927458678 0.089931688
H 0.051122345 2.636587614 -2.480784779
H -1.751304158 1.739520053 3.042424157
H -2.252456522 -2.799354922 1.834408361
H -4.346656909 -0.876385850 0.142069610
H -1.603702677 -1.146783530 -3.682974852
H -2.367148498 -4.186093797 -2.583045116

