16

C 3.777479016 -0.190341965 0.940486759
C 1.251473375 0.457904394 0.382065659
C -0.111453836 2.786103709 -0.339952716
C -1.288108002 0.963194180 1.521055921
C -2.872157528 -1.020154419 0.218553837
C -0.911588236 -1.919651147 -1.707505050
H 4.179239911 -1.524899530 2.433854186
H 5.306172246 0.815297127 0.034122898
H 2.017254254 -1.427093220 -0.854324016
H 0.734786461 4.475840552 0.444968463
H -0.943215883 3.010869151 -2.193886785
H -1.524414607 1.515030851 3.478851719
H -3.385945772 -2.524916233 1.530575624
H -4.612813495 -0.285282769 -0.614446264
H -1.150472068 -1.273517370 -3.646238500
H -0.515493420 -3.943874522 -1.652428812

