14

C 3.891912496 1.057299915 0.658607727
N 2.432670915 -0.805981912 -0.797818295
C -0.379437315 -0.663692866 -0.646419428
N -1.786073003 1.097883352 -1.497500296
N -4.319779920 0.850008959 -0.762388273
C -5.207904787 -0.747512481 0.857087797
C 0.641320852 -2.719252606 0.351652105
H 4.267371806 0.318349953 2.541299308
H 5.676601048 1.417423511 -0.299835984
H 2.824806925 2.811626029 0.796434373
H 3.202178713 -1.296916866 -2.476577984
H -5.343752814 2.158216787 -1.716060936
H -7.258298054 -0.382478073 0.935848010
H 0.880541320 -3.623023631 2.153329162

