12

O 3.688078889 -1.087789512 3.062770971
C 4.734849741 -0.763069009 0.538629752
H 5.623457565 1.056634693 0.212948173
H 5.716785488 -2.407598105 -0.194569036
C 2.081986842 -0.898984896 1.068950416
C -0.300993404 -0.913071500 0.582558874
C -2.681225610 -0.887175185 0.062167133
C -5.040764748 0.394654108 -0.492698296
H -5.171727077 1.407898119 -2.271482266
H -6.230371947 1.096655729 1.018792569
N -4.760216083 -2.395513552 -0.541298669
H -4.685397725 -3.154217558 -2.297813464

