14

O 4.097242030 0.721312449 2.223872336
C 4.969387260 -0.697849194 0.241598821
C 2.425143437 -1.201848108 -0.697215399
C 0.108767666 -1.160994837 -0.833475953
C -1.939574624 -0.157510713 0.361741277
C -4.274396447 1.250616157 -0.079520847
N -4.042396660 -0.971478154 1.575385207
H 1.336454793 1.429785721 2.639875586
H 6.128275903 0.333650290 -1.139117176
H 5.961723984 -2.435453291 0.795511071
H -0.238373039 1.631812732 2.663110506
H -5.134198590 1.043663027 -1.930052294
H -4.637136009 3.005078407 0.906287403
H -4.772443272 -2.671106221 1.100819211

