13

C -3.139109481 -1.789302771 0.311689953
C -0.961873697 -0.169579676 -0.447323950
C 2.609499014 1.670964191 0.104681587
C 1.765239528 -0.918389662 -0.783155399
C -0.643002633 2.367084644 -0.018313978
N -0.334137518 4.632666032 0.149101281
H -2.880932793 -2.698938731 2.155128200
H -4.873990068 -0.679303686 0.399115316
H -3.426294826 -3.293188868 -1.076688410
H 3.114750137 1.832702297 2.079023241
H 3.665091523 2.906239665 -1.141057509
H 2.444351785 -2.344283492 0.554019909
H 2.340897916 -1.458137584 -2.692643637

