13

O -1.165744135 2.150463392 0.786933302
C -1.771363639 -0.412643337 0.472527057
C -2.428497058 -1.232974033 -2.142337834
C 0.043826396 -2.054767982 -0.991442071
O 2.241588121 -1.022670948 -1.921362294
C 4.039274096 1.358692240 0.005671843
O 4.725918385 0.935350653 1.998727965
H -0.652855571 2.399134437 2.507553222
H -2.805399683 -1.243494101 2.037305760
H -3.942077676 -2.581499584 -2.411585994
H -2.258295379 0.203014317 -3.589918823
H 0.221874993 -4.010697052 -0.388561385
H 2.941536744 1.543841010 -1.878251235

