11

C 5.187152438 0.333113362 -1.791597428
C 3.071894739 0.336437674 -0.989208131
C 0.549778475 0.293150549 -0.047057355
C -0.840433849 -1.771349031 0.800651882
C -3.207506172 -0.817300653 1.346968946
N -3.251112698 1.696477704 1.055593700
N -0.819109159 2.425732049 0.152922874
H 7.066634377 0.345514671 -2.508412140
H -0.186876490 -3.692462921 0.978577439
H -4.881673883 -1.796274481 1.981595009
H -2.830601959 2.685333837 -1.009348228

