17

C -1.768602126 0.576062770 2.981894945
C -2.098903141 -0.728917009 0.471745372
C -0.983605207 0.273121455 -1.941247618
C 0.004022017 -2.149469528 -0.804820750
C 2.647743612 -1.565144195 0.134679118
C 3.105978803 1.207070423 0.074895723
C 1.109621556 2.205881784 -1.633008720
H -3.169802791 2.071637964 3.224476234
H -1.990072547 -0.761635406 4.537729555
H 0.093530048 1.455482292 3.202934527
H -3.941530090 -1.594309265 0.233966614
H -2.127911023 0.271294865 -3.636671082
H 2.185580362 2.452168316 -3.404424553
H -0.400391581 -3.969410770 -1.646370048
H 4.099609422 -2.236661095 -1.206254553
H 3.185715891 -2.413672251 1.938827502
H 0.519428169 4.117418069 -1.121175266

