10

O -1.703941310 4.169538511 2.110610485
C -0.273580413 2.061305452 2.399132831
C -0.205168794 -3.134524665 -1.942884612
O 0.418915092 -4.609250870 -3.552558729
C 0.569895271 0.594370947 0.607047646
C 1.357849535 -0.949198661 -1.156382885
H -2.036352526 4.444968569 0.346187395
H 0.155394598 1.672880184 4.363257586
H -2.025487186 -3.318923744 -0.923634729
H 3.165128497 -0.715822001 -2.102367235

