13

O -4.239269480 -0.855824761 0.136789432
C -1.870705559 -0.402860508 0.904432353
C 0.995012028 -1.611423758 -1.553395409
O -0.424950329 0.308488662 -2.949726590
C -0.394126024 1.588094636 -0.546496644
C 2.231177053 0.559113231 -0.065582794
O 2.973279778 0.228746585 2.442356404
H -4.297460989 -0.510940824 -1.662392469
H -1.626017697 -0.655691048 2.925236817
H -0.397449523 -2.723684146 -0.256090752
H -1.008881560 3.575673387 -0.576835611
H 3.658220366 1.494739198 -1.228338327
H 4.340419093 -0.961836677 2.480865867

