14

C 2.754356650 -2.189882361 -1.377286824
C 3.280904193 -1.220338984 0.722757882
C 1.691252423 0.443648791 2.180888039
C -0.382940980 1.256623691 0.013166327
C -3.017130778 1.403538275 0.444726256
C -0.607836361 -0.866521631 -1.818082450
H 3.340962580 -3.476556930 -2.833402571
H 0.766776463 -0.532624996 3.746466324
H 2.579064370 2.156505187 2.897314356
H 0.363307614 2.942731599 -0.902655727
H -4.124274657 3.088475649 0.078762424
H -3.978343278 -0.145620424 1.374254645
H -1.626022705 -2.534589401 -1.190249536
H -0.962496607 -0.384128730 -3.781918323

