11

C 1.996312990 0.416655169 1.470297764
C 3.638138813 -1.277878820 0.701418187
H 3.804814320 -3.094435883 1.635493880
H 4.877451290 -0.920158370 -0.889942292
C 0.800390420 2.893298669 1.144688032
H 1.812336038 4.588677195 1.690403255
H -0.491816002 3.112494200 -0.430446012
C -0.044372697 1.094829044 3.212856705
O -2.437344359 0.016738400 2.944954427
H -2.295349658 -1.770719885 3.203485420
H 0.456326397 1.603543563 5.141739221

