12

O 3.794789229 -1.198144415 1.733065901
N 2.369615592 0.978645299 1.645458860
C 0.612645846 0.820153932 -0.029710350
C -0.590826841 2.771453078 -1.196622430
N -3.222116419 -1.107082179 0.248551539
C -0.877467246 -1.864767246 -0.511365993
H 4.756173618 -1.006004074 3.260961875
H -2.195300810 2.405180049 -2.395883919
H 0.215783650 4.654693058 -1.182862219
H -4.378666243 -0.875768382 -1.273063382
H -0.586489258 -2.460808446 -2.468497855
H 0.108792289 -3.112087437 0.808873835

