11

C -2.013280670 -2.082295207 0.432843111
C -0.177394809 -0.309937799 1.284384769
C 2.439739266 -0.435398379 0.053770267
O 1.567640618 0.759744376 -2.226665710
C -0.877710567 1.190903155 -1.272872728
H -3.838032512 -1.489861418 1.263114541
H -2.374883468 0.447895403 -2.501088752
H -0.386756678 0.805717917 3.004040947
H 3.132017698 -2.342767554 -0.308686706
H 3.886287311 0.709842095 0.982722535
H -1.283870178 3.159257231 -0.796146416

