11

C -2.061526040 -1.820699569 0.153001260
C -0.098566754 -0.226164218 1.313363342
C 2.488412450 -0.440142915 0.044536083
O 1.548100623 0.866905189 -2.173675692
C -0.828136456 1.237220342 -1.052063729
H -3.866962783 -1.167102546 0.974419324
H -2.288673407 -0.094375890 -2.084743744
H -0.321166400 0.624953632 3.163157134
H 3.110452068 -2.352592467 -0.402270554
H 3.999135557 0.651063354 0.931554307
H -1.607316627 3.134031088 -0.951863779

