18

C 3.618066520 -0.112037043 0.406504165
C 1.618356559 -1.468538712 -1.158424602
C -0.950518200 -0.114420120 -1.261602534
C -2.884752628 -1.328584651 3.576357921
C -0.843387906 2.527565761 -2.408835743
C -2.100398953 -0.045741955 1.291080126
N -3.032760608 1.452319288 2.850196624
H 4.100227608 1.726937879 -0.391589123
H 5.351766935 -1.224343578 0.487507596
H 2.979867079 0.197302166 2.345965594
H 1.321944607 -3.368894546 -0.402226429
H 2.290493534 -1.708268556 -3.097725348
H -1.515955777 -1.825112968 5.023621511
H -4.660171147 -2.356361129 3.645463373
H -2.204024240 -1.298565066 -2.410815004
H -2.734134483 3.327515176 -2.583462518
H 0.260657502 3.808491670 -1.231415689
H 0.014539080 2.464455013 -4.283642140

