18

C 4.284584263 0.822248523 -0.247105766
C 2.204583636 -1.154534998 -0.460402328
C -0.490185621 -0.099135014 -0.196929947
C -5.156565936 -3.102044487 1.616271265
C -1.224400138 1.790551899 -2.258475356
C -0.854556226 1.020418791 2.316459769
N -1.145541715 1.884796887 4.285185347
H 4.176219297 2.216267435 -1.762847853
H 6.137320132 -0.073274867 -0.359840515
H 4.181485076 1.826063066 1.553408221
H 2.479096403 -2.610389925 0.977592287
H 2.308253993 -2.106888991 -2.290543782
H -4.411877424 -3.770105191 3.456560434
H -6.217489098 -1.383992517 2.173274352
H -1.806936146 -1.708626791 -0.322542083
H -3.204760721 2.329033100 -2.084508473
H -0.084856810 3.503518088 -2.156287245
H -0.951270028 0.926731953 -4.110154718

