13

C 3.853644314 0.643809319 0.363773810
O 2.293833871 -1.292929298 -0.748769149
C 0.084015750 -0.663831629 -1.605445761
C -3.469884648 -0.843397695 0.607636144
C -1.419310024 1.358046483 -0.514579756
N -1.365360271 3.553506408 0.098025310
H 2.687997368 1.983164219 1.411767466
H 4.845095739 1.631319381 -1.143292374
H 5.181695968 -0.341567714 1.578858184
H -0.792714522 -2.177519621 -2.669643932
H -2.688012070 -2.521509851 1.514138031
H -4.403221647 0.323553049 2.010363670
H -4.779925246 -1.402082355 -0.879555866

