12

C -3.566249323 -0.017385764 0.584591406
C -0.749680904 -0.127155381 0.733658276
C 0.475430659 -2.068176326 -0.949614684
H 1.007201442 -3.824621069 -0.026458263
H -0.533556008 -2.497982874 -2.746234173
O 2.834346678 -0.773298569 -1.688151250
C 2.312890814 1.620613988 -1.538553708
H 3.666480491 3.023815212 -2.147027964
O 0.323479444 2.174999747 -0.387206092
H -4.350011645 -1.665083514 1.548427735
H -4.311069568 1.648031023 1.542965935
H -4.306377189 -0.033957131 -1.372300460

