11

C -1.561642646 2.959010097 -0.650030600
C -0.033136782 1.442799263 0.617305362
C 1.137590409 -0.912325361 -0.468618196
C 3.892643216 -0.931607881 -0.238190454
C 6.145374901 -0.923801895 -0.032102195
H 8.148908855 -0.918939176 0.143049131
H 0.390121278 -2.573311836 0.513119697
H 0.614502332 -1.109208745 -2.456389548
H 0.443911690 1.859210015 2.569865958
H -2.375923177 4.622859072 0.219441801
H -2.050430815 2.597283049 -2.608264588

