15

C 3.140975264 -1.614091126 0.153360232
C 1.659824255 0.806434784 0.214052453
N 0.443475201 1.628794990 -2.100869117
C -1.150365336 0.895661548 -0.051205266
C -2.874793639 -1.338585894 -0.252946324
C -2.995306199 3.474528706 0.831420876
N -1.925345648 2.935163378 2.723721998
H 3.164488201 -2.497978584 2.016827705
H 2.356039044 -2.944049607 -1.207383305
H 5.091223005 -1.226675141 -0.395562102
H 2.436354596 2.263490576 1.427151008
H 0.480074188 3.512507118 -2.413927572
H -1.898953506 -2.873106076 -1.218926206
H -3.443314286 -1.973643419 1.620638422
H -4.558709408 -0.846431972 -1.330841910

