15

C -3.169050793 -2.007849503 -0.402040745
N -0.951008546 -1.075580993 0.866142401
C -0.501348045 1.660149685 0.873136504
C 1.515730200 -1.507587786 -0.327703417
C 2.343119496 1.099328898 0.604436290
O 3.759640455 2.485915668 -1.153067814
H -3.299528029 -1.353081662 -2.378134459
H -4.862177654 -1.383100774 0.598434255
H -3.159273086 -4.071418450 -0.404299742
H -1.182199171 2.662357261 2.545120051
H 4.368883452 3.997582901 -0.364260017
H -1.196975487 2.601658824 -0.845968346
H 1.425182348 -1.508271999 -2.404974352
H 2.541858818 -3.173961341 0.324799040
H 3.292049835 1.004594376 2.437791336

