14

O 6.994452035 -0.192985484 -1.395309539
N 4.812008185 -0.833347546 -1.358652367
C 2.725508280 -1.447788518 -1.331147025
C 0.057991065 -2.187958809 -1.241869994
C -1.415569992 -0.888028226 0.879548931
C -1.482220443 1.961589253 0.614798565
O -2.998772712 2.917922991 2.593256440
H 0.442304024 2.727628402 0.715764969
H -0.038787763 -4.235845675 -1.007656205
H -0.794987787 -1.760495219 -3.075297342
H -0.600277078 -1.377756874 2.710905214
H -3.351700004 -1.603586422 0.862593552
H -2.268130874 2.476839635 -1.237955786
H -2.933516520 4.726447527 2.567271080

