27

C    -1.17240  -4.24850   0.39408
N    -0.91039  -3.00320  -0.29897
C    -0.75386  -1.85698   0.38942
O    -0.83986  -1.81342   1.61576
C    -0.61204  -0.58142  -0.43758
Br   -0.25426  -0.82253  -2.31518
C     2.23037  -1.02829   0.00929
C     2.05110  -1.39780   1.39206
O     2.02808  -0.61985   2.34195
O     1.97887  -2.73449   1.51284
C     1.85252  -3.25382   2.83916
O     2.22032   0.22310  -0.37985
C     2.03735   1.32533   0.29436
C     2.14501   2.53715  -0.38702
N     2.23176   3.59109  -0.89502
C    -0.84719   0.63181   0.02091
Br   -1.06295   2.13255  -1.14137
Br   -1.10491   1.11940   1.84119
H    -1.37884  -5.02405  -0.35269
H    -2.04954  -4.15377   1.05807
H    -0.31181  -4.54792   1.00160
H    -0.81869  -3.00946  -1.30762
H     2.32574  -1.74178  -0.77873
H     1.81448  -4.34492   2.72434
H     2.73163  -2.96924   3.43788
H     0.93911  -2.88605   3.31610
H     1.70289   1.24935   1.34417
27

C    -1.17325  -4.24799   0.39383
N    -0.91203  -3.00230  -0.29917
C    -0.75276  -1.85674   0.38963
O    -0.84047  -1.81341   1.61587
C    -0.58931  -0.58437  -0.43376
Br   -0.25361  -0.82247  -2.31528
C     2.20906  -1.02608   0.00670
C     2.04639  -1.39744   1.39285
O     2.02973  -0.62011   2.34200
O     1.97708  -2.73332   1.51236
C     1.85304  -3.25412   2.83892
O     2.22207   0.22398  -0.38138
C     2.01599   1.32297   0.29130
C     2.13851   2.53698  -0.38582
N     2.23207   3.58938  -0.89359
C    -0.81806   0.63869   0.02394
Br   -1.06385   2.13055  -1.14148
Br   -1.10364   1.11916   1.84062
H    -1.37903  -5.02389  -0.35279
H    -2.04976  -4.15382   1.05804
H    -0.31197  -4.54769   1.00146
H    -0.81826  -3.00930  -1.30757
H     2.32165  -1.74195  -0.77813
H     1.81469  -4.34496   2.72399
H     2.73199  -2.96929   3.43744
H     0.93938  -2.88622   3.31629
H     1.70250   1.24941   1.34412
27

C    -1.17409  -4.24748   0.39358
N    -0.91367  -3.00139  -0.29936
C    -0.75166  -1.85651   0.38984
O    -0.84107  -1.81340   1.61598
C    -0.56658  -0.58733  -0.42994
Br   -0.25297  -0.82242  -2.31538
C     2.18775  -1.02386   0.00410
C     2.04167  -1.39708   1.39364
O     2.03139  -0.62038   2.34204
O     1.97528  -2.73214   1.51188
C     1.85356  -3.25442   2.83868
O     2.22383   0.22487  -0.38290
C     1.99464   1.32061   0.28823
C     2.13201   2.53681  -0.38461
N     2.23238   3.58766  -0.89217
C    -0.78893   0.64557   0.02698
Br   -1.06476   2.12854  -1.14158
Br   -1.10237   1.11893   1.84004
H    -1.37922  -5.02374  -0.35289
H    -2.04998  -4.15388   1.05800
H    -0.31212  -4.54747   1.00131
H    -0.81784  -3.00914  -1.30753
H     2.31755  -1.74212  -0.77754
H     1.81491  -4.34501   2.72363
H     2.73235  -2.96934   3.43700
H     0.93965  -2.88640   3.31649
H     1.70211   1.24948   1.34407
27

C    -1.17494  -4.24698   0.39333
N    -0.91530  -3.00049  -0.29956
C    -0.75056  -1.85628   0.39005
O    -0.84167  -1.81339   1.61608
C    -0.54385  -0.59028  -0.42612
Br   -0.25233  -0.82237  -2.31547
C     2.16644  -1.02164   0.00151
C     2.03696  -1.39672   1.39442
O     2.03304  -0.62065   2.34209
O     1.97349  -2.73097   1.51140
C     1.85408  -3.25471   2.83844
O     2.22558   0.22575  -0.38443
C     1.97328   1.31825   0.28517
C     2.12551   2.53663  -0.38341
N     2.23270   3.58594  -0.89075
C    -0.75979   0.65245   0.03001
Br   -1.06566   2.12654  -1.14169
Br   -1.10110   1.11869   1.83946
H    -1.37941  -5.02358  -0.35299
H    -2.05021  -4.15393   1.05797
H    -0.31228  -4.54725   1.00117
H    -0.81741  -3.00898  -1.30749
H     2.31346  -1.74229  -0.77695
H     1.81512  -4.34505   2.72328
H     2.73271  -2.96939   3.43656
H     0.93992  -2.88658   3.31668
H     1.70173   1.24954   1.34402
27

C    -1.17578  -4.24647   0.39308
N    -0.91694  -2.99959  -0.29975
C    -0.74946  -1.85604   0.39026
O    -0.84227  -1.81338   1.61619
C    -0.52113  -0.59324  -0.42231
Br   -0.25168  -0.82232  -2.31557
C     2.14512  -1.01943  -0.00109
C     2.03224  -1.39636   1.39521
O     2.03469  -0.62092   2.34213
O     1.97170  -2.72980   1.51092
C     1.85460  -3.25501   2.83820
O     2.22733   0.22664  -0.38595
C     1.95192   1.31590   0.28210
C     2.11902   2.53646  -0.38220
N     2.23301   3.58422  -0.88932
C    -0.73066   0.65933   0.03304
Br   -1.06656   2.12453  -1.14179
Br   -1.09983   1.11846   1.83889
H    -1.37960  -5.02342  -0.35309
H    -2.05043  -4.15399   1.05793
H    -0.31244  -4.54702   1.00103
H    -0.81699  -3.00883  -1.30744
H     2.30937  -1.74246  -0.77635
H     1.81533  -4.34509   2.72292
H     2.73307  -2.96944   3.43613
H     0.94019  -2.88676   3.31688
H     1.70134   1.24960   1.34397
27

C    -1.17662  -4.24596   0.39283
N    -0.91858  -2.99868  -0.29994
C    -0.74836  -1.85581   0.39047
O    -0.84287  -1.81338   1.61629
C    -0.49840  -0.59619  -0.41849
Br   -0.25104  -0.82227  -2.31567
C     2.12381  -1.01721  -0.00368
C     2.02752  -1.39600   1.39600
O     2.03635  -0.62118   2.34217
O     1.96991  -2.72862   1.51044
C     1.85512  -3.25530   2.83796
O     2.22908   0.22753  -0.38748
C     1.93057   1.31354   0.27903
C     2.11252   2.53629  -0.38100
N     2.23332   3.58251  -0.88790
C    -0.70152   0.66621   0.03607
Br   -1.06747   2.12252  -1.14190
Br   -1.09857   1.11823   1.83831
H    -1.37980  -5.02327  -0.35319
H    -2.05065  -4.15404   1.05789
H    -0.31260  -4.54680   1.00088
H    -0.81657  -3.00867  -1.30740
H     2.30528  -1.74263  -0.77576
H     1.81555  -4.34514   2.72257
H     2.73343  -2.96949   3.43569
H     0.94046  -2.88694   3.31707
H     1.70096   1.24966   1.34393
27

C    -1.17747  -4.24546   0.39258
N    -0.92021  -2.99778  -0.30014
C    -0.74726  -1.85558   0.39068
O    -0.84348  -1.81337   1.61640
C    -0.47567  -0.59915  -0.41467
Br   -0.25040  -0.82222  -2.31577
C     2.10250  -1.01500  -0.00628
C     2.02281  -1.39564   1.39679
O     2.03800  -0.62145   2.34222
O     1.96812  -2.72745   1.50996
C     1.85564  -3.25560   2.83772
O     2.23084   0.22841  -0.38901
C     1.90921   1.31118   0.27597
C     2.10602   2.53612  -0.37979
N     2.23364   3.58079  -0.88647
C    -0.67239   0.67310   0.03911
Br   -1.06837   2.12052  -1.14201
Br   -1.09730   1.11799   1.83773
H    -1.37999  -5.02311  -0.35329
H    -2.05088  -4.15409   1.05786
H    -0.31276  -4.54657   1.00074
H    -0.81614  -3.00851  -1.30735
H     2.30119  -1.74280  -0.77516
H     1.81576  -4.34518   2.72221
H     2.73379  -2.96954   3.43525
H     0.94072  -2.88711   3.31727
H     1.70057   1.24972   1.34388
27

C    -1.17831  -4.24495   0.39233
N    -0.92185  -2.99688  -0.30033
C    -0.74616  -1.85534   0.39089
O    -0.84408  -1.81336   1.61650
C    -0.45294  -0.60210  -0.41085
Br   -0.24975  -0.82217  -2.31586
C     2.08119  -1.01278  -0.00887
C     2.01809  -1.39528   1.39758
O     2.03965  -0.62172   2.34226
O     1.96632  -2.72628   1.50948
C     1.85616  -3.25590   2.83748
O     2.23259   0.22930  -0.39053
C     1.88785   1.30882   0.27290
C     2.09953   2.53595  -0.37859
N     2.23395   3.57907  -0.88505
C    -0.64326   0.67998   0.04214
Br   -1.06928   2.11851  -1.14211
Br   -1.09603   1.11776   1.83716
H    -1.38018  -5.02296  -0.35339
H    -2.05110  -4.15415   1.05782
H    -0.31292  -4.54635   1.00060
H    -0.81572  -3.00836  -1.30731
H     2.29710  -1.74297  -0.77457
H     1.81597  -4.34523   2.72186
H     2.73416  -2.96959   3.43481
H     0.94099  -2.88729   3.31746
H     1.70018   1.24978   1.34383
27

C    -1.17916  -4.24444   0.39208
N    -0.92349  -2.99597  -0.30053
C    -0.74506  -1.85511   0.39110
O    -0.84468  -1.81335   1.61661
C    -0.43021  -0.60505  -0.40703
Br   -0.24911  -0.82212  -2.31596
C     2.05987  -1.01056  -0.01147
C     2.01338  -1.39492   1.39837
O     2.04131  -0.62199   2.34231
O     1.96453  -2.72510   1.50901
C     1.85668  -3.25619   2.83724
O     2.23434   0.23018  -0.39206
C     1.86650   1.30647   0.26984
C     2.09303   2.53578  -0.37738
N     2.23426   3.57735  -0.88362
C    -0.61412   0.68686   0.04517
Br   -1.07018   2.11651  -1.14222
Br   -1.09476   1.11752   1.83658
H    -1.38037  -5.02280  -0.35349
H    -2.05133  -4.15420   1.05779
H    -0.31307  -4.54613   1.00045
H    -0.81530  -3.00820  -1.30727
H     2.29301  -1.74314  -0.77397
H     1.81619  -4.34527   2.72150
H     2.73452  -2.96964   3.43438
H     0.94126  -2.88747   3.31766
H     1.69980   1.24984   1.34378
27

C    -1.18000  -4.24394   0.39183
N    -0.92512  -2.99507  -0.30072
C    -0.74396  -1.85488   0.39131
O    -0.84528  -1.81334   1.61672
C    -0.40749  -0.60801  -0.40322
Br   -0.24847  -0.82207  -2.31606
C     2.03856  -1.00835  -0.01406
C     2.00866  -1.39456   1.39915
O     2.04296  -0.62226   2.34235
O     1.96274  -2.72393   1.50853
C     1.85720  -3.25649   2.83700
O     2.23609   0.23107  -0.39359
C     1.84514   1.30411   0.26677
C     2.08653   2.53560  -0.37617
N     2.23458   3.57564  -0.88220
C    -0.58499   0.69374   0.04820
Br   -1.07108   2.11450  -1.14232
Br   -1.09349   1.11729   1.83601
H    -1.38056  -5.02264  -0.35359
H    -2.05155  -4.15426   1.05775
H    -0.31323  -4.54590   1.00031
H    -0.81487  -3.00804  -1.30722
H     2.28892  -1.74331  -0.77338
H     1.81640  -4.34532   2.72115
H     2.73488  -2.96970   3.43394
H     0.94153  -2.88765   3.31785
H     1.69941   1.24990   1.34373
27

C    -1.18084  -4.24343   0.39158
N    -0.92676  -2.99417  -0.30092
C    -0.74286  -1.85464   0.39152
O    -0.84588  -1.81333   1.61682
C    -0.38476  -0.61096  -0.39940
Br   -0.24783  -0.82202  -2.31616
C     2.01725  -1.00613  -0.01665
C     2.00395  -1.39420   1.39994
O     2.04461  -0.62252   2.34239
O     1.96095  -2.72276   1.50805
C     1.85772  -3.25679   2.83676
O     2.23784   0.23196  -0.39511
C     1.82378   1.30175   0.26371
C     2.08003   2.53543  -0.37497
N     2.23489   3.57392  -0.88078
C    -0.55585   0.70062   0.05124
Br   -1.07199   2.11249  -1.14243
Br   -1.09222   1.11706   1.83543
H    -1.38076  -5.02249  -0.35369
H    -2.05177  -4.15431   1.05772
H    -0.31339  -4.54568   1.00016
H    -0.81445  -3.00788  -1.30718
H     2.28482  -1.74348  -0.77279
H     1.81662  -4.34536   2.72079
H     2.73524  -2.96975   3.43350
H     0.94180  -2.88783   3.31805
H     1.69903   1.24996   1.34368
27

C    -1.18169  -4.24292   0.39133
N    -0.92839  -2.99326  -0.30111
C    -0.74176  -1.85441   0.39173
O    -0.84648  -1.81332   1.61693
C    -0.36203  -0.61392  -0.39558
Br   -0.24718  -0.82197  -2.31625
C     1.99594  -1.00391  -0.01925
C     1.99923  -1.39384   1.40073
O     2.04627  -0.62279   2.34244
O     1.95916  -2.72158   1.50757
C     1.85824  -3.25708   2.83652
O     2.23960   0.23284  -0.39664
C     1.80243   1.29939   0.26064
C     2.07354   2.53526  -0.37376
N     2.23520   3.57220  -0.87935
C    -0.52672   0.70750   0.05427
Br   -1.07289   2.11049  -1.14253
Br   -1.09095   1.11682   1.83485
H    -1.38095  -5.02233  -0.35379
H    -2.05200  -4.15436   1.05768
H    -0.31355  -4.54546   1.00002
H    -0.81403  -3.00773  -1.30713
H     2.28073  -1.74365  -0.77219
H     1.81683  -4.34540   2.72044
H     2.73560  -2.96980   3.43306
H     0.94207  -2.88800   3.31824
H     1.69864   1.25003   1.34363
27

C    -1.18253  -4.24242   0.39109
N    -0.93003  -2.99236  -0.30130
C    -0.74067  -1.85418   0.39194
O    -0.84709  -1.81331   1.61703
C    -0.33930  -0.61687  -0.39176
Br   -0.24654  -0.82191  -2.31635
C     1.97462  -1.00170  -0.02184
C     1.99452  -1.39348   1.40152
O     2.04792  -0.62306   2.34248
O     1.95737  -2.72041   1.50709
C     1.85876  -3.25738   2.83629
O     2.24135   0.23373  -0.39816
C     1.78107   1.29704   0.25757
C     2.06704   2.53509  -0.37256
N     2.23551   3.57048  -0.87793
C    -0.49759   0.71438   0.05730
Br   -1.07379   2.10848  -1.14264
Br   -1.08968   1.11659   1.83428
H    -1.38114  -5.02218  -0.35389
H    -2.05222  -4.15442   1.05765
H    -0.31371  -4.54523   0.99988
H    -0.81360  -3.00757  -1.30709
H     2.27664  -1.74382  -0.77160
H     1.81704  -4.34545   2.72008
H     2.73596  -2.96985   3.43262
H     0.94234  -2.88818   3.31844
H     1.69826   1.25009   1.34359
27

C    -1.18338  -4.24191   0.39084
N    -0.93167  -2.99146  -0.30150
C    -0.73957  -1.85394   0.39215
O    -0.84769  -1.81330   1.61714
C    -0.31657  -0.61983  -0.38794
Br   -0.24590  -0.82186  -2.31645
C     1.95331  -0.99948  -0.02444
C     1.98980  -1.39313   1.40231
O     2.04957  -0.62333   2.34253
O     1.95557  -2.71924   1.50661
C     1.85928  -3.25768   2.83605
O     2.24310   0.23462  -0.39969
C     1.75971   1.29468   0.25451
C     2.06054   2.53492  -0.37135
N     2.23583   3.56876  -0.87650
C    -0.46845   0.72127   0.06033
Br   -1.07470   2.10648  -1.14274
Br   -1.08841   1.11635   1.83370
H    -1.38133  -5.02202  -0.35399
H    -2.05244  -4.15447   1.05761
H    -0.31387  -4.54501   0.99973
H    -0.81318  -3.00741  -1.30705
H     2.27255  -1.74399  -0.77100
H     1.81726  -4.34549   2.71973
H     2.73632  -2.96990   3.43219
H     0.94261  -2.88836   3.31863
H     1.69787   1.25015   1.34354
27

C    -1.18422  -4.24140   0.39059
N    -0.93330  -2.99055  -0.30169
C    -0.73847  -1.85371   0.39236
O    -0.84829  -1.81329   1.61725
C    -0.29385  -0.62278  -0.38413
Br   -0.24525  -0.82181  -2.31654
C     1.93200  -0.99726  -0.02703
C     1.98509  -1.39277   1.40310
O     2.05123  -0.62360   2.34257
O     1.95378  -2.71806   1.50613
C     1.85980  -3.25797   2.83581
O     2.24485   0.23550  -0.40122
C     1.73835   1.29232   0.25144
C     2.05404   2.53475  -0.37015
N     2.23614   3.56705  -0.87508
C    -0.43932   0.72815   0.06337
Br   -1.07560   2.10447  -1.14285
Br   -1.08714   1.11612   1.83312
H    -1.38152  -5.02186  -0.35409
H    -2.05267  -4.15452   1.05757
H    -0.31403  -4.54478   0.99959
H    -0.81276  -3.00725  -1.30700
H     2.26846  -1.74415  -0.77041
H     1.81747  -4.34554   2.71937
H     2.73668  -2.96995   3.43175
H     0.94288  -2.88854   3.31883
H     1.69748   1.25021   1.34349
27

C    -1.18506  -4.24090   0.39034
N    -0.93494  -2.98965  -0.30189
C    -0.73737  -1.85348   0.39257
O    -0.84889  -1.81328   1.61735
C    -0.27112  -0.62574  -0.38031
Br   -0.24461  -0.82176  -2.31664
C     1.91069  -0.99505  -0.02963
C     1.98037  -1.39241   1.40388
O     2.05288  -0.62386   2.34262
O     1.95199  -2.71689   1.50565
C     1.86032  -3.25827   2.83557
O     2.24660   0.23639  -0.40274
C     1.71700   1.28996   0.24838
C     2.04755   2.53457  -0.36894
N     2.23645   3.56533  -0.87365
C    -0.41018   0.73503   0.06640
Br   -1.07650   2.10247  -1.14295
Br   -1.08587   1.11589   1.83255
H    -1.38171  -5.02171  -0.35419
H    -2.05289  -4.15458   1.05754
H    -0.31418  -4.54456   0.99945
H    -0.81233  -3.00710  -1.30696
H     2.26437  -1.74432  -0.76981
H     1.81768  -4.34558   2.71902
H     2.73704  -2.97000   3.43131
H     0.94315  -2.88872   3.31902
H     1.69710   1.25027   1.34344
27

C    -1.18591  -4.24039   0.39009
N    -0.93658  -2.98875  -0.30208
C    -0.73627  -1.85324   0.39278
O    -0.84949  -1.81327   1.61746
C    -0.24839  -0.62869  -0.37649
Br   -0.24397  -0.82171  -2.31674
C     1.88937  -0.99283  -0.03222
C     1.97565  -1.39205   1.40467
O     2.05453  -0.62413   2.34266
O     1.95020  -2.71571   1.50518
C     1.86084  -3.25857   2.83533
O     2.24836   0.23727  -0.40427
C     1.69564   1.28761   0.24531
C     2.04105   2.53440  -0.36773
N     2.23677   3.56361  -0.87223
C    -0.38105   0.74191   0.06943
Br   -1.07741   2.10046  -1.14306
Br   -1.08460   1.11565   1.83197
H    -1.38191  -5.02155  -0.35429
H    -2.05311  -4.15463   1.05750
H    -0.31434  -4.54434   0.99930
H    -0.81191  -3.00694  -1.30691
H     2.26028  -1.74449  -0.76922
H     1.81790  -4.34563   2.71866
H     2.73740  -2.97005   3.43087
H     0.94342  -2.88889   3.31922
H     1.69671   1.25033   1.34339
27

C    -1.18675  -4.23988   0.38984
N    -0.93821  -2.98784  -0.30227
C    -0.73517  -1.85301   0.39299
O    -0.85010  -1.81326   1.61756
C    -0.22566  -0.63165  -0.37267
Br   -0.24332  -0.82166  -2.31684
C     1.86806  -0.99062  -0.03482
C     1.97094  -1.39169   1.40546
O     2.05619  -0.62440   2.34270
O     1.94841  -2.71454   1.50470
C     1.86136  -3.25886   2.83509
O     2.25011   0.23816  -0.40580
C     1.67428   1.28525   0.24225
C     2.03455   2.53423  -0.36653
N     2.23708   3.56189  -0.87080
C    -0.35192   0.74879   0.07246
Br   -1.07831   2.09845  -1.14316
Br   -1.08333   1.11542   1.83139
H    -1.38210  -5.02140  -0.35439
H    -2.05334  -4.15469   1.05747
H    -0.31450  -4.54411   0.99916
H    -0.81149  -3.00678  -1.30687
H     2.25619  -1.74466  -0.76863
H     1.81811  -4.34567   2.71830
H     2.73777  -2.97011   3.43044
H     0.94369  -2.88907   3.31941
H     1.69633   1.25039   1.34334
27

C    -1.18760  -4.23938   0.38959
N    -0.93985  -2.98694  -0.30247
C    -0.73407  -1.85278   0.39320
O    -0.85070  -1.81325   1.61767
C    -0.20293  -0.63460  -0.36886
Br   -0.24268  -0.82161  -2.31693
C     1.84675  -0.98840  -0.03741
C     1.96622  -1.39133   1.40625
O     2.05784  -0.62467   2.34275
O     1.94662  -2.71337   1.50422
C     1.86188  -3.25916   2.83485
O     2.25186   0.23905  -0.40732
C     1.65293   1.28289   0.23918
C     2.02806   2.53406  -0.36532
N     2.23739   3.56018  -0.86938
C    -0.32278   0.75567   0.07550
Br   -1.07922   2.09645  -1.14327
Br   -1.08206   1.11518   1.83082
H    -1.38229  -5.02124  -0.35449
H    -2.05356  -4.15474   1.05743
H    -0.31466  -4.54389   0.99902
H    -0.81106  -3.00663  -1.30683
H     2.25209  -1.74483  -0.76803
H     1.81832  -4.34571   2.71795
H     2.73813  -2.97016   3.43000
H     0.94396  -2.88925   3.31961
H     1.69594   1.25045   1.34329
27

C    -1.18844  -4.23887   0.38934
N    -0.94149  -2.98604  -0.30266
C    -0.73297  -1.85254   0.39341
O    -0.85130  -1.81324   1.61777
C    -0.18021  -0.63756  -0.36504
Br   -0.24204  -0.82156  -2.31703
C     1.82544  -0.98618  -0.04000
C     1.96151  -1.39097   1.40704
O     2.05949  -0.62493   2.34279
O     1.94482  -2.71219   1.50374
C     1.86240  -3.25946   2.83461
O     2.25361   0.23993  -0.40885
C     1.63157   1.28053   0.23611
C     2.02156   2.53389  -0.36412
N     2.23771   3.55846  -0.86796
C    -0.29365   0.76255   0.07853
Br   -1.08012   2.09444  -1.14337
Br   -1.08079   1.11495   1.83024
H    -1.38248  -5.02108  -0.35459
H    -2.05379  -4.15479   1.05740
H    -0.31482  -4.54367   0.99887
H    -0.81064  -3.00647  -1.30678
H     2.24800  -1.74500  -0.76744
H     1.81854  -4.34576   2.71759
H     2.73849  -2.97021   3.42956
H     0.94422  -2.88943   3.31980
H     1.69556   1.25052   1.34325
27

C    -1.18928  -4.23836   0.38909
N    -0.94312  -2.98513  -0.30286
C    -0.73187  -1.85231   0.39361
O    -0.85190  -1.81323   1.61788
C    -0.15748  -0.64051  -0.36122
Br   -0.24139  -0.82151  -2.31713
C     1.80412  -0.98397  -0.04260
C     1.95679  -1.39061   1.40783
O     2.06115  -0.62520   2.34284
O     1.94303  -2.71102   1.50326
C     1.86292  -3.25975   2.83437
O     2.25536   0.24082  -0.41037
C     1.61021   1.27818   0.23305
C     2.01506   2.53372  -0.36291
N     2.23802   3.55674  -0.86653
C    -0.26451   0.76944   0.08156
Br   -1.08102   2.09244  -1.14348
Br   -1.07952   1.11472   1.82966
H    -1.38267  -5.02093  -0.35469
H    -2.05401  -4.15485   1.05736
H    -0.31498  -4.54344   0.99873
H    -0.81022  -3.00631  -1.30674
H     2.24391  -1.74517  -0.76684
H     1.81875  -4.34580   2.71724
H     2.73885  -2.97026   3.42912
H     0.94449  -2.88961   3.32000
H     1.69517   1.25058   1.34320
27

C    -1.18844  -4.23887   0.38934
N    -0.94149  -2.98604  -0.30266
C    -0.73297  -1.85254   0.39341
O    -0.85130  -1.81324   1.61777
C    -0.18021  -0.63756  -0.36504
Br   -0.24204  -0.82156  -2.31703
C     1.82544  -0.98618  -0.04000
C     1.96151  -1.39097   1.40704
O     2.05949  -0.62493   2.34279
O     1.94482  -2.71219   1.50374
C     1.86240  -3.25946   2.83461
O     2.25361   0.23993  -0.40885
C     1.63157   1.28053   0.23611
C     2.02156   2.53389  -0.36412
N     2.23771   3.55846  -0.86796
C    -0.29365   0.76255   0.07853
Br   -1.08012   2.09444  -1.14337
Br   -1.08079   1.11495   1.83024
H    -1.38248  -5.02108  -0.35459
H    -2.05379  -4.15479   1.05740
H    -0.31482  -4.54367   0.99887
H    -0.81064  -3.00647  -1.30678
H     2.24800  -1.74500  -0.76744
H     1.81854  -4.34576   2.71759
H     2.73849  -2.97021   3.42956
H     0.94422  -2.88943   3.31980
H     1.69556   1.25052   1.34325
27

C    -1.18760  -4.23938   0.38959
N    -0.93985  -2.98694  -0.30247
C    -0.73407  -1.85278   0.39320
O    -0.85070  -1.81325   1.61767
C    -0.20293  -0.63460  -0.36886
Br   -0.24268  -0.82161  -2.31693
C     1.84675  -0.98840  -0.03741
C     1.96622  -1.39133   1.40625
O     2.05784  -0.62467   2.34275
O     1.94662  -2.71337   1.50422
C     1.86188  -3.25916   2.83485
O     2.25186   0.23905  -0.40732
C     1.65293   1.28289   0.23918
C     2.02806   2.53406  -0.36532
N     2.23739   3.56018  -0.86938
C    -0.32278   0.75567   0.07550
Br   -1.07922   2.09645  -1.14327
Br   -1.08206   1.11518   1.83082
H    -1.38229  -5.02124  -0.35449
H    -2.05356  -4.15474   1.05743
H    -0.31466  -4.54389   0.99902
H    -0.81106  -3.00663  -1.30683
H     2.25209  -1.74483  -0.76803
H     1.81832  -4.34571   2.71795
H     2.73813  -2.97016   3.43000
H     0.94396  -2.88925   3.31961
H     1.69594   1.25045   1.34329
27

C    -1.18675  -4.23988   0.38984
N    -0.93821  -2.98784  -0.30227
C    -0.73517  -1.85301   0.39299
O    -0.85010  -1.81326   1.61756
C    -0.22566  -0.63165  -0.37267
Br   -0.24332  -0.82166  -2.31684
C     1.86806  -0.99062  -0.03482
C     1.97094  -1.39169   1.40546
O     2.05619  -0.62440   2.34270
O     1.94841  -2.71454   1.50470
C     1.86136  -3.25886   2.83509
O     2.25011   0.23816  -0.40580
C     1.67428   1.28525   0.24225
C     2.03455   2.53423  -0.36653
N     2.23708   3.56189  -0.87080
C    -0.35192   0.74879   0.07246
Br   -1.07831   2.09845  -1.14316
Br   -1.08333   1.11542   1.83139
H    -1.38210  -5.02140  -0.35439
H    -2.05334  -4.15469   1.05747
H    -0.31450  -4.54411   0.99916
H    -0.81149  -3.00678  -1.30687
H     2.25619  -1.74466  -0.76863
H     1.81811  -4.34567   2.71830
H     2.73777  -2.97011   3.43044
H     0.94369  -2.88907   3.31941
H     1.69633   1.25039   1.34334
27

C    -1.18591  -4.24039   0.39009
N    -0.93658  -2.98875  -0.30208
C    -0.73627  -1.85324   0.39278
O    -0.84949  -1.81327   1.61746
C    -0.24839  -0.62869  -0.37649
Br   -0.24397  -0.82171  -2.31674
C     1.88937  -0.99283  -0.03222
C     1.97565  -1.39205   1.40467
O     2.05453  -0.62413   2.34266
O     1.95020  -2.71571   1.50518
C     1.86084  -3.25857   2.83533
O     2.24836   0.23727  -0.40427
C     1.69564   1.28761   0.24531
C     2.04105   2.53440  -0.36773
N     2.23677   3.56361  -0.87223
C    -0.38105   0.74191   0.06943
Br   -1.07741   2.10046  -1.14306
Br   -1.08460   1.11565   1.83197
H    -1.38191  -5.02155  -0.35429
H    -2.05311  -4.15463   1.05750
H    -0.31434  -4.54434   0.99930
H    -0.81191  -3.00694  -1.30691
H     2.26028  -1.74449  -0.76922
H     1.81790  -4.34563   2.71866
H     2.73740  -2.97005   3.43087
H     0.94342  -2.88889   3.31922
H     1.69671   1.25033   1.34339
27

C    -1.18506  -4.24090   0.39034
N    -0.93494  -2.98965  -0.30189
C    -0.73737  -1.85348   0.39257
O    -0.84889  -1.81328   1.61735
C    -0.27112  -0.62574  -0.38031
Br   -0.24461  -0.82176  -2.31664
C     1.91069  -0.99505  -0.02963
C     1.98037  -1.39241   1.40388
O     2.05288  -0.62386   2.34262
O     1.95199  -2.71689   1.50565
C     1.86032  -3.25827   2.83557
O     2.24660   0.23639  -0.40274
C     1.71700   1.28996   0.24838
C     2.04755   2.53457  -0.36894
N     2.23645   3.56533  -0.87365
C    -0.41018   0.73503   0.06640
Br   -1.07650   2.10247  -1.14295
Br   -1.08587   1.11589   1.83255
H    -1.38171  -5.02171  -0.35419
H    -2.05289  -4.15458   1.05754
H    -0.31418  -4.54456   0.99945
H    -0.81233  -3.00710  -1.30696
H     2.26437  -1.74432  -0.76981
H     1.81768  -4.34558   2.71902
H     2.73704  -2.97000   3.43131
H     0.94315  -2.88872   3.31902
H     1.69710   1.25027   1.34344
27

C    -1.18422  -4.24140   0.39059
N    -0.93330  -2.99055  -0.30169
C    -0.73847  -1.85371   0.39236
O    -0.84829  -1.81329   1.61725
C    -0.29385  -0.62278  -0.38413
Br   -0.24525  -0.82181  -2.31654
C     1.93200  -0.99726  -0.02703
C     1.98509  -1.39277   1.40310
O     2.05123  -0.62360   2.34257
O     1.95378  -2.71806   1.50613
C     1.85980  -3.25797   2.83581
O     2.24485   0.23550  -0.40122
C     1.73835   1.29232   0.25144
C     2.05404   2.53475  -0.37015
N     2.23614   3.56705  -0.87508
C    -0.43932   0.72815   0.06337
Br   -1.07560   2.10447  -1.14285
Br   -1.08714   1.11612   1.83312
H    -1.38152  -5.02186  -0.35409
H    -2.05267  -4.15452   1.05757
H    -0.31403  -4.54478   0.99959
H    -0.81276  -3.00725  -1.30700
H     2.26846  -1.74415  -0.77041
H     1.81747  -4.34554   2.71937
H     2.73668  -2.96995   3.43175
H     0.94288  -2.88854   3.31883
H     1.69748   1.25021   1.34349
27

C    -1.18338  -4.24191   0.39084
N    -0.93167  -2.99146  -0.30150
C    -0.73957  -1.85394   0.39215
O    -0.84769  -1.81330   1.61714
C    -0.31657  -0.61983  -0.38794
Br   -0.24590  -0.82186  -2.31645
C     1.95331  -0.99948  -0.02444
C     1.98980  -1.39313   1.40231
O     2.04957  -0.62333   2.34253
O     1.95557  -2.71924   1.50661
C     1.85928  -3.25768   2.83605
O     2.24310   0.23462  -0.39969
C     1.75971   1.29468   0.25451
C     2.06054   2.53492  -0.37135
N     2.23583   3.56876  -0.87650
C    -0.46845   0.72127   0.06033
Br   -1.07470   2.10648  -1.14274
Br   -1.08841   1.11635   1.83370
H    -1.38133  -5.02202  -0.35399
H    -2.05244  -4.15447   1.05761
H    -0.31387  -4.54501   0.99973
H    -0.81318  -3.00741  -1.30705
H     2.27255  -1.74399  -0.77100
H     1.81726  -4.34549   2.71973
H     2.73632  -2.96990   3.43219
H     0.94261  -2.88836   3.31863
H     1.69787   1.25015   1.34354
27

C    -1.18253  -4.24242   0.39109
N    -0.93003  -2.99236  -0.30130
C    -0.74067  -1.85418   0.39194
O    -0.84709  -1.81331   1.61703
C    -0.33930  -0.61687  -0.39176
Br   -0.24654  -0.82191  -2.31635
C     1.97462  -1.00170  -0.02184
C     1.99452  -1.39348   1.40152
O     2.04792  -0.62306   2.34248
O     1.95737  -2.72041   1.50709
C     1.85876  -3.25738   2.83629
O     2.24135   0.23373  -0.39816
C     1.78107   1.29704   0.25757
C     2.06704   2.53509  -0.37256
N     2.23551   3.57048  -0.87793
C    -0.49759   0.71438   0.05730
Br   -1.07379   2.10848  -1.14264
Br   -1.08968   1.11659   1.83428
H    -1.38114  -5.02218  -0.35389
H    -2.05222  -4.15442   1.05765
H    -0.31371  -4.54523   0.99988
H    -0.81360  -3.00757  -1.30709
H     2.27664  -1.74382  -0.77160
H     1.81704  -4.34545   2.72008
H     2.73596  -2.96985   3.43262
H     0.94234  -2.88818   3.31844
H     1.69826   1.25009   1.34359
27

C    -1.18169  -4.24292   0.39133
N    -0.92839  -2.99326  -0.30111
C    -0.74176  -1.85441   0.39173
O    -0.84648  -1.81332   1.61693
C    -0.36203  -0.61392  -0.39558
Br   -0.24718  -0.82197  -2.31625
C     1.99594  -1.00391  -0.01925
C     1.99923  -1.39384   1.40073
O     2.04627  -0.62279   2.34244
O     1.95916  -2.72158   1.50757
C     1.85824  -3.25708   2.83652
O     2.23960   0.23284  -0.39664
C     1.80243   1.29939   0.26064
C     2.07354   2.53526  -0.37376
N     2.23520   3.57220  -0.87935
C    -0.52672   0.70750   0.05427
Br   -1.07289   2.11049  -1.14253
Br   -1.09095   1.11682   1.83485
H    -1.38095  -5.02233  -0.35379
H    -2.05200  -4.15436   1.05768
H    -0.31355  -4.54546   1.00002
H    -0.81403  -3.00773  -1.30713
H     2.28073  -1.74365  -0.77219
H     1.81683  -4.34540   2.72044
H     2.73560  -2.96980   3.43306
H     0.94207  -2.88800   3.31824
H     1.69864   1.25003   1.34363
27

C    -1.18084  -4.24343   0.39158
N    -0.92676  -2.99417  -0.30092
C    -0.74286  -1.85464   0.39152
O    -0.84588  -1.81333   1.61682
C    -0.38476  -0.61096  -0.39940
Br   -0.24783  -0.82202  -2.31616
C     2.01725  -1.00613  -0.01665
C     2.00395  -1.39420   1.39994
O     2.04461  -0.62252   2.34239
O     1.96095  -2.72276   1.50805
C     1.85772  -3.25679   2.83676
O     2.23784   0.23196  -0.39511
C     1.82378   1.30175   0.26371
C     2.08003   2.53543  -0.37497
N     2.23489   3.57392  -0.88078
C    -0.55585   0.70062   0.05124
Br   -1.07199   2.11249  -1.14243
Br   -1.09222   1.11706   1.83543
H    -1.38076  -5.02249  -0.35369
H    -2.05177  -4.15431   1.05772
H    -0.31339  -4.54568   1.00016
H    -0.81445  -3.00788  -1.30718
H     2.28482  -1.74348  -0.77279
H     1.81662  -4.34536   2.72079
H     2.73524  -2.96975   3.43350
H     0.94180  -2.88783   3.31805
H     1.69903   1.24996   1.34368
27

C    -1.18000  -4.24394   0.39183
N    -0.92512  -2.99507  -0.30072
C    -0.74396  -1.85488   0.39131
O    -0.84528  -1.81334   1.61672
C    -0.40749  -0.60801  -0.40322
Br   -0.24847  -0.82207  -2.31606
C     2.03856  -1.00835  -0.01406
C     2.00866  -1.39456   1.39915
O     2.04296  -0.62226   2.34235
O     1.96274  -2.72393   1.50853
C     1.85720  -3.25649   2.83700
O     2.23609   0.23107  -0.39359
C     1.84514   1.30411   0.26677
C     2.08653   2.53560  -0.37617
N     2.23458   3.57564  -0.88220
C    -0.58499   0.69374   0.04820
Br   -1.07108   2.11450  -1.14232
Br   -1.09349   1.11729   1.83601
H    -1.38056  -5.02264  -0.35359
H    -2.05155  -4.15426   1.05775
H    -0.31323  -4.54590   1.00031
H    -0.81487  -3.00804  -1.30722
H     2.28892  -1.74331  -0.77338
H     1.81640  -4.34532   2.72115
H     2.73488  -2.96970   3.43394
H     0.94153  -2.88765   3.31785
H     1.69941   1.24990   1.34373
27

C    -1.17916  -4.24444   0.39208
N    -0.92349  -2.99597  -0.30053
C    -0.74506  -1.85511   0.39110
O    -0.84468  -1.81335   1.61661
C    -0.43021  -0.60505  -0.40703
Br   -0.24911  -0.82212  -2.31596
C     2.05987  -1.01056  -0.01147
C     2.01338  -1.39492   1.39837
O     2.04131  -0.62199   2.34231
O     1.96453  -2.72510   1.50901
C     1.85668  -3.25619   2.83724
O     2.23434   0.23018  -0.39206
C     1.86650   1.30647   0.26984
C     2.09303   2.53578  -0.37738
N     2.23426   3.57735  -0.88362
C    -0.61412   0.68686   0.04517
Br   -1.07018   2.11651  -1.14222
Br   -1.09476   1.11752   1.83658
H    -1.38037  -5.02280  -0.35349
H    -2.05133  -4.15420   1.05779
H    -0.31307  -4.54613   1.00045
H    -0.81530  -3.00820  -1.30727
H     2.29301  -1.74314  -0.77397
H     1.81619  -4.34527   2.72150
H     2.73452  -2.96964   3.43438
H     0.94126  -2.88747   3.31766
H     1.69980   1.24984   1.34378
27

C    -1.17831  -4.24495   0.39233
N    -0.92185  -2.99688  -0.30033
C    -0.74616  -1.85534   0.39089
O    -0.84408  -1.81336   1.61650
C    -0.45294  -0.60210  -0.41085
Br   -0.24975  -0.82217  -2.31586
C     2.08119  -1.01278  -0.00887
C     2.01809  -1.39528   1.39758
O     2.03965  -0.62172   2.34226
O     1.96632  -2.72628   1.50948
C     1.85616  -3.25590   2.83748
O     2.23259   0.22930  -0.39053
C     1.88785   1.30882   0.27290
C     2.09953   2.53595  -0.37859
N     2.23395   3.57907  -0.88505
C    -0.64326   0.67998   0.04214
Br   -1.06928   2.11851  -1.14211
Br   -1.09603   1.11776   1.83716
H    -1.38018  -5.02296  -0.35339
H    -2.05110  -4.15415   1.05782
H    -0.31292  -4.54635   1.00060
H    -0.81572  -3.00836  -1.30731
H     2.29710  -1.74297  -0.77457
H     1.81597  -4.34523   2.72186
H     2.73416  -2.96959   3.43481
H     0.94099  -2.88729   3.31746
H     1.70018   1.24978   1.34383
27

C    -1.17747  -4.24546   0.39258
N    -0.92021  -2.99778  -0.30014
C    -0.74726  -1.85558   0.39068
O    -0.84348  -1.81337   1.61640
C    -0.47567  -0.59915  -0.41467
Br   -0.25040  -0.82222  -2.31577
C     2.10250  -1.01500  -0.00628
C     2.02281  -1.39564   1.39679
O     2.03800  -0.62145   2.34222
O     1.96812  -2.72745   1.50996
C     1.85564  -3.25560   2.83772
O     2.23084   0.22841  -0.38901
C     1.90921   1.31118   0.27597
C     2.10602   2.53612  -0.37979
N     2.23364   3.58079  -0.88647
C    -0.67239   0.67310   0.03911
Br   -1.06837   2.12052  -1.14201
Br   -1.09730   1.11799   1.83773
H    -1.37999  -5.02311  -0.35329
H    -2.05088  -4.15409   1.05786
H    -0.31276  -4.54657   1.00074
H    -0.81614  -3.00851  -1.30735
H     2.30119  -1.74280  -0.77516
H     1.81576  -4.34518   2.72221
H     2.73379  -2.96954   3.43525
H     0.94072  -2.88711   3.31727
H     1.70057   1.24972   1.34388
27

C    -1.17662  -4.24596   0.39283
N    -0.91858  -2.99868  -0.29994
C    -0.74836  -1.85581   0.39047
O    -0.84287  -1.81338   1.61629
C    -0.49840  -0.59619  -0.41849
Br   -0.25104  -0.82227  -2.31567
C     2.12381  -1.01721  -0.00368
C     2.02752  -1.39600   1.39600
O     2.03635  -0.62118   2.34217
O     1.96991  -2.72862   1.51044
C     1.85512  -3.25530   2.83796
O     2.22908   0.22753  -0.38748
C     1.93057   1.31354   0.27903
C     2.11252   2.53629  -0.38100
N     2.23332   3.58251  -0.88790
C    -0.70152   0.66621   0.03607
Br   -1.06747   2.12252  -1.14190
Br   -1.09857   1.11823   1.83831
H    -1.37980  -5.02327  -0.35319
H    -2.05065  -4.15404   1.05789
H    -0.31260  -4.54680   1.00088
H    -0.81657  -3.00867  -1.30740
H     2.30528  -1.74263  -0.77576
H     1.81555  -4.34514   2.72257
H     2.73343  -2.96949   3.43569
H     0.94046  -2.88694   3.31707
H     1.70096   1.24966   1.34393
27

C    -1.17578  -4.24647   0.39308
N    -0.91694  -2.99959  -0.29975
C    -0.74946  -1.85604   0.39026
O    -0.84227  -1.81338   1.61619
C    -0.52113  -0.59324  -0.42231
Br   -0.25168  -0.82232  -2.31557
C     2.14512  -1.01943  -0.00109
C     2.03224  -1.39636   1.39521
O     2.03469  -0.62092   2.34213
O     1.97170  -2.72980   1.51092
C     1.85460  -3.25501   2.83820
O     2.22733   0.22664  -0.38595
C     1.95192   1.31590   0.28210
C     2.11902   2.53646  -0.38220
N     2.23301   3.58422  -0.88932
C    -0.73066   0.65933   0.03304
Br   -1.06656   2.12453  -1.14179
Br   -1.09983   1.11846   1.83889
H    -1.37960  -5.02342  -0.35309
H    -2.05043  -4.15399   1.05793
H    -0.31244  -4.54702   1.00103
H    -0.81699  -3.00883  -1.30744
H     2.30937  -1.74246  -0.77635
H     1.81533  -4.34509   2.72292
H     2.73307  -2.96944   3.43613
H     0.94019  -2.88676   3.31688
H     1.70134   1.24960   1.34397
27

C    -1.17494  -4.24698   0.39333
N    -0.91530  -3.00049  -0.29956
C    -0.75056  -1.85628   0.39005
O    -0.84167  -1.81339   1.61608
C    -0.54385  -0.59028  -0.42612
Br   -0.25233  -0.82237  -2.31547
C     2.16644  -1.02164   0.00151
C     2.03696  -1.39672   1.39442
O     2.03304  -0.62065   2.34209
O     1.97349  -2.73097   1.51140
C     1.85408  -3.25471   2.83844
O     2.22558   0.22575  -0.38443
C     1.97328   1.31825   0.28517
C     2.12551   2.53663  -0.38341
N     2.23270   3.58594  -0.89075
C    -0.75979   0.65245   0.03001
Br   -1.06566   2.12654  -1.14169
Br   -1.10110   1.11869   1.83946
H    -1.37941  -5.02358  -0.35299
H    -2.05021  -4.15393   1.05797
H    -0.31228  -4.54725   1.00117
H    -0.81741  -3.00898  -1.30749
H     2.31346  -1.74229  -0.77695
H     1.81512  -4.34505   2.72328
H     2.73271  -2.96939   3.43656
H     0.93992  -2.88658   3.31668
H     1.70173   1.24954   1.34402
27

C    -1.17409  -4.24748   0.39358
N    -0.91367  -3.00139  -0.29936
C    -0.75166  -1.85651   0.38984
O    -0.84107  -1.81340   1.61598
C    -0.56658  -0.58733  -0.42994
Br   -0.25297  -0.82242  -2.31538
C     2.18775  -1.02386   0.00410
C     2.04167  -1.39708   1.39364
O     2.03139  -0.62038   2.34204
O     1.97528  -2.73214   1.51188
C     1.85356  -3.25442   2.83868
O     2.22383   0.22487  -0.38290
C     1.99464   1.32061   0.28823
C     2.13201   2.53681  -0.38461
N     2.23238   3.58766  -0.89217
C    -0.78893   0.64557   0.02698
Br   -1.06476   2.12854  -1.14158
Br   -1.10237   1.11893   1.84004
H    -1.37922  -5.02374  -0.35289
H    -2.04998  -4.15388   1.05800
H    -0.31212  -4.54747   1.00131
H    -0.81784  -3.00914  -1.30753
H     2.31755  -1.74212  -0.77754
H     1.81491  -4.34501   2.72363
H     2.73235  -2.96934   3.43700
H     0.93965  -2.88640   3.31649
H     1.70211   1.24948   1.34407
27

C    -1.17325  -4.24799   0.39383
N    -0.91203  -3.00230  -0.29917
C    -0.75276  -1.85674   0.38963
O    -0.84047  -1.81341   1.61587
C    -0.58931  -0.58437  -0.43376
Br   -0.25361  -0.82247  -2.31528
C     2.20906  -1.02608   0.00670
C     2.04639  -1.39744   1.39285
O     2.02973  -0.62011   2.34200
O     1.97708  -2.73332   1.51236
C     1.85304  -3.25412   2.83892
O     2.22207   0.22398  -0.38138
C     2.01599   1.32297   0.29130
C     2.13851   2.53698  -0.38582
N     2.23207   3.58938  -0.89359
C    -0.81806   0.63869   0.02394
Br   -1.06385   2.13055  -1.14148
Br   -1.10364   1.11916   1.84062
H    -1.37903  -5.02389  -0.35279
H    -2.04976  -4.15382   1.05804
H    -0.31197  -4.54769   1.00146
H    -0.81826  -3.00930  -1.30757
H     2.32165  -1.74195  -0.77813
H     1.81469  -4.34496   2.72399
H     2.73199  -2.96929   3.43744
H     0.93938  -2.88622   3.31629
H     1.70250   1.24941   1.34412
