14

C -3.397757241 -0.094316080 -1.134190225
C -0.762253517 -0.860552232 -0.486239590
O -0.487083371 -3.223033787 0.455561984
H -2.100206863 -4.043350291 0.549572986
C 1.308395100 0.578361433 -0.754884568
C 3.938070021 -0.261476094 -0.081161658
H 4.791771353 1.035616309 1.276227956
H 5.144061127 -0.294735935 -1.754861624
H 3.904116386 -2.144495486 0.740794259
C 1.026324318 3.070509210 -1.749455175
N 0.864753037 5.088747804 -2.543856221
H -3.468846451 1.810272533 -1.900335633
H -4.589446030 -0.165223763 0.552838584
H -4.187696927 -1.391408879 -2.535915951

