16

C -2.622240776 -0.644674115 -1.459692942
C -1.362727410 -0.369170565 1.104433539
O -0.892807249 -2.743045052 2.248151008
C 1.229235550 0.951763870 1.011317492
C 3.154287856 -0.337091311 -0.718720860
C 0.891720335 3.608840934 0.311228935
N 0.606220758 5.678835630 -0.267849214
H -2.853264897 1.191512270 -2.371014802
H -4.499707774 -1.475536198 -1.245542507
H -1.515789160 -1.869588995 -2.694199430
H -2.581657660 0.772290910 2.335393578
H -2.418293312 -3.719456922 2.219098150
H 1.953171771 0.930613223 2.946988377
H 5.008566649 0.531188049 -0.500380543
H 2.612235507 -0.177348907 -2.699506159
H 3.291049830 -2.329132840 -0.219704624

