16

C -3.477812918 0.127666458 -0.517957660
C -0.910280488 -0.765070021 0.282837255
O -0.449190810 -3.260495529 0.174505191
C 1.272295813 0.834508650 -0.175520767
C 3.889193256 -0.232104666 0.180498211
C 0.880372020 3.108928627 -1.513192865
N 0.555686137 4.993581064 -2.565089543
H -3.790092031 2.086272192 0.020713061
H -4.957489563 -1.052194064 0.295116715
H -3.546544959 0.000070600 -2.577548280
H -1.335212752 -0.540113263 3.203550351
H -1.929405970 -4.194139041 0.678373771
H 0.002521518 0.631939836 2.284481881
H 5.259440264 1.298029423 0.316868313
H 4.462495458 -1.479867035 -1.361389937
H 3.997079138 -1.330864057 1.929134020

