17

C -3.716126639 -0.802789125 1.173525498
C -1.631194848 -0.167646033 -0.697626697
O -0.964916137 2.383368282 -0.571777797
C 1.707907014 2.866066563 -0.653461492
C 2.965402322 0.287024964 -0.471617286
C 1.268337272 -1.216559097 1.165483353
C 1.653984567 -1.271193763 -2.393561937
H -5.453365395 0.114411030 0.539331370
H -3.295943880 -0.161527969 3.087108602
H -4.048108924 -2.838572446 1.196131706
H -2.336974409 -0.694037824 -2.547943944
H 2.184196251 3.801761524 -2.429288948
H 2.155818422 4.112016759 0.934211810
H 4.996356373 0.206753140 -0.212008865
H 0.395836793 -0.228161375 2.728967405
H 1.804773468 -3.129471235 1.645756699
H 2.192555605 -3.271173596 -2.281243759

