14

C 2.633871586 1.228790142 0.380053951
C 1.346690835 -1.220211069 -0.251194944
O 0.117795908 -2.323124229 1.973906261
C -2.234597816 -1.795011332 1.210162903
C -1.328252664 -1.041217023 -1.437694281
O -2.144702505 1.103611603 -2.693878630
H 1.356939311 2.505716483 1.384261141
H 4.278981999 0.891370925 1.571986610
H 3.249591185 2.155953311 -1.355259212
H 2.642886298 -2.586847245 -1.093299745
H -2.808468353 1.441126156 2.229365278
H -3.508209446 -0.172687198 2.452704355
H -1.660439437 -2.635876454 -2.706968725
H -2.345507524 2.439267212 -1.475975484

