8

N 4.239884567 -2.053480077 0.702155350
C 2.139938940 -1.571902102 0.475364462
C -0.850883940 1.927399572 -0.430668414
C -0.504991342 -0.872606436 0.165564915
O -2.759900861 3.025165874 0.058282574
H 0.757804837 2.863412896 -1.383737120
H -1.302402401 -1.944419958 -1.413561685
H -1.593183971 -1.345756781 1.849926697

