8

N 4.088918750 -1.149492793 1.335619969
C 2.335663072 -0.061110322 0.635887228
C -0.140694456 1.347317506 -0.245609972
C -1.378042487 -1.107433990 -0.314258809
O -1.327042880 2.855201620 1.246448310
H 0.452353985 2.081815859 -2.112255114
H -1.802366769 -2.186837237 -2.014402015
H -2.102519585 -1.751651414 1.491897182

