16

C -3.634247716 -2.007890435 -0.586016657
C -1.979377283 0.300628044 -0.484491612
O -1.797078843 1.737224036 -2.256795503
C -0.397427300 0.725716475 1.885888790
N 2.164472253 -0.242954699 1.624837242
C 3.526276929 0.553126049 -0.636332845
O 3.508925747 3.175725722 -0.891602889
H -2.542721497 -3.686592581 -0.080337813
H -4.450186915 -2.232572200 -2.458937447
H -5.141498262 -1.827383190 0.815033057
H 2.775115518 -0.319529350 -2.370634873
H 1.940009091 3.630254573 -1.698155290
H -0.306795770 2.755829068 2.235393108
H -1.261244714 -0.173145249 3.528132904
H 2.228752988 -2.143631938 1.805181649
H 5.486713468 -0.045952225 -0.406219326

