16

C -3.138641037 -1.772685729 -1.040425643
C -1.209993754 0.265686668 -0.529649774
O -1.433109844 2.341525815 -1.779921491
C -0.175328015 0.562058180 2.237890702
N 2.567971999 0.374515448 2.049266366
C 3.195084775 0.534496940 -0.551734285
O 2.986757890 2.665675072 -1.728887736
H -2.537543326 -3.602221903 -0.306180438
H -3.496893445 -1.912021983 -3.061947806
H -4.905360164 -1.246326271 -0.107183792
H 1.033725373 -0.724821670 -1.370774053
H 0.857712087 3.035724379 -1.840076519
H -0.775116675 2.417927404 2.906903563
H -0.916967171 -0.868620890 3.526052637
H 3.222267068 -1.256511215 2.788850879
H 4.768094823 -0.665589944 -1.149064751

