12

C 2.541157295 -1.215659644 0.504988508
C 1.054186213 0.135223850 -1.461773361
C -3.034121797 -0.441887396 0.232222094
C 0.945397042 2.797001344 -1.217304670
N 0.913595446 4.981922928 -1.220994228
H 2.249434907 -3.251229880 0.423001738
H 4.501993908 -0.868332253 -0.080080300
H 2.362669242 -0.530153631 2.447208881
H -1.526075185 -0.667867687 -1.383155727
H -3.758210934 -2.358034368 0.429191706
H -2.302550119 0.268801617 2.007798386
H -4.420440434 0.845302161 -0.570705226

