9

C -3.914340427 0.299792596 -0.179896390
C -1.565732373 0.526896821 -1.118965061
N -0.557267743 -1.661815932 -2.187220738
O 1.616051187 -1.061333913 -2.937153524
C 2.398609490 1.641940171 -2.479216703
C 0.267631725 2.505896574 -1.322117819
H 0.010387333 4.412347210 -0.651564302
H -4.877863326 -1.502784745 -0.291758218
H -4.878349118 1.878624418 0.695940363

