13

C -4.330122750 0.474719895 -0.155991733
C -1.605418057 -0.194147155 -0.396642024
N -0.898320412 -1.857614500 -2.066142735
O 1.720750122 -2.045968095 -1.806378261
C 2.476055493 -0.489802555 0.014052155
N 4.999411720 -0.536958063 0.566247740
C 0.467729363 0.768735334 1.009053997
H -5.445084332 -0.634753223 -1.481971982
H -5.003179456 0.099383569 1.756700101
H -4.626684841 2.477504308 -0.548062566
H 5.681250284 1.016685996 1.416369988
H 6.110444145 -1.215931236 -0.819477787
H 0.453168721 2.138145741 2.512243125

