9

C -2.842715501 -0.042797402 0.150603254
O -1.070995591 -1.822446073 1.254246019
C 1.337330039 -1.672516487 1.050748556
O 1.833802609 0.467016011 -0.387347349
C 6.356363030 1.366110530 -1.184749545
N 4.265558613 0.835362542 -0.739135647
H -4.693947375 -0.734524961 0.697193591
H -2.513678996 1.838526168 0.911460282
H -2.641560580 -0.031155782 -1.895415693

