9

C -2.779334710 -0.153489943 0.265427228
O -0.592170134 -1.663419856 0.988455416
C 1.641398726 -0.958306385 0.441670324
O 1.748863048 1.230233212 -0.818436756
C 5.484641648 -0.375857777 -0.136689768
N 4.403369461 1.467060871 -1.123540749
H -4.395646661 -1.208021806 0.955552544
H -2.667391529 1.694229648 1.158498339
H -2.841254308 0.041129643 -1.779784126

