13

C 2.630119743 -2.518220348 0.234733540
C -0.907871711 4.827461873 0.272762653
C -2.257947216 2.456311124 0.221700042
C -1.051189315 -0.059465864 -0.375189929
N -2.210449365 -1.635787808 -1.733908266
O 1.255722991 -0.270837457 0.687182389
H 1.631679525 -4.166594658 0.980824758
H 4.419260300 -2.306129600 1.220969907
H 2.988618344 -2.778709664 -1.783448400
H 1.111118294 4.361096004 0.545752659
H -2.426752010 2.665587710 2.339663943
H -4.188520640 2.510385297 -0.489677644
H -1.230346766 -3.255408197 -2.046351086

