19

C 3.499309346 1.353964466 1.357093872
C 1.849682960 -0.750308671 0.412578122
C 2.793856443 -2.378289000 -1.516581900
O -0.124809059 -1.475930433 1.898583535
C -1.495537267 0.114088360 0.106015771
C -2.683961631 2.387006685 1.309608021
C -3.183388618 -1.484790433 -1.516349823
H 4.705509003 0.535794785 2.817537923
H 2.422048481 2.891108495 2.186382626
H 4.702079074 2.077095210 -0.147424187
H 0.853444462 -0.321956495 -1.798425008
H 1.963827520 -4.223346724 -1.759838275
H 4.570665554 -1.913465526 -2.398945842
H -3.506377489 3.610423220 -0.132206619
H -4.200378029 1.812473232 2.601666741
H -1.342381579 3.498591798 2.404987278
H -4.411332578 -2.673366617 -0.350726555
H -2.085987959 -2.747323656 -2.740315664
H -4.360895995 -0.293005626 -2.717475300

