11

O 4.098444973 -1.291050363 -0.748420929
N 2.801416594 0.689190733 0.389380090
C 0.457886555 0.372056536 0.220095117
C -1.775783368 1.891184332 1.081357508
O -3.427385047 0.015825096 -0.002326310
C -1.352962080 -1.523100151 -0.862056737
H 5.837592429 -0.840613883 -0.504712211
H -1.996649663 3.742484690 0.191648011
H -2.013601319 2.058856726 3.126883520
H -1.322692220 -3.388678713 0.026185444
H -1.306266891 -1.726154984 -2.918033502

