11

O 4.328409014 -1.406718779 0.167396079
N 2.682905368 -0.445623706 1.629586143
C 0.897049987 0.453731576 0.019718309
C -1.338548931 2.006385192 0.873854770
O -3.095948231 0.109642911 0.030749019
C -1.146029756 -1.461067775 -0.945610279
H 2.959385132 -0.313897455 -1.560332726
H -1.611514125 3.783988480 -0.140563442
H -1.435496681 2.331801511 2.912032280
H -1.053555914 -3.318345847 -0.046106010
H -1.275741313 -1.657309408 -2.995025404

