14

C -3.814890604 0.335952733 -0.070400556
C 0.478957322 1.176711557 -2.178733997
C 3.049519569 1.019296672 -1.037332804
C 2.851220156 -0.411744299 1.418935291
C 0.499466917 -1.222043253 1.720635094
C -1.086751523 -0.461478338 -0.534368155
H -4.882748381 -1.173245403 0.843634667
H -4.730936439 0.823652646 -1.848545818
H -3.874555079 1.991251887 1.157482819
H 3.808611290 2.941988275 -0.864496941
H 4.302729602 0.144222159 -2.445900037
H 4.406522847 -0.726521725 2.710760045
H -0.205704455 -2.315978040 3.300863159
H -1.133127859 -2.078540680 -1.888017453

