16

C 2.409732815 2.493923685 0.042722267
C 1.093978535 1.486826764 -1.970308544
N 3.274400266 0.073173635 -0.842341735
C 1.638796744 -2.001769309 0.104506371
C -0.873899651 -0.597414861 -0.196668522
C -1.412255809 0.873551299 2.140598682
C -3.077168076 -1.856505949 -0.842483559
H 0.690719937 2.121885593 2.065140462
H 3.563830341 4.134660176 0.393338235
H 0.886205037 2.063624184 -3.916563823
H 2.077330556 -2.687258844 2.008450285
H 1.792021482 -3.559543516 -1.236569539
H -2.839862222 2.352405252 2.001093940
H -1.541818588 -0.228876107 3.872532731
H -3.077589768 -3.798544643 -1.498750558
H -4.880873433 -0.893040838 -0.764209138

