12

O 4.625366209 -1.189129061 0.735947660
C 2.754257685 0.038213777 0.543024310
C -0.243448617 -1.959819695 -0.071911336
C -2.501432966 -0.260883854 0.392731935
C -0.724461942 1.424231684 -0.881412635
C 1.595001509 2.290529930 0.248876798
H 0.325221942 -3.091534983 1.540256710
H -0.241181380 -3.007569331 -1.829523494
H -4.216950039 -0.692832613 -0.646768895
H -2.830915597 0.120978944 2.378845355
H -1.199946383 1.988502941 -2.814778867
H 2.375710942 4.173356495 0.287105353

