16

C 3.263123344 0.539420697 -0.829257120
C 1.654978601 0.286654049 1.441187724
C -1.564535023 -3.188804252 -0.679553036
C -2.861996527 -0.976159629 -1.037632892
C -2.216577501 1.432413933 -0.233884656
C -0.484108451 1.943060904 1.946324556
H 5.252580350 0.224811231 -0.367354538
H 3.033873902 2.397261038 -1.703940365
H 2.777847136 -0.857565350 -2.299039424
H 2.117223166 -1.187906843 2.784216213
H 0.458730922 -3.273493783 -0.516725975
H -2.545252124 -4.985484665 -0.783294502
H -4.670780958 -1.100835803 -2.020074784
H -2.955140656 3.045389950 -1.267472363
H 0.066374986 3.937893218 1.873315630
H -1.366741604 1.579388044 3.776034906

