16

C 4.026111548 0.785923565 0.089226877
C 2.585711028 -1.499933848 0.963687645
C 1.036540385 -1.361141438 3.312327126
C -0.568020360 -1.658427785 1.413148270
C -3.127087214 -0.715131476 0.628088404
C -3.025989493 1.750815456 -0.860693546
H 3.124258350 2.511549482 0.753522736
H 5.913535117 0.678935945 0.921704582
H 4.233479908 0.858016730 -1.960784022
H 0.524435660 -2.192564109 -0.612541949
H 3.392720157 -3.317531734 0.435537652
H -4.160616358 -0.445022717 2.393834473
H -4.127310313 -2.157248076 -0.460597083
H -1.926027291 1.538472941 -2.596306439
H -4.923193264 2.352776148 -1.398468197
H -2.162242849 3.248240674 0.262685783

