12

C 4.632791151 0.679667817 -0.054323352
C 2.199205136 -0.869291006 0.087491920
C 0.387835333 0.153389372 2.037937080
O -0.243510902 -0.995608558 3.898377306
C -0.584695077 2.699908482 1.555587246
C -1.373178861 4.777553318 1.123063518
H -2.092834380 6.624100448 0.769167741
H 2.586435039 -2.830442674 0.585792403
H 1.242645500 -0.836961893 -1.745633166
H 5.889199111 -0.093521809 -1.492084965
H 5.631079681 0.648972618 1.749542593
H 4.241656979 2.645142159 -0.539522705

