15

C -3.809872342 0.803036320 -1.441987739
C -1.629947175 -0.571277492 2.599271929
C -1.676695957 1.257384533 0.428560802
N 0.828329680 1.039137096 -0.812369734
C 2.189291179 -0.625581872 0.468077753
N 4.578723857 -1.224962690 -0.144579204
C 0.747443298 -1.604338136 2.521200408
H -3.692664668 -1.109069793 -2.207342674
H -5.612406163 0.990099874 -0.467580718
H -3.758771993 2.148589256 -3.009007715
H -1.826133590 3.165141044 1.223096832
H 1.444009973 2.039539095 -2.303300529
H 5.449878888 -2.594264665 0.830990453
H 5.398809002 -0.615898669 -1.739269778
H 1.518394847 -3.017985879 3.790001381

