15

C -3.645787423 0.071952324 -0.889828852
C -1.842790033 -0.128776124 2.160989337
C -1.243276366 1.996721057 0.669026637
N 1.208891647 1.863305542 -0.255259027
C 2.156262281 -0.458526208 0.425195143
N 4.621101229 -1.079904441 -0.187733821
C 0.368501697 -1.719801970 1.785024450
H -4.155716487 -1.887143266 -0.588674613
H -5.328998097 1.232831075 -0.736801759
H -2.776621063 0.224575827 -2.761324127
H -2.172543236 3.816171253 0.666229881
H 2.105933829 3.157228723 -1.311252744
H 5.020587424 -2.917078642 0.100139346
H 5.208696960 -0.500151999 -1.902845756
H 0.624146492 -3.591858929 2.562879300

