12

C -3.555824592 -0.468296659 -1.313196460
O -1.729617869 -0.543144875 0.654398948
C 0.699760765 -0.378016260 -0.053413733
N 1.301672041 -0.173895130 -2.356221365
C 2.397729048 -0.479574904 2.214551186
H -3.431127820 1.305708307 -2.355488699
H -3.268560048 -2.023578147 -2.634696320
H -5.382533641 -0.631966481 -0.385038822
H 3.202492086 -0.069960666 -2.554262943
H 2.153257711 -2.280180902 3.187946939
H 4.369562733 -0.266490709 1.671957204
H 1.889503175 1.015334030 3.538606220

