15

C -2.533081551 -1.926279683 0.717445427
C -0.676413671 0.117729257 0.034642233
C -1.601514091 2.490361892 -1.380285554
N -0.620604843 2.583005979 1.262679696
C 1.819570552 -0.540558218 -0.748852448
O 2.285827252 -2.544400462 -2.164969591
N 3.811553839 0.823511975 -0.132904023
H -4.364897339 -1.032935676 1.006021195
H -2.812593531 -3.287170279 -0.816983859
H -1.989707263 -2.966491579 2.419865243
H -0.085623396 3.236611280 -2.598039488
H 0.712153230 -3.355987641 -2.588320022
H -2.114088829 2.650665488 2.459817190
H 3.368759620 2.381366193 0.894851895
H 5.421045806 0.694576755 -1.131491092

