11

O 2.084586632 3.546831876 -0.844510555
C 0.122395860 1.938436574 -0.153834365
C -3.151132221 -2.585020522 1.079338014
N -0.759074128 -2.722163427 0.412206243
C 0.992934463 -0.781256735 -0.214474542
O 3.117494397 -1.344525190 -0.772546212
H 3.552570124 2.510917104 -1.162133076
H -0.551550698 2.377458485 1.756532785
H -3.669600693 -0.562712611 1.086323670
H -1.487804187 2.156808431 -1.438828646
H 0.066539147 -4.451357695 0.299617683

