12

C 3.169314259 -0.997888853 0.469040342
O 1.854850927 -0.560192170 2.475123783
C 0.147567126 1.236285948 -0.009105778
O 0.493881132 3.440049481 -0.056132670
C -2.270838417 -0.297361672 0.226775280
O -3.818885580 0.182147942 -1.864312294
H 1.580984447 -0.147150479 -1.490603287
H 4.726289508 0.281195537 -0.037131266
H 3.412124715 -2.957252443 -0.192911331
H -1.850770063 -2.304655633 0.265090308
H -3.144679751 0.251386903 2.017225171
H -4.346183816 1.918240826 -1.825330589

