11

O -3.860964924 2.032961658 0.374379538
C -3.175587545 0.214077114 -0.791703651
C -0.519755640 -0.797913480 -0.752905476
C 1.218772061 0.738017174 0.958689206
C 3.788739743 -0.264028396 0.960551984
N 5.795285278 -1.082663951 0.930562541
H 1.271112391 2.707590067 0.350802597
H -4.512355881 -0.852316787 -2.001322408
H -0.599292380 -2.779487778 -0.163615266
H 0.178160960 -0.828831119 -2.700443917
H 0.503329234 0.743077615 2.892545103

