13

C -1.119286881 2.374113745 -0.324463292
C -0.757593981 -0.425397684 0.038958197
C -2.895815104 -1.797866670 1.321378861
H -2.438623250 -3.790501912 1.571012891
H -3.256370030 -0.978621168 3.181471094
H -4.629387263 -1.650999159 0.211106975
C 0.964304565 -1.811394766 -1.616648681
H 0.673507178 -3.819893938 -1.936392609
H 1.952225982 -0.819881150 -3.120554374
O 1.699722081 -1.142813216 0.874740220
H 0.548214216 3.216900057 -1.190658757
H -2.752969024 2.748916261 -1.528543205
H -1.439114297 3.295177143 1.494992138

