21

C    -2.99658   1.19066  -0.03228
N    -1.69801   0.54398   0.22786
N    -0.95044   1.11076   1.12436
C     0.34408   1.19706   0.90055
C     1.25715   1.51275   1.95143
N     2.08518   1.77996   2.72842
C     0.75779   0.52300  -0.71912
C     1.64372  -0.62659  -0.29564
O     2.82662  -0.45635  -0.01702
C     1.00572  -1.95815  -0.15141
C    -0.21402  -2.22308  -0.65318
C    -0.99104  -1.20502  -1.40802
O    -1.99595  -1.52455  -2.04141
C    -0.52037   0.19798  -1.31199
H    -3.70239   1.23847   0.84414
H    -2.80670   2.24600  -0.35244
H    -3.47621   0.63573  -0.82197
H     1.35150   1.35647  -1.20553
H     1.58482  -2.70571   0.39358
H    -0.69010  -3.20080  -0.53860
H    -0.94636   0.87283  -2.10016
21

C    -2.99887   1.19449  -0.02999
N    -1.71001   0.54129   0.24531
N    -0.94836   1.10665   1.11636
C     0.33712   1.20653   0.91991
C     1.25566   1.51737   1.96094
N     2.09020   1.78076   2.73193
C     0.76488   0.51434  -0.74325
C     1.64434  -0.62758  -0.30043
O     2.82534  -0.45519  -0.01558
C     1.00509  -1.95782  -0.15067
C    -0.21465  -2.22277  -0.65230
C    -0.98933  -1.20565  -1.41071
O    -1.99721  -1.52408  -2.03978
C    -0.50935   0.19286  -1.33022
H    -3.70536   1.24150   0.84274
H    -2.80477   2.24635  -0.35217
H    -3.47562   0.63671  -0.82194
H     1.35184   1.35656  -1.20650
H     1.58428  -2.70518   0.39475
H    -0.69083  -3.20034  -0.53750
H    -0.94573   0.87238  -2.10207
21

C    -3.00116   1.19831  -0.02769
N    -1.72202   0.53860   0.26277
N    -0.94629   1.10254   1.10837
C     0.33015   1.21600   0.93927
C     1.25417   1.52198   1.97044
N     2.09522   1.78156   2.73545
C     0.77197   0.50568  -0.76738
C     1.64497  -0.62857  -0.30522
O     2.82407  -0.45403  -0.01414
C     1.00446  -1.95749  -0.14993
C    -0.21529  -2.22246  -0.65141
C    -0.98762  -1.20627  -1.41340
O    -1.99846  -1.52362  -2.03815
C    -0.49833   0.18775  -1.34846
H    -3.70834   1.24452   0.84133
H    -2.80284   2.24670  -0.35191
H    -3.47503   0.63769  -0.82192
H     1.35218   1.35664  -1.20748
H     1.58374  -2.70466   0.39592
H    -0.69155  -3.19988  -0.53640
H    -0.94510   0.87194  -2.10398
21

C    -3.00345   1.20213  -0.02540
N    -1.73402   0.53591   0.28023
N    -0.94421   1.09844   1.10038
C     0.32318   1.22547   0.95863
C     1.25268   1.52660   1.97995
N     2.10023   1.78236   2.73897
C     0.77905   0.49702  -0.79151
C     1.64559  -0.62956  -0.31001
O     2.82279  -0.45288  -0.01270
C     1.00383  -1.95716  -0.14919
C    -0.21593  -2.22215  -0.65053
C    -0.98591  -1.20689  -1.41609
O    -1.99971  -1.52316  -2.03652
C    -0.48731   0.18263  -1.36669
H    -3.71132   1.24754   0.83993
H    -2.80092   2.24705  -0.35164
H    -3.47443   0.63867  -0.82189
H     1.35253   1.35673  -1.20846
H     1.58321  -2.70413   0.39709
H    -0.69228  -3.19943  -0.53530
H    -0.94447   0.87149  -2.10589
21

C    -3.00574   1.20596  -0.02310
N    -1.74602   0.53322   0.29768
N    -0.94213   1.09433   1.09238
C     0.31621   1.23494   0.97799
C     1.25119   1.53122   1.98946
N     2.10525   1.78316   2.74249
C     0.78614   0.48836  -0.81564
C     1.64622  -0.63055  -0.31481
O     2.82151  -0.45172  -0.01126
C     1.00320  -1.95683  -0.14845
C    -0.21657  -2.22184  -0.64965
C    -0.98421  -1.20751  -1.41878
O    -2.00096  -1.52269  -2.03489
C    -0.47629   0.17752  -1.38492
H    -3.71430   1.25056   0.83852
H    -2.79899   2.24740  -0.35138
H    -3.47384   0.63965  -0.82186
H     1.35287   1.35682  -1.20944
H     1.58267  -2.70361   0.39825
H    -0.69300  -3.19897  -0.53419
H    -0.94384   0.87105  -2.10780
21

C    -3.00803   1.20978  -0.02081
N    -1.75802   0.53053   0.31514
N    -0.94006   1.09022   1.08439
C     0.30925   1.24441   0.99735
C     1.24971   1.53584   1.99896
N     2.11027   1.78396   2.74600
C     0.79323   0.47970  -0.83977
C     1.64684  -0.63154  -0.31960
O     2.82024  -0.45056  -0.00981
C     1.00258  -1.95650  -0.14771
C    -0.21721  -2.22154  -0.64877
C    -0.98250  -1.20813  -1.42147
O    -2.00221  -1.52223  -2.03326
C    -0.46527   0.17241  -1.40315
H    -3.71728   1.25359   0.83712
H    -2.79707   2.24775  -0.35111
H    -3.47324   0.64063  -0.82184
H     1.35321   1.35690  -1.21041
H     1.58213  -2.70308   0.39942
H    -0.69373  -3.19851  -0.53309
H    -0.94320   0.87060  -2.10970
21

C    -3.01032   1.21360  -0.01851
N    -1.77002   0.52784   0.33259
N    -0.93798   1.08611   1.07639
C     0.30228   1.25388   1.01671
C     1.24822   1.54045   2.00847
N     2.11529   1.78476   2.74952
C     0.80031   0.47104  -0.86390
C     1.64747  -0.63253  -0.32439
O     2.81896  -0.44940  -0.00837
C     1.00195  -1.95617  -0.14697
C    -0.21784  -2.22123  -0.64788
C    -0.98079  -1.20876  -1.42417
O    -2.00347  -1.52177  -2.03163
C    -0.45424   0.16729  -1.42138
H    -3.72026   1.25661   0.83571
H    -2.79514   2.24810  -0.35085
H    -3.47265   0.64161  -0.82181
H     1.35356   1.35699  -1.21139
H     1.58159  -2.70255   0.40059
H    -0.69445  -3.19806  -0.53199
H    -0.94257   0.87016  -2.11161
21

C    -3.01261   1.21743  -0.01621
N    -1.78203   0.52515   0.35005
N    -0.93591   1.08200   1.06840
C     0.29531   1.26335   1.03607
C     1.24673   1.54507   2.01797
N     2.12031   1.78556   2.75304
C     0.80740   0.46238  -0.88804
C     1.64809  -0.63352  -0.32918
O     2.81769  -0.44825  -0.00693
C     1.00132  -1.95584  -0.14623
C    -0.21848  -2.22092  -0.64700
C    -0.97908  -1.20938  -1.42686
O    -2.00472  -1.52130  -2.03000
C    -0.44322   0.16218  -1.43962
H    -3.72324   1.25963   0.83431
H    -2.79321   2.24845  -0.35058
H    -3.47206   0.64258  -0.82179
H     1.35390   1.35708  -1.21237
H     1.58106  -2.70203   0.40176
H    -0.69517  -3.19760  -0.53089
H    -0.94194   0.86971  -2.11352
21

C    -3.01490   1.22125  -0.01392
N    -1.79403   0.52246   0.36750
N    -0.93383   1.07789   1.06041
C     0.28834   1.27281   1.05543
C     1.24524   1.54969   2.02748
N     2.12533   1.78636   2.75656
C     0.81449   0.45372  -0.91217
C     1.64872  -0.63451  -0.33397
O     2.81641  -0.44709  -0.00549
C     1.00069  -1.95551  -0.14549
C    -0.21912  -2.22061  -0.64612
C    -0.97737  -1.21000  -1.42955
O    -2.00597  -1.52084  -2.02838
C    -0.43220   0.15706  -1.45785
H    -3.72622   1.26266   0.83291
H    -2.79129   2.24880  -0.35032
H    -3.47146   0.64356  -0.82176
H     1.35424   1.35716  -1.21335
H     1.58052  -2.70150   0.40293
H    -0.69590  -3.19714  -0.52978
H    -0.94131   0.86927  -2.11543
21

C    -3.01719   1.22507  -0.01162
N    -1.80603   0.51977   0.38496
N    -0.93175   1.07379   1.05241
C     0.28137   1.28228   1.07479
C     1.24375   1.55430   2.03699
N     2.13035   1.78716   2.76007
C     0.82158   0.44506  -0.93630
C     1.64934  -0.63550  -0.33876
O     2.81513  -0.44593  -0.00405
C     1.00006  -1.95517  -0.14475
C    -0.21976  -2.22030  -0.64523
C    -0.97566  -1.21062  -1.43224
O    -2.00722  -1.52038  -2.02675
C    -0.42118   0.15195  -1.47608
H    -3.72920   1.26568   0.83150
H    -2.78936   2.24915  -0.35005
H    -3.47087   0.64454  -0.82173
H     1.35458   1.35725  -1.21432
H     1.57998  -2.70098   0.40410
H    -0.69662  -3.19668  -0.52868
H    -0.94068   0.86882  -2.11734
21

C    -3.01947   1.22890  -0.00933
N    -1.81803   0.51709   0.40242
N    -0.92968   1.06968   1.04442
C     0.27441   1.29175   1.09415
C     1.24226   1.55892   2.04649
N     2.13537   1.78797   2.76359
C     0.82866   0.43640  -0.96043
C     1.64997  -0.63649  -0.34355
O     2.81386  -0.44477  -0.00261
C     0.99943  -1.95484  -0.14400
C    -0.22039  -2.21999  -0.64435
C    -0.97395  -1.21124  -1.43493
O    -2.00847  -1.51991  -2.02512
C    -0.41016   0.14683  -1.49431
H    -3.73218   1.26870   0.83010
H    -2.78743   2.24950  -0.34979
H    -3.47027   0.64552  -0.82171
H     1.35493   1.35733  -1.21530
H     1.57944  -2.70045   0.40526
H    -0.69735  -3.19623  -0.52758
H    -0.94005   0.86838  -2.11925
21

C    -3.02176   1.23272  -0.00703
N    -1.83003   0.51440   0.41987
N    -0.92760   1.06557   1.03642
C     0.26744   1.30122   1.11351
C     1.24078   1.56354   2.05600
N     2.14039   1.78877   2.76711
C     0.83575   0.42775  -0.98456
C     1.65059  -0.63748  -0.34835
O     2.81258  -0.44362  -0.00116
C     0.99881  -1.95451  -0.14326
C    -0.22103  -2.21968  -0.64347
C    -0.97224  -1.21187  -1.43762
O    -2.00973  -1.51945  -2.02349
C    -0.39914   0.14172  -1.51254
H    -3.73515   1.27173   0.82869
H    -2.78551   2.24985  -0.34952
H    -3.46968   0.64650  -0.82168
H     1.35527   1.35742  -1.21628
H     1.57891  -2.69993   0.40643
H    -0.69807  -3.19577  -0.52648
H    -0.93942   0.86793  -2.12116
21

C    -3.02405   1.23655  -0.00473
N    -1.84203   0.51171   0.43733
N    -0.92552   1.06146   1.02843
C     0.26047   1.31069   1.13287
C     1.23929   1.56815   2.06550
N     2.14541   1.78957   2.77063
C     0.84284   0.41909  -1.00869
C     1.65122  -0.63847  -0.35314
O     2.81131  -0.44246   0.00028
C     0.99818  -1.95418  -0.14252
C    -0.22167  -2.21937  -0.64259
C    -0.97053  -1.21249  -1.44032
O    -2.01098  -1.51899  -2.02186
C    -0.38811   0.13661  -1.53078
H    -3.73813   1.27475   0.82729
H    -2.78358   2.25020  -0.34926
H    -3.46909   0.64748  -0.82166
H     1.35561   1.35751  -1.21726
H     1.57837  -2.69940   0.40760
H    -0.69880  -3.19531  -0.52537
H    -0.93879   0.86749  -2.12307
21

C    -3.02634   1.24037  -0.00244
N    -1.85404   0.50902   0.45478
N    -0.92345   1.05735   1.02043
C     0.25350   1.32016   1.15224
C     1.23780   1.57277   2.07501
N     2.15043   1.79037   2.77414
C     0.84992   0.41043  -1.03282
C     1.65184  -0.63946  -0.35793
O     2.81003  -0.44130   0.00172
C     0.99755  -1.95385  -0.14178
C    -0.22231  -2.21906  -0.64170
C    -0.96882  -1.21311  -1.44301
O    -2.01223  -1.51852  -2.02023
C    -0.37709   0.13149  -1.54901
H    -3.74111   1.27777   0.82588
H    -2.78165   2.25055  -0.34899
H    -3.46849   0.64846  -0.82163
H     1.35595   1.35759  -1.21823
H     1.57783  -2.69888   0.40877
H    -0.69952  -3.19486  -0.52427
H    -0.93816   0.86704  -2.12497
21

C    -3.02863   1.24419  -0.00014
N    -1.86604   0.50633   0.47224
N    -0.92137   1.05324   1.01244
C     0.24653   1.32963   1.17160
C     1.23631   1.57739   2.08452
N     2.15545   1.79117   2.77766
C     0.85701   0.40177  -1.05695
C     1.65246  -0.64045  -0.36272
O     2.80875  -0.44014   0.00316
C     0.99692  -1.95352  -0.14104
C    -0.22295  -2.21876  -0.64082
C    -0.96711  -1.21373  -1.44570
O    -2.01348  -1.51806  -2.01860
C    -0.36607   0.12638  -1.56724
H    -3.74409   1.28080   0.82448
H    -2.77973   2.25090  -0.34873
H    -3.46790   0.64944  -0.82161
H     1.35630   1.35768  -1.21921
H     1.57729  -2.69835   0.40994
H    -0.70025  -3.19440  -0.52317
H    -0.93752   0.86660  -2.12688
21

C    -3.03092   1.24802   0.00215
N    -1.87804   0.50364   0.48970
N    -0.91930   1.04914   1.00445
C     0.23957   1.33910   1.19096
C     1.23482   1.58200   2.09402
N     2.16047   1.79197   2.78118
C     0.86410   0.39311  -1.08108
C     1.65309  -0.64144  -0.36751
O     2.80748  -0.43899   0.00460
C     0.99629  -1.95319  -0.14030
C    -0.22358  -2.21845  -0.63994
C    -0.96540  -1.21436  -1.44839
O    -2.01473  -1.51760  -2.01697
C    -0.35505   0.12126  -1.58547
H    -3.74707   1.28382   0.82307
H    -2.77780   2.25125  -0.34846
H    -3.46730   0.65042  -0.82158
H     1.35664   1.35777  -1.22019
H     1.57676  -2.69783   0.41111
H    -0.70097  -3.19394  -0.52207
H    -0.93689   0.86615  -2.12879
21

C    -3.03321   1.25184   0.00445
N    -1.89004   0.50095   0.50715
N    -0.91722   1.04503   0.99645
C     0.23260   1.34857   1.21032
C     1.23333   1.58662   2.10353
N     2.16549   1.79277   2.78469
C     0.87119   0.38445  -1.10521
C     1.65371  -0.64243  -0.37230
O     2.80620  -0.43783   0.00604
C     0.99567  -1.95286  -0.13956
C    -0.22422  -2.21814  -0.63905
C    -0.96369  -1.21498  -1.45108
O    -2.01598  -1.51713  -2.01534
C    -0.34403   0.11615  -1.60371
H    -3.75005   1.28684   0.82167
H    -2.77587   2.25160  -0.34820
H    -3.46671   0.65140  -0.82155
H     1.35698   1.35785  -1.22117
H     1.57622  -2.69730   0.41227
H    -0.70169  -3.19349  -0.52096
H    -0.93626   0.86571  -2.13070
21

C    -3.03550   1.25566   0.00674
N    -1.90204   0.49826   0.52461
N    -0.91514   1.04092   0.98846
C     0.22563   1.35804   1.22968
C     1.23185   1.59124   2.11304
N     2.17050   1.79357   2.78821
C     0.87827   0.37579  -1.12934
C     1.65434  -0.64342  -0.37710
O     2.80493  -0.43667   0.00749
C     0.99504  -1.95253  -0.13882
C    -0.22486  -2.21783  -0.63817
C    -0.96198  -1.21560  -1.45377
O    -2.01724  -1.51667  -2.01371
C    -0.33301   0.11103  -1.62194
H    -3.75303   1.28987   0.82026
H    -2.77395   2.25195  -0.34793
H    -3.46612   0.65237  -0.82153
H     1.35732   1.35794  -1.22214
H     1.57568  -2.69678   0.41344
H    -0.70242  -3.19303  -0.51986
H    -0.93563   0.86526  -2.13261
21

C    -3.03779   1.25949   0.00904
N    -1.91404   0.49557   0.54206
N    -0.91307   1.03681   0.98046
C     0.21866   1.36751   1.24904
C     1.23036   1.59585   2.12254
N     2.17552   1.79437   2.79173
C     0.88536   0.36713  -1.15347
C     1.65496  -0.64441  -0.38189
O     2.80365  -0.43551   0.00893
C     0.99441  -1.95220  -0.13808
C    -0.22550  -2.21752  -0.63729
C    -0.96027  -1.21622  -1.45647
O    -2.01849  -1.51621  -2.01208
C    -0.32198   0.10592  -1.64017
H    -3.75601   1.29289   0.81886
H    -2.77202   2.25230  -0.34767
H    -3.46552   0.65335  -0.82150
H     1.35767   1.35802  -1.22312
H     1.57514  -2.69625   0.41461
H    -0.70314  -3.19257  -0.51876
H    -0.93500   0.86482  -2.13452
21

C    -3.04008   1.26331   0.01134
N    -1.92605   0.49288   0.55952
N    -0.91099   1.03270   0.97247
C     0.21169   1.37698   1.26840
C     1.22887   1.60047   2.13205
N     2.18054   1.79517   2.79525
C     0.89245   0.35847  -1.17760
C     1.65559  -0.64540  -0.38668
O     2.80237  -0.43436   0.01037
C     0.99378  -1.95187  -0.13734
C    -0.22613  -2.21721  -0.63641
C    -0.95856  -1.21684  -1.45916
O    -2.01974  -1.51574  -2.01045
C    -0.31096   0.10081  -1.65840
H    -3.75899   1.29591   0.81745
H    -2.77010   2.25265  -0.34740
H    -3.46493   0.65433  -0.82148
H     1.35801   1.35811  -1.22410
H     1.57461  -2.69573   0.41578
H    -0.70387  -3.19212  -0.51766
H    -0.93437   0.86437  -2.13643
21

C    -3.04236   1.26713   0.01363
N    -1.93805   0.49019   0.57697
N    -0.90891   1.02859   0.96448
C     0.20473   1.38645   1.28776
C     1.22738   1.60509   2.14155
N     2.18556   1.79597   2.79876
C     0.89953   0.34981  -1.20173
C     1.65621  -0.64639  -0.39147
O     2.80110  -0.43320   0.01181
C     0.99315  -1.95154  -0.13660
C    -0.22677  -2.21690  -0.63552
C    -0.95685  -1.21747  -1.46185
O    -2.02099  -1.51528  -2.00882
C    -0.29994   0.09569  -1.67663
H    -3.76196   1.29893   0.81605
H    -2.76817   2.25300  -0.34714
H    -3.46433   0.65531  -0.82145
H     1.35835   1.35820  -1.22508
H     1.57407  -2.69520   0.41695
H    -0.70459  -3.19166  -0.51655
H    -0.93374   0.86393  -2.13834
21

C    -3.04008   1.26331   0.01134
N    -1.92605   0.49288   0.55952
N    -0.91099   1.03270   0.97247
C     0.21169   1.37698   1.26840
C     1.22887   1.60047   2.13205
N     2.18054   1.79517   2.79525
C     0.89245   0.35847  -1.17760
C     1.65559  -0.64540  -0.38668
O     2.80237  -0.43436   0.01037
C     0.99378  -1.95187  -0.13734
C    -0.22613  -2.21721  -0.63641
C    -0.95856  -1.21684  -1.45916
O    -2.01974  -1.51574  -2.01045
C    -0.31096   0.10081  -1.65840
H    -3.75899   1.29591   0.81745
H    -2.77010   2.25265  -0.34740
H    -3.46493   0.65433  -0.82148
H     1.35801   1.35811  -1.22410
H     1.57461  -2.69573   0.41578
H    -0.70387  -3.19212  -0.51766
H    -0.93437   0.86437  -2.13643
21

C    -3.03779   1.25949   0.00904
N    -1.91404   0.49557   0.54206
N    -0.91307   1.03681   0.98046
C     0.21866   1.36751   1.24904
C     1.23036   1.59585   2.12254
N     2.17552   1.79437   2.79173
C     0.88536   0.36713  -1.15347
C     1.65496  -0.64441  -0.38189
O     2.80365  -0.43551   0.00893
C     0.99441  -1.95220  -0.13808
C    -0.22550  -2.21752  -0.63729
C    -0.96027  -1.21622  -1.45647
O    -2.01849  -1.51621  -2.01208
C    -0.32198   0.10592  -1.64017
H    -3.75601   1.29289   0.81886
H    -2.77202   2.25230  -0.34767
H    -3.46552   0.65335  -0.82150
H     1.35767   1.35802  -1.22312
H     1.57514  -2.69625   0.41461
H    -0.70314  -3.19257  -0.51876
H    -0.93500   0.86482  -2.13452
21

C    -3.03550   1.25566   0.00674
N    -1.90204   0.49826   0.52461
N    -0.91514   1.04092   0.98846
C     0.22563   1.35804   1.22968
C     1.23185   1.59124   2.11304
N     2.17050   1.79357   2.78821
C     0.87827   0.37579  -1.12934
C     1.65434  -0.64342  -0.37710
O     2.80493  -0.43667   0.00749
C     0.99504  -1.95253  -0.13882
C    -0.22486  -2.21783  -0.63817
C    -0.96198  -1.21560  -1.45377
O    -2.01724  -1.51667  -2.01371
C    -0.33301   0.11103  -1.62194
H    -3.75303   1.28987   0.82026
H    -2.77395   2.25195  -0.34793
H    -3.46612   0.65237  -0.82153
H     1.35732   1.35794  -1.22214
H     1.57568  -2.69678   0.41344
H    -0.70242  -3.19303  -0.51986
H    -0.93563   0.86526  -2.13261
21

C    -3.03321   1.25184   0.00445
N    -1.89004   0.50095   0.50715
N    -0.91722   1.04503   0.99645
C     0.23260   1.34857   1.21032
C     1.23333   1.58662   2.10353
N     2.16549   1.79277   2.78469
C     0.87119   0.38445  -1.10521
C     1.65371  -0.64243  -0.37230
O     2.80620  -0.43783   0.00604
C     0.99567  -1.95286  -0.13956
C    -0.22422  -2.21814  -0.63905
C    -0.96369  -1.21498  -1.45108
O    -2.01598  -1.51713  -2.01534
C    -0.34403   0.11615  -1.60371
H    -3.75005   1.28684   0.82167
H    -2.77587   2.25160  -0.34820
H    -3.46671   0.65140  -0.82155
H     1.35698   1.35785  -1.22117
H     1.57622  -2.69730   0.41227
H    -0.70169  -3.19349  -0.52096
H    -0.93626   0.86571  -2.13070
21

C    -3.03092   1.24802   0.00215
N    -1.87804   0.50364   0.48970
N    -0.91930   1.04914   1.00445
C     0.23957   1.33910   1.19096
C     1.23482   1.58200   2.09402
N     2.16047   1.79197   2.78118
C     0.86410   0.39311  -1.08108
C     1.65309  -0.64144  -0.36751
O     2.80748  -0.43899   0.00460
C     0.99629  -1.95319  -0.14030
C    -0.22358  -2.21845  -0.63994
C    -0.96540  -1.21436  -1.44839
O    -2.01473  -1.51760  -2.01697
C    -0.35505   0.12126  -1.58547
H    -3.74707   1.28382   0.82307
H    -2.77780   2.25125  -0.34846
H    -3.46730   0.65042  -0.82158
H     1.35664   1.35777  -1.22019
H     1.57676  -2.69783   0.41111
H    -0.70097  -3.19394  -0.52207
H    -0.93689   0.86615  -2.12879
21

C    -3.02863   1.24419  -0.00014
N    -1.86604   0.50633   0.47224
N    -0.92137   1.05324   1.01244
C     0.24653   1.32963   1.17160
C     1.23631   1.57739   2.08452
N     2.15545   1.79117   2.77766
C     0.85701   0.40177  -1.05695
C     1.65246  -0.64045  -0.36272
O     2.80875  -0.44014   0.00316
C     0.99692  -1.95352  -0.14104
C    -0.22295  -2.21876  -0.64082
C    -0.96711  -1.21373  -1.44570
O    -2.01348  -1.51806  -2.01860
C    -0.36607   0.12638  -1.56724
H    -3.74409   1.28080   0.82448
H    -2.77973   2.25090  -0.34873
H    -3.46790   0.64944  -0.82161
H     1.35630   1.35768  -1.21921
H     1.57729  -2.69835   0.40994
H    -0.70025  -3.19440  -0.52317
H    -0.93752   0.86660  -2.12688
21

C    -3.02634   1.24037  -0.00244
N    -1.85404   0.50902   0.45478
N    -0.92345   1.05735   1.02043
C     0.25350   1.32016   1.15224
C     1.23780   1.57277   2.07501
N     2.15043   1.79037   2.77414
C     0.84992   0.41043  -1.03282
C     1.65184  -0.63946  -0.35793
O     2.81003  -0.44130   0.00172
C     0.99755  -1.95385  -0.14178
C    -0.22231  -2.21906  -0.64170
C    -0.96882  -1.21311  -1.44301
O    -2.01223  -1.51852  -2.02023
C    -0.37709   0.13149  -1.54901
H    -3.74111   1.27777   0.82588
H    -2.78165   2.25055  -0.34899
H    -3.46849   0.64846  -0.82163
H     1.35595   1.35759  -1.21823
H     1.57783  -2.69888   0.40877
H    -0.69952  -3.19486  -0.52427
H    -0.93816   0.86704  -2.12497
21

C    -3.02405   1.23655  -0.00473
N    -1.84203   0.51171   0.43733
N    -0.92552   1.06146   1.02843
C     0.26047   1.31069   1.13287
C     1.23929   1.56815   2.06550
N     2.14541   1.78957   2.77063
C     0.84284   0.41909  -1.00869
C     1.65122  -0.63847  -0.35314
O     2.81131  -0.44246   0.00028
C     0.99818  -1.95418  -0.14252
C    -0.22167  -2.21937  -0.64259
C    -0.97053  -1.21249  -1.44032
O    -2.01098  -1.51899  -2.02186
C    -0.38811   0.13661  -1.53078
H    -3.73813   1.27475   0.82729
H    -2.78358   2.25020  -0.34926
H    -3.46909   0.64748  -0.82166
H     1.35561   1.35751  -1.21726
H     1.57837  -2.69940   0.40760
H    -0.69880  -3.19531  -0.52537
H    -0.93879   0.86749  -2.12307
21

C    -3.02176   1.23272  -0.00703
N    -1.83003   0.51440   0.41987
N    -0.92760   1.06557   1.03642
C     0.26744   1.30122   1.11351
C     1.24078   1.56354   2.05600
N     2.14039   1.78877   2.76711
C     0.83575   0.42775  -0.98456
C     1.65059  -0.63748  -0.34835
O     2.81258  -0.44362  -0.00116
C     0.99881  -1.95451  -0.14326
C    -0.22103  -2.21968  -0.64347
C    -0.97224  -1.21187  -1.43762
O    -2.00973  -1.51945  -2.02349
C    -0.39914   0.14172  -1.51254
H    -3.73515   1.27173   0.82869
H    -2.78551   2.24985  -0.34952
H    -3.46968   0.64650  -0.82168
H     1.35527   1.35742  -1.21628
H     1.57891  -2.69993   0.40643
H    -0.69807  -3.19577  -0.52648
H    -0.93942   0.86793  -2.12116
21

C    -3.01947   1.22890  -0.00933
N    -1.81803   0.51709   0.40242
N    -0.92968   1.06968   1.04442
C     0.27441   1.29175   1.09415
C     1.24226   1.55892   2.04649
N     2.13537   1.78797   2.76359
C     0.82866   0.43640  -0.96043
C     1.64997  -0.63649  -0.34355
O     2.81386  -0.44477  -0.00261
C     0.99943  -1.95484  -0.14400
C    -0.22039  -2.21999  -0.64435
C    -0.97395  -1.21124  -1.43493
O    -2.00847  -1.51991  -2.02512
C    -0.41016   0.14683  -1.49431
H    -3.73218   1.26870   0.83010
H    -2.78743   2.24950  -0.34979
H    -3.47027   0.64552  -0.82171
H     1.35493   1.35733  -1.21530
H     1.57944  -2.70045   0.40526
H    -0.69735  -3.19623  -0.52758
H    -0.94005   0.86838  -2.11925
21

C    -3.01719   1.22507  -0.01162
N    -1.80603   0.51977   0.38496
N    -0.93175   1.07379   1.05241
C     0.28137   1.28228   1.07479
C     1.24375   1.55430   2.03699
N     2.13035   1.78716   2.76007
C     0.82158   0.44506  -0.93630
C     1.64934  -0.63550  -0.33876
O     2.81513  -0.44593  -0.00405
C     1.00006  -1.95517  -0.14475
C    -0.21976  -2.22030  -0.64523
C    -0.97566  -1.21062  -1.43224
O    -2.00722  -1.52038  -2.02675
C    -0.42118   0.15195  -1.47608
H    -3.72920   1.26568   0.83150
H    -2.78936   2.24915  -0.35005
H    -3.47087   0.64454  -0.82173
H     1.35458   1.35725  -1.21432
H     1.57998  -2.70098   0.40410
H    -0.69662  -3.19668  -0.52868
H    -0.94068   0.86882  -2.11734
21

C    -3.01490   1.22125  -0.01392
N    -1.79403   0.52246   0.36750
N    -0.93383   1.07789   1.06041
C     0.28834   1.27281   1.05543
C     1.24524   1.54969   2.02748
N     2.12533   1.78636   2.75656
C     0.81449   0.45372  -0.91217
C     1.64872  -0.63451  -0.33397
O     2.81641  -0.44709  -0.00549
C     1.00069  -1.95551  -0.14549
C    -0.21912  -2.22061  -0.64612
C    -0.97737  -1.21000  -1.42955
O    -2.00597  -1.52084  -2.02838
C    -0.43220   0.15706  -1.45785
H    -3.72622   1.26266   0.83291
H    -2.79129   2.24880  -0.35032
H    -3.47146   0.64356  -0.82176
H     1.35424   1.35716  -1.21335
H     1.58052  -2.70150   0.40293
H    -0.69590  -3.19714  -0.52978
H    -0.94131   0.86927  -2.11543
21

C    -3.01261   1.21743  -0.01621
N    -1.78203   0.52515   0.35005
N    -0.93591   1.08200   1.06840
C     0.29531   1.26335   1.03607
C     1.24673   1.54507   2.01797
N     2.12031   1.78556   2.75304
C     0.80740   0.46238  -0.88804
C     1.64809  -0.63352  -0.32918
O     2.81769  -0.44825  -0.00693
C     1.00132  -1.95584  -0.14623
C    -0.21848  -2.22092  -0.64700
C    -0.97908  -1.20938  -1.42686
O    -2.00472  -1.52130  -2.03000
C    -0.44322   0.16218  -1.43962
H    -3.72324   1.25963   0.83431
H    -2.79321   2.24845  -0.35058
H    -3.47206   0.64258  -0.82179
H     1.35390   1.35708  -1.21237
H     1.58106  -2.70203   0.40176
H    -0.69517  -3.19760  -0.53089
H    -0.94194   0.86971  -2.11352
21

C    -3.01032   1.21360  -0.01851
N    -1.77002   0.52784   0.33259
N    -0.93798   1.08611   1.07639
C     0.30228   1.25388   1.01671
C     1.24822   1.54045   2.00847
N     2.11529   1.78476   2.74952
C     0.80031   0.47104  -0.86390
C     1.64747  -0.63253  -0.32439
O     2.81896  -0.44940  -0.00837
C     1.00195  -1.95617  -0.14697
C    -0.21784  -2.22123  -0.64788
C    -0.98079  -1.20876  -1.42417
O    -2.00347  -1.52177  -2.03163
C    -0.45424   0.16729  -1.42138
H    -3.72026   1.25661   0.83571
H    -2.79514   2.24810  -0.35085
H    -3.47265   0.64161  -0.82181
H     1.35356   1.35699  -1.21139
H     1.58159  -2.70255   0.40059
H    -0.69445  -3.19806  -0.53199
H    -0.94257   0.87016  -2.11161
21

C    -3.00803   1.20978  -0.02081
N    -1.75802   0.53053   0.31514
N    -0.94006   1.09022   1.08439
C     0.30925   1.24441   0.99735
C     1.24971   1.53584   1.99896
N     2.11027   1.78396   2.74600
C     0.79323   0.47970  -0.83977
C     1.64684  -0.63154  -0.31960
O     2.82024  -0.45056  -0.00981
C     1.00258  -1.95650  -0.14771
C    -0.21721  -2.22154  -0.64877
C    -0.98250  -1.20813  -1.42147
O    -2.00221  -1.52223  -2.03326
C    -0.46527   0.17241  -1.40315
H    -3.71728   1.25359   0.83712
H    -2.79707   2.24775  -0.35111
H    -3.47324   0.64063  -0.82184
H     1.35321   1.35690  -1.21041
H     1.58213  -2.70308   0.39942
H    -0.69373  -3.19851  -0.53309
H    -0.94320   0.87060  -2.10970
21

C    -3.00574   1.20596  -0.02310
N    -1.74602   0.53322   0.29768
N    -0.94213   1.09433   1.09238
C     0.31621   1.23494   0.97799
C     1.25119   1.53122   1.98946
N     2.10525   1.78316   2.74249
C     0.78614   0.48836  -0.81564
C     1.64622  -0.63055  -0.31481
O     2.82151  -0.45172  -0.01126
C     1.00320  -1.95683  -0.14845
C    -0.21657  -2.22184  -0.64965
C    -0.98421  -1.20751  -1.41878
O    -2.00096  -1.52269  -2.03489
C    -0.47629   0.17752  -1.38492
H    -3.71430   1.25056   0.83852
H    -2.79899   2.24740  -0.35138
H    -3.47384   0.63965  -0.82186
H     1.35287   1.35682  -1.20944
H     1.58267  -2.70361   0.39825
H    -0.69300  -3.19897  -0.53419
H    -0.94384   0.87105  -2.10780
21

C    -3.00345   1.20213  -0.02540
N    -1.73402   0.53591   0.28023
N    -0.94421   1.09844   1.10038
C     0.32318   1.22547   0.95863
C     1.25268   1.52660   1.97995
N     2.10023   1.78236   2.73897
C     0.77905   0.49702  -0.79151
C     1.64559  -0.62956  -0.31001
O     2.82279  -0.45288  -0.01270
C     1.00383  -1.95716  -0.14919
C    -0.21593  -2.22215  -0.65053
C    -0.98591  -1.20689  -1.41609
O    -1.99971  -1.52316  -2.03652
C    -0.48731   0.18263  -1.36669
H    -3.71132   1.24754   0.83993
H    -2.80092   2.24705  -0.35164
H    -3.47443   0.63867  -0.82189
H     1.35253   1.35673  -1.20846
H     1.58321  -2.70413   0.39709
H    -0.69228  -3.19943  -0.53530
H    -0.94447   0.87149  -2.10589
21

C    -3.00116   1.19831  -0.02769
N    -1.72202   0.53860   0.26277
N    -0.94629   1.10254   1.10837
C     0.33015   1.21600   0.93927
C     1.25417   1.52198   1.97044
N     2.09522   1.78156   2.73545
C     0.77197   0.50568  -0.76738
C     1.64497  -0.62857  -0.30522
O     2.82407  -0.45403  -0.01414
C     1.00446  -1.95749  -0.14993
C    -0.21529  -2.22246  -0.65141
C    -0.98762  -1.20627  -1.41340
O    -1.99846  -1.52362  -2.03815
C    -0.49833   0.18775  -1.34846
H    -3.70834   1.24452   0.84133
H    -2.80284   2.24670  -0.35191
H    -3.47503   0.63769  -0.82192
H     1.35218   1.35664  -1.20748
H     1.58374  -2.70466   0.39592
H    -0.69155  -3.19988  -0.53640
H    -0.94510   0.87194  -2.10398
21

C    -2.99887   1.19449  -0.02999
N    -1.71001   0.54129   0.24531
N    -0.94836   1.10665   1.11636
C     0.33712   1.20653   0.91991
C     1.25566   1.51737   1.96094
N     2.09020   1.78076   2.73193
C     0.76488   0.51434  -0.74325
C     1.64434  -0.62758  -0.30043
O     2.82534  -0.45519  -0.01558
C     1.00509  -1.95782  -0.15067
C    -0.21465  -2.22277  -0.65230
C    -0.98933  -1.20565  -1.41071
O    -1.99721  -1.52408  -2.03978
C    -0.50935   0.19286  -1.33022
H    -3.70536   1.24150   0.84274
H    -2.80477   2.24635  -0.35217
H    -3.47562   0.63671  -0.82194
H     1.35184   1.35656  -1.20650
H     1.58428  -2.70518   0.39475
H    -0.69083  -3.20034  -0.53750
H    -0.94573   0.87238  -2.10207
