12

C -2.938158840 -2.551539980 -1.592725410
C -2.565432188 0.003957767 -0.442170421
C -2.100544160 0.439464522 1.979984169
C -1.727614760 2.994937248 3.130532732
H -3.130018330 3.358751007 4.603384688
H -1.885394929 4.485555899 1.714586459
H 0.130301492 3.145163162 4.021559727
H -1.974376765 -1.166518847 3.260560403
H -2.691658353 1.609916437 -1.722773678
H -4.795932587 -2.701897362 -2.484122110
H -1.535603751 -2.915420691 -3.065423938
H -2.780685127 -4.042189187 -0.176809239

