19

C -3.802362476 -1.901353553 -1.541568388
C -1.517450059 -0.439263833 -0.871523661
C -1.540342258 1.937135422 2.021660963
C -0.072936172 -0.782984474 1.287821747
O 3.428778607 -3.122632732 0.895433761
C 2.929513985 -0.743026366 1.314292577
C 4.012942255 1.133962551 -0.617791891
H -5.204357129 -0.778874055 -2.549497583
H -3.152952103 -3.391731036 -2.828986187
H -4.645389388 -2.820086276 0.095532270
H -0.822740796 0.905403427 -2.260513388
H -1.211374407 1.801446680 4.052136668
H -3.574287178 2.164189229 1.760646473
H -0.523163062 3.536567413 1.243808513
H -0.731850110 -2.234630055 2.582108303
H 3.416604953 0.003128385 3.240908744
H 3.560316376 0.528958569 -2.540199658
H 6.065024634 1.088278932 -0.437273233
H 3.404122197 3.094834370 -0.331268725

