12

O -3.314263717 -3.122841453 -0.194388719
C -2.873217532 -1.762101902 1.618640811
C -1.264409211 0.394018234 1.525222049
C 2.644699717 1.805544476 -0.360206517
C 0.038925826 1.058195758 -0.810288522
C 1.216109758 -1.118043971 -2.171347001
N 2.120957171 -2.773577886 -3.267329043
H -3.814617822 -2.101377983 3.454836248
H -0.947639694 1.563328244 3.170999441
H 3.699502586 0.755158030 1.039757833
H 3.538029154 3.394791353 -1.298754511
H -0.977034402 2.140258040 -2.247190271

