18

C -4.800085865 0.411249172 -0.399059135
C -2.297578155 -0.994475044 -0.699434523
C -0.217971008 0.061098701 0.933566563
C 2.802504510 -1.535668984 0.533432174
C 3.935407189 1.163725114 -0.214714292
C 1.087139786 2.472771905 0.144979845
N 0.293624946 4.566971820 -0.092886351
H -6.253139556 -0.428878805 -1.598692088
H -4.569240531 2.392765701 -0.911850719
H -5.461568961 0.338158137 1.554645765
H -2.559613872 -2.983459146 -0.188708183
H -1.697685107 -0.944707651 -2.678983166
H -0.723036276 0.028090212 2.940019313
H 3.014055400 -2.345934111 2.414303854
H 2.299977314 -2.899778426 -0.921863130
H 5.310172154 1.884152736 1.134948799
H 5.040667389 -1.598721964 0.096266693
H 4.642314539 1.252716474 -2.144163480

