19

C 3.589203429 -1.214782585 -1.496466389
C 1.753157961 -0.182595486 0.364182727
O 2.144494050 -1.092949636 2.689107903
C 0.661867882 2.414255137 0.053614743
C -2.098952916 2.211455040 -0.685955352
C -3.296228624 0.180888307 0.916583349
C -1.944002782 -2.035584352 -0.364645314
H 5.434923482 -0.325048767 -1.208905971
H 2.960989452 -0.804978939 -3.414331178
H 3.807304658 -3.247291351 -1.249750663
H 0.983844824 -0.307482988 3.858288259
H 0.888307131 3.316268886 1.919467352
H 1.745167859 3.545061827 -1.295353156
H -3.085743691 4.011913904 -0.911571379
H -1.168132201 -0.537690483 -1.968727845
H -5.342873827 0.101207060 0.677669923
H -2.959106397 0.274337985 2.980861113
H -3.241698895 -2.949751006 -1.691153174
H -1.051763660 -3.540035212 0.736852536

