10

C -1.990041593 0.244068844 0.090364814
C -0.105872738 1.985216669 0.024081498
N 2.295707099 1.145343332 -0.091300852
C 3.112843119 -1.326061621 -0.152051276
N 1.157686475 -3.029773027 -0.079737655
C -1.206815499 -2.291705756 0.031242559
H -3.957173924 0.782279719 0.183798316
H -0.408628916 4.009740586 0.059622390
H 3.689982448 2.442436377 -0.140981562
H -2.627618294 -3.779609814 0.083478765

