15

O 4.530523236 1.175451488 -0.388225864
C 2.931427484 -0.941731956 -0.381834943
C 0.335279593 -0.259998536 0.263567605
C -1.055737092 2.181722524 -0.045756487
C -3.354396303 0.627138666 -0.804712715
C -1.821540101 -1.931930852 0.331913084
O -2.060393981 -4.212441832 -0.230668909
H 6.185088194 0.667090292 -0.919299074
H 3.520779810 -2.419381926 0.958342573
H 2.826416991 -1.895750250 -2.235618571
H -2.325119402 -1.268932441 2.365788500
H -1.182186793 3.397423232 1.608317237
H -0.220021852 3.275617854 -1.583262077
H -3.508654307 0.387535358 -2.837416557
H -5.184941931 0.970859136 0.053931140

