12

C -3.313917009 -0.875531524 -0.299419168
C -1.203240364 0.465247076 1.023746202
O 2.414115335 -0.492806105 -2.115714031
C 3.953502526 0.262972417 0.035348593
C 1.269559169 0.664332955 -0.093043217
O -0.250877603 2.758486042 -0.196036144
H -5.083357719 0.158651806 -0.074914507
H -2.905635160 -1.071894988 -2.307807413
H -3.559197942 -2.758119870 0.509051816
H -1.376774349 0.668167209 3.061528929
H 5.212972692 1.837172010 -0.340719321
H 4.734705196 -1.288800096 1.124980248

