12

C -3.307636296 -0.709763086 -0.280225937
C -0.953250479 -0.094646668 1.016840727
O 2.361006151 -1.288480581 -1.549258288
C 3.712493791 0.301861223 0.131124505
C 1.106894190 1.121997731 -0.277986064
O 0.204895199 3.041354969 -1.366026040
H -4.865501172 0.397318395 0.514748754
H -3.170877591 -0.382524844 -2.300868868
H -3.757398030 -2.685857801 0.153232525
H -0.873346453 -0.414986899 3.054492648
H 5.138754379 1.482061819 -0.761036495
H 4.325555925 -0.567244760 1.898712226

