10

O -2.728895690 1.619887709 0.871514666
C -1.547269465 -1.159904654 1.513517331
C 0.365184169 0.765979735 1.921570958
C 2.235178794 0.538567542 -0.019424060
N 1.574988648 -1.271826216 -1.569574885
N -0.656608775 -2.141028254 -0.807141485
H -2.429726684 1.908864572 -0.906426260
H 0.476016153 1.940187632 3.583317442
H 3.947574757 1.602146753 -0.311247814
H -1.226707947 -3.795314024 -1.542730437

