10

C -2.699930516 -0.482724888 -0.068959016
C 0.048105114 -0.642650823 0.230132170
O 1.402543996 -1.304010274 -1.633390842
C 2.649834481 3.037220267 0.602117256
N 4.611778851 2.097083505 0.250906572
H -3.259421068 -0.579194670 -2.042613906
H -3.322327330 1.291622345 0.779169835
H -3.573976469 -2.011602178 1.015085323
H 0.890936515 -0.522942059 2.089808531
H 3.174956849 -0.759377543 -1.224499027

