14

C -2.549311482 -1.929926552 -0.210997578
C -0.568377216 -0.161385691 -1.278128377
C -0.016692159 2.144117163 0.424822074
C 2.575575312 1.521585139 1.418259129
C 3.412470176 -0.514003597 0.227395507
O 1.796427266 -1.528115352 -1.483809816
H -2.036421803 -2.500913234 1.705221222
H -4.384822366 -0.988712891 -0.145174222
H -2.718509642 -3.621052590 -1.376034483
H -1.074883155 0.404207013 -3.195916009
H -1.432701871 2.322577758 1.919146382
H -0.026755895 3.916750187 -0.637351161
H 3.600398620 2.584405227 2.822499966
H 5.200247258 -1.487199456 0.398930596

