13

C 1.277854556 -1.405016287 0.713211798
C -1.283302769 -2.062466557 -0.416617941
O -1.628920808 -1.096235624 -2.881258014
C -1.833670253 4.403898244 1.327675447
N -0.032230300 2.978060955 1.068277523
C 1.741772002 1.379384949 1.041080395
H 1.449184553 -2.356180868 2.547621028
H 2.785467816 -2.189119403 -0.470056410
H -1.529623599 -4.120113197 -0.381285599
H -2.794829160 -1.243971351 0.722497081
H -2.486279875 5.281796272 -0.429956989
H 3.649873842 2.076834409 1.313092544
H -0.375757394 -1.817920103 -3.973031560

