17

C -3.856805202 -0.912038708 0.537249553
C -1.552804643 -0.211365036 -0.994194722
O -0.884974013 2.437629878 -0.387602500
C 1.544785344 2.593283349 -0.145865371
C 2.986144542 0.227425723 -0.010549528
C 1.966581777 -1.477082656 2.055016935
C 0.871696023 -1.650692437 -0.538872110
H -5.433943470 0.349967830 0.129222874
H -3.455313744 -0.848216780 2.556537719
H -4.421458997 -2.834712605 0.053595146
H -2.009822169 -0.192035991 -3.009003179
H 3.025429964 3.206693684 -2.999324059
H 2.221734073 4.428252959 0.470339585
H 3.871324837 1.866882284 -2.220413022
H 0.786428594 -0.734112868 3.563996694
H 3.222372742 -2.973894921 2.662600091
H 1.185473405 -3.296141432 -1.717482502

