16

C 4.549996183 -0.581766908 -0.262437473
C 1.963735907 0.297366698 0.530518084
C -0.012362607 0.215638500 -1.492026515
C -2.756752237 0.364752952 -0.778931994
C -4.759349870 -1.078871101 0.497718750
C -1.847777190 2.364413705 -1.796922374
N 1.376403074 1.059188016 2.727268938
H 5.917961744 -0.406462704 1.267526560
H 4.475023964 -2.556255451 -0.865042108
H 5.210597099 0.513896185 -1.883652885
H 0.543529850 -0.856397216 -3.164663473
H -6.521184338 -0.014863792 0.562349802
H -4.162296929 -1.503477538 2.426016830
H -5.090059822 -2.871683604 -0.468636432
H -2.001189031 4.305761422 -2.374453782
H 2.903885255 1.030904466 3.894708762

