16

C 4.354092150 -0.992170466 0.090372259
C 2.193749043 0.880858133 0.212495508
C -0.172322330 -0.156700418 -0.744068966
C -2.649209756 0.390084448 -0.025227277
C -4.773581114 -1.441756985 -0.383338522
C -2.843915174 2.936968274 0.227439500
N 2.424493484 3.119593221 1.086548604
H 6.077630449 -0.185109653 0.874737858
H 3.896774648 -2.720803334 1.118622397
H 4.719636255 -1.520800808 -1.871611040
H 0.044209217 -1.596829781 -2.198199575
H -6.557819646 -0.455733590 -0.664192302
H -4.933836296 -2.630740953 1.296762116
H -4.412652835 -2.687969759 -1.988269106
H -1.444638534 3.968056497 1.354943250
H 4.172432324 3.371196384 1.847853649

