17

C -4.275080924 0.063518457 0.263150429
C -2.557329515 1.428824304 -1.520687292
C 1.348628201 1.739597834 1.226063834
C -0.175640878 2.109701149 -1.133105182
C 2.631195526 -3.276570786 -0.265530690
C 4.291475999 -1.416916403 0.018466328
O 3.875108201 1.003771986 0.697548897
H -5.863311866 1.267430279 0.806560659
H -3.331738600 -0.540448651 1.990721422
H -5.078632270 -1.606840624 -0.647132856
H -3.383630215 1.905969473 -3.339260750
H 1.535948909 3.536038536 2.224265210
H 0.485361850 0.382682882 2.524457464
H 0.826174750 3.089363688 -2.633162882
H 3.320640900 -5.124007807 -0.794600431
H 0.616112737 -3.044075268 -0.034161845
H 6.296340019 -1.716528341 -0.281609104

