10

C -2.576199110 -0.334902101 0.363176921
N 0.132375844 -0.304513548 0.010255355
C 1.740055847 1.618109212 -0.305299372
N 4.020022095 0.710885469 -0.590543647
N 3.772740490 -1.816879809 -0.444687649
N 1.463652542 -2.443957040 -0.088019418
H -3.036554460 -1.467487344 2.016414876
H -3.493517014 -1.137953577 -1.294577196
H -3.228121837 1.593938255 0.646399170
H 1.205545603 3.582760502 -0.313119039

