11

C -3.497082890 0.144589749 -0.791011199
C -0.763708417 -0.546916012 -0.958814854
O 0.228279388 -1.574053612 -2.731361858
C 0.921983751 0.198125652 1.286879208
O 0.164312140 1.421819618 3.059569794
C 3.473045744 -0.938131329 1.289684676
O 5.168847153 0.557338910 0.376807081
H -4.330573204 -0.727760535 0.882644586
H -4.476359660 -0.466272763 -2.490771187
H -3.683875306 2.183663801 -0.539121043
H 6.806932660 -0.238330690 0.505966290

