11

C -3.526959158 0.098761415 0.371690609
C -0.974624283 -0.749903117 -0.484885526
O -0.564260448 -2.379964734 -2.016642304
C 1.317761585 0.619144312 0.653623158
O 1.157525735 2.292049667 2.184131868
C 3.840816929 -0.413480485 -0.101346484
O 5.201104891 0.678701733 -1.793456654
H -3.684803370 -0.133889723 2.415928660
H -4.982312608 -0.984342427 -0.592309105
H -3.754978916 2.113805483 -0.007905235
H 5.982530983 -1.126805535 -0.738357533

