12

C 3.696648570 -2.399127993 -0.135419399
C 2.611114578 -0.099738743 0.725806237
C 0.134302609 0.203979759 0.199202739
C -1.818074834 -1.350575224 -1.115969561
O -3.690444901 0.585302265 -0.658010630
C -1.879474663 2.142697808 0.618435135
H 5.716593171 -2.424542731 0.393052716
H 3.585446540 1.407168609 1.746594035
H -1.471003539 -1.673742731 -3.124619609
H -2.273259345 -3.142552713 -0.198857108
H -2.363488174 2.484883387 2.601369374
H -1.564755384 3.954783647 -0.330169660

