12

C 4.915787729 -1.107663705 -0.525261130
C 2.662677910 -0.335875991 0.083341571
C 0.124506760 0.083976859 -0.142611810
C -2.113673864 -1.390274477 -1.069478727
O -3.750026228 0.683226776 -0.451585471
C -1.698210697 2.183260553 0.505502438
H 6.115317824 -1.968867590 0.906146996
H 2.085985124 -0.010159168 2.191864986
H -2.057736818 -1.804036815 -3.099870017
H -2.587752726 -3.111943685 -0.028581295
H -1.949227950 2.650269836 2.503765549
H -1.421977373 3.922475755 -0.581226957

