11

C 2.433426881 0.337630828 0.197848958
N -0.085356926 1.290280620 -0.321935443
C -2.221674868 0.120944872 0.949282338
C -2.116406445 -0.905220293 -1.654541488
H 2.394476300 -1.605340012 0.909413217
H 3.340230557 1.552224213 1.597663528
H 3.557548891 0.380064420 -1.528293459
H -1.617590842 -1.080962328 2.501745810
H -3.720554777 1.421858074 1.475529093
H -0.962226017 -2.626903826 -1.669717236
H -0.797222993 1.295569151 -2.334314280

