14

O -0.998951767 4.846034990 2.773690325
C -0.658856887 2.593193153 1.596034736
C -1.947463872 -3.612305236 -1.687646976
C -0.233241885 -2.590646785 -0.179424166
C 1.665603170 -0.645148323 -0.970938278
C 1.381809562 1.869311848 0.333290562
H 0.483345153 5.871058571 2.553904707
H -2.310712772 1.399937591 1.799009123
H -2.093041172 -3.072887015 -3.661010679
H -3.266178313 -5.024924477 -1.012358524
H -0.158264998 -3.167272448 1.792732397
H 1.576997880 -0.391479500 -3.023233270
H 3.561485059 -1.375992286 -0.569342507
H 2.971260322 3.165307208 0.179469161

