14

O -2.030309975 3.806018661 1.282285000
C -1.143512528 1.372564871 1.245915974
C -2.017867452 -1.611339571 -0.982124928
C 0.346467528 -2.502350484 -0.293106632
C 2.426793319 -0.810633756 -1.075325937
C 1.500260468 1.046352202 0.832436584
H -1.042777615 4.786607790 0.115369953
H -2.217284769 0.346453298 2.645594597
H -2.225007645 -0.679489125 -2.799666217
H -3.721463754 -2.491806720 -0.262327170
H 0.647697998 -3.915524057 1.152249317
H 2.365872139 -0.211269359 -3.057154535
H 4.316015038 -1.497786703 -0.630155160
H 2.791022231 2.321511480 1.809065886

