14

C -3.212070408 -1.687979379 0.249124825
C -1.812408264 0.406779535 -0.468060084
O -0.974871743 2.292596648 1.043747442
C 1.617090915 1.980662713 0.017800937
C 2.971718524 -0.195411514 1.370422318
N 1.712253176 -2.072425583 -0.257459216
C 0.634035278 -0.043291717 -1.812527581
H -4.352893440 -1.728760293 1.954014381
H -3.393398474 -3.170643757 -1.148369048
H -4.100114471 0.806475111 -1.228688833
H 2.457911760 3.814929193 -0.382457059
H 5.042070964 -0.090847034 1.144491236
H 2.579019961 -0.286442267 3.406927193
H 0.784662513 -0.057816133 -3.873397054

