14

C -3.306516048 -0.525460856 -0.436447442
C -0.577904781 0.004987063 -1.042765956
O 0.249217932 2.346952541 0.196350916
C 1.387604275 -1.652985620 0.272815679
C 2.599554670 0.701759151 1.463538592
O 4.363954139 1.891503771 0.220516885
H -4.524618730 0.954082110 -1.194317644
H -3.875028890 -2.329308603 -1.262168582
H -3.589657077 -0.623857969 1.604517168
H -0.302677282 0.193818947 -3.078670011
H 2.272553400 2.877056983 -0.633015638
H 2.699990193 -2.649563097 -0.955381013
H 0.566808725 -2.952743821 1.644468681
H 2.535121529 0.897336998 3.526358470

