12

O 5.590138424 -1.022455859 -0.671075875
C 3.371796807 -0.666867191 -0.977367145
C 1.764293758 0.841903054 0.761135139
C -0.178638248 2.658056226 -0.359684782
N -0.876764098 0.277005239 0.543517642
C -2.504458493 -1.407271429 1.041062840
O -4.912991558 -1.199943737 0.336593671
H 2.363925872 -1.354617820 -2.690723146
H 2.525158458 1.217226246 2.628645209
H -0.210560749 2.763296888 -2.422029508
H -5.191019064 0.432112599 -0.428108005
H -2.035302348 -3.088084325 2.102139977

