19

C 4.987928118 -2.618701035 1.338810809
O 2.625165618 -2.111131388 0.859715121
C 1.075278391 -0.592200672 1.943930575
C -0.581697442 3.272423801 -2.159376285
C -2.099805183 2.404327952 0.126702754
C -1.558322076 -0.336127910 0.960510883
C -2.149408755 -2.259547908 -1.103774573
H 5.827791478 -4.018328012 0.130586292
H 5.916562024 -1.680548825 2.897468690
H 1.443768050 3.016860056 -1.847649709
H 1.776025140 0.508058122 3.530393281
H -0.912946193 5.270807401 -2.545455969
H -1.092250740 2.221444208 -3.859005354
H -4.124159780 2.583665853 -0.261946201
H -1.709697718 3.659794035 1.723940735
H -2.847156225 -0.711811227 2.545033407
H -4.079340862 -1.996517345 -1.783159857
H -0.873585919 -2.074347359 -2.711710426
H -1.974251798 -4.186668481 -0.394205222

