19

C 4.599240046 -0.781142085 0.185827447
O 2.288370748 -1.980076614 0.753823921
C 0.649978141 -0.504232334 1.738531877
C 0.580476981 2.355958541 -1.306998593
C -2.044172496 2.155168300 -0.010392511
C -2.094755400 -0.544965531 1.093219886
C -2.841934949 -2.569001824 -0.802659830
H 5.832372552 -2.158607261 -0.707090786
H 5.439361561 0.077483798 1.868868972
H 2.787291912 1.364441505 -0.780546670
H 1.293468607 0.823546727 3.176111075
H 1.120664246 4.329815027 -1.578839116
H 0.472818566 1.484599003 -3.179244751
H -3.635100814 2.555314821 -1.274524972
H -2.155940990 3.510174705 1.544035898
H -3.285304269 -0.680742543 2.777496573
H -4.820221085 -2.325074596 -1.331980999
H -1.701474594 -2.467872072 -2.515526184
H -2.618543942 -4.460384312 -0.013227781

