12

C 3.591817506 -2.165147887 0.526113227
C 1.562092042 -0.180439460 0.341218190
O 1.634218787 1.783213620 1.481961626
C -0.638674234 -0.825811318 -1.352760919
H -0.357993837 -2.380166840 -2.668169927
C -3.204449729 -0.293060088 -0.439917262
H -3.406596491 0.603385772 1.395201484
H -4.755712903 -1.478925025 -1.072185004
O -2.060469154 1.214895741 -2.304258961
H 4.563050789 -2.322139663 -1.290579972
H 4.944537134 -1.658997632 1.987195798
H 2.763055872 -4.012217564 0.933696973

