14

C 4.985443110 0.819362930 -1.138843676
C 2.965879799 -0.230876080 -0.214276688
C 0.943932561 -1.319932030 0.671079182
C -1.579340290 -1.345197006 -0.643927068
C -3.521431898 0.255007769 0.765042809
O -2.867678839 2.836841419 0.816514073
H 1.060700345 -2.230120186 2.511399362
H 6.287810853 -0.251689297 -2.301559279
H 5.421782440 2.787199807 -0.776397984
H -1.376419269 -0.627634435 -2.566971899
H -2.275728254 -3.288968788 -0.760918784
H -5.346085662 0.142422120 -0.189060201
H -3.774650039 -0.483462316 2.690319973
H -1.155084606 2.969899020 1.407007113

