9

O 4.328449152 0.115581999 -0.939465003
C 2.625339492 -0.203167933 0.539505565
C 0.222010921 1.147650782 0.283102497
C -1.813140041 0.029147514 -1.213226074
O -2.230154636 -0.649816910 1.400863557
H 2.835390790 -1.408869949 2.240446500
H -1.509030347 1.206155871 2.181582627
H -3.276222793 1.221095990 -2.021278010
H -1.399212730 -1.657995737 -2.306006768

