17

C -3.859046191 0.002683524 1.354101018
C -1.084147084 0.647396775 1.570342530
C 1.091296863 -2.210123199 -1.672051275
C 0.758711849 -1.483379960 1.046032253
C 2.850571073 -0.339804278 -0.480187818
C 2.129451282 2.407268631 -0.797531548
O -0.489653286 2.526693350 -0.260273699
H -4.381572094 -1.389050029 2.783917466
H -4.274810127 -0.777605142 -0.508489395
H -5.013524459 1.687506362 1.629896965
H -0.690652304 1.388057733 3.474990007
H 1.824426147 -4.079505420 -2.055230020
H -0.266993924 -1.518557061 -3.039888334
H 1.123657175 -2.855020547 2.517538686
H 4.810962127 -0.825939819 -0.165359181
H 3.215964983 3.583905922 0.524116372
H 2.401836273 3.141128597 -2.707154069

