17

C -3.633115014 0.104554068 1.057013924
C -0.858033208 0.704996724 1.117584540
C 0.022439685 -2.988300474 -1.461517926
C 1.300234186 -1.800390097 0.614722976
C 3.285213411 0.014642014 0.296062012
C 2.475395412 2.488359065 -0.812707863
O -0.226573079 2.420854155 -0.720953647
H -4.064191136 -1.514336773 2.255859276
H -4.262369020 -0.275870138 -0.864522206
H -4.653649475 1.739449547 1.800927894
H -0.315908540 1.299987558 3.026201501
H 0.435798283 -2.406164199 -3.380280751
H -1.795348856 -3.875597036 -1.146825879
H 1.288967242 -2.896954495 2.370611024
H 4.894273745 0.011250655 1.559461184
H 3.175644917 4.071158273 0.339201096
H 3.002280819 2.872906011 -2.777916565

