17

C 4.327621603 -0.932984641 1.442424474
O 1.755879374 -0.409323466 1.023565715
C 1.198482828 0.105400363 -1.575271748
C -1.468348984 0.772421491 -2.203605647
C -3.685237100 -1.017726725 -0.257767336
C -3.070285467 1.808679758 -0.179156373
O -2.094553879 2.779849622 2.067399460
H 4.932652250 -2.595908463 0.363349906
H 4.570285681 -1.312608112 3.450326096
H 5.523145951 0.673366053 0.908166490
H 2.281656721 1.768950874 -2.196112391
H 1.847610460 -1.498093859 -2.715467031
H -2.620315428 -1.576591703 -2.199704553
H -5.572066369 -1.514034908 -0.889216618
H -2.951906408 -2.058379495 1.344270039
H -4.618313997 3.021786326 -0.762993307
H -0.529876711 1.903112831 2.413717208

