29

C     4.13039  -2.09113  -0.96952
N     3.10119  -1.08880  -0.91981
C     2.69441  -0.56332   0.24029
O     3.09746  -0.81738   1.36765
C     1.67808   0.45178  -0.05162
N     1.04312   1.43608  -0.31059
N     0.35027   2.47508  -0.38335
C    -0.22838   2.85854  -1.50013
N    -0.80127   3.35836  -2.39084
C    -0.48406   1.38206   2.28000
C    -1.93296   0.98018   1.89866
O    -2.02158  -0.33736   2.49633
C    -0.82910  -0.83718   1.82947
C    -1.26212  -0.59942   0.34173
C    -0.94229  -1.42306  -0.84687
F    -1.91567  -2.29039  -1.18447
F    -0.71576  -0.66406  -1.94372
F     0.17302  -2.16147  -0.64109
C    -1.95680   0.53951   0.42319
F    -2.55146   1.23908  -0.52564
C     0.16393   0.24881   2.30409
H     4.38549  -2.18339  -2.01342
H     4.97815  -1.73625  -0.38563
H     3.74402  -3.01492  -0.56247
H     2.52845  -0.81101  -1.72852
H    -0.13481   2.41859   2.41674
H    -2.71405   1.65073   2.21599
H    -0.56411  -1.86282   2.07281
H     1.27682   0.05719   2.44857
29

C     4.12587  -2.08555  -0.96872
N     3.09564  -1.08224  -0.91607
C     2.68861  -0.56142   0.24626
O     3.09853  -0.81970   1.37031
C     1.66157   0.44901  -0.02701
N     1.04892   1.43045  -0.31918
N     0.34770   2.46677  -0.37757
C    -0.22886   2.85719  -1.49421
N    -0.79910   3.35770  -2.38603
C    -0.47998   1.38542   2.26625
C    -1.92991   0.98101   1.89617
O    -2.01074  -0.33368   2.49816
C    -0.82510  -0.83645   1.82433
C    -1.26467  -0.60094   0.34053
C    -0.94293  -1.42370  -0.84813
F    -1.91603  -2.29135  -1.18591
F    -0.71610  -0.66442  -1.94445
F     0.17235  -2.16147  -0.64144
C    -1.95851   0.53850   0.42227
F    -2.55225   1.23909  -0.52611
C     0.17504   0.25031   2.28246
H     4.38372  -2.18153  -2.01335
H     4.97716  -1.73486  -0.38577
H     3.74297  -3.01346  -0.56236
H     2.52612  -0.80979  -1.72706
H    -0.13412   2.41871   2.41652
H    -2.71251   1.65119   2.21629
H    -0.56235  -1.86222   2.07208
H     1.27593   0.05752   2.45286
29

C     4.12135  -2.07997  -0.96791
N     3.09008  -1.07568  -0.91234
C     2.68282  -0.55951   0.25222
O     3.09959  -0.82202   1.37296
C     1.64507   0.44624  -0.00240
N     1.05472   1.42482  -0.32778
N     0.34514   2.45846  -0.37180
C    -0.22934   2.85583  -1.48828
N    -0.79693   3.35704  -2.38123
C    -0.47591   1.38878   2.25249
C    -1.92686   0.98183   1.89368
O    -1.99991  -0.33000   2.50000
C    -0.82111  -0.83573   1.81919
C    -1.26721  -0.60247   0.33933
C    -0.94357  -1.42435  -0.84939
F    -1.91640  -2.29231  -1.18736
F    -0.71644  -0.66478  -1.94519
F     0.17167  -2.16147  -0.64179
C    -1.96022   0.53750   0.42135
F    -2.55303   1.23910  -0.52658
C     0.18614   0.25182   2.26084
H     4.38196  -2.17967  -2.01329
H     4.97617  -1.73348  -0.38591
H     3.74193  -3.01201  -0.56225
H     2.52379  -0.80857  -1.72561
H    -0.13343   2.41883   2.41631
H    -2.71098   1.65165   2.21658
H    -0.56059  -1.86162   2.07136
H     1.27503   0.05785   2.45715
29

C     4.11683  -2.07439  -0.96710
N     3.08452  -1.06912  -0.90860
C     2.67703  -0.55761   0.25819
O     3.10066  -0.82434   1.37561
C     1.62856   0.44347   0.02220
N     1.06052   1.41919  -0.33637
N     0.34257   2.45014  -0.36603
C    -0.22981   2.85447  -1.48235
N    -0.79476   3.35639  -2.37642
C    -0.47183   1.39214   2.23874
C    -1.92382   0.98266   1.89119
O    -1.98907  -0.32633   2.50183
C    -0.81711  -0.83500   1.81404
C    -1.26976  -0.60400   0.33813
C    -0.94420  -1.42500  -0.85065
F    -1.91676  -2.29327  -1.18880
F    -0.71678  -0.66513  -1.94592
F     0.17099  -2.16147  -0.64214
C    -1.96193   0.53649   0.42043
F    -2.55381   1.23912  -0.52705
C     0.19724   0.25332   2.23922
H     4.38020  -2.17781  -2.01322
H     4.97518  -1.73209  -0.38605
H     3.74089  -3.01056  -0.56214
H     2.52146  -0.80736  -1.72415
H    -0.13274   2.41895   2.41609
H    -2.70944   1.65211   2.21688
H    -0.55883  -1.86101   2.07064
H     1.27414   0.05818   2.46144
29

C     4.11231  -2.06882  -0.96629
N     3.07897  -1.06256  -0.90487
C     2.67123  -0.55571   0.26416
O     3.10173  -0.82666   1.37827
C     1.61206   0.44070   0.04681
N     1.06632   1.41356  -0.34496
N     0.34000   2.44183  -0.36026
C    -0.23029   2.85312  -1.47643
N    -0.79260   3.35573  -2.37161
C    -0.46776   1.39550   2.22499
C    -1.92077   0.98349   1.88869
O    -1.97824  -0.32265   2.50366
C    -0.81311  -0.83428   1.80890
C    -1.27231  -0.60552   0.33693
C    -0.94484  -1.42564  -0.85191
F    -1.91712  -2.29422  -1.19024
F    -0.71712  -0.66549  -1.94665
F     0.17031  -2.16147  -0.64249
C    -1.96364   0.53549   0.41952
F    -2.55459   1.23913  -0.52751
C     0.20835   0.25482   2.21760
H     4.37844  -2.17594  -2.01316
H     4.97419  -1.73070  -0.38619
H     3.73984  -3.00911  -0.56203
H     2.51914  -0.80614  -1.72270
H    -0.13205   2.41907   2.41588
H    -2.70790   1.65257   2.21718
H    -0.55707  -1.86041   2.06991
H     1.27325   0.05851   2.46573
29

C     4.10779  -2.06324  -0.96549
N     3.07341  -1.05600  -0.90113
C     2.66544  -0.55381   0.27012
O     3.10279  -0.82898   1.38092
C     1.59556   0.43793   0.07142
N     1.07212   1.40793  -0.35355
N     0.33743   2.43352  -0.35449
C    -0.23076   2.85176  -1.47050
N    -0.79043   3.35508  -2.36681
C    -0.46368   1.39886   2.21123
C    -1.91772   0.98432   1.88620
O    -1.96741  -0.31897   2.50550
C    -0.80912  -0.83355   1.80375
C    -1.27485  -0.60705   0.33574
C    -0.94548  -1.42629  -0.85317
F    -1.91748  -2.29518  -1.19169
F    -0.71746  -0.66584  -1.94738
F     0.16964  -2.16147  -0.64284
C    -1.96535   0.53449   0.41860
F    -2.55538   1.23914  -0.52798
C     0.21945   0.25633   2.19598
H     4.37668  -2.17408  -2.01309
H     4.97320  -1.72931  -0.38632
H     3.73880  -3.00766  -0.56193
H     2.51681  -0.80492  -1.72124
H    -0.13136   2.41919   2.41566
H    -2.70637   1.65302   2.21748
H    -0.55531  -1.85981   2.06919
H     1.27235   0.05884   2.47002
29

C     4.10327  -2.05766  -0.96468
N     3.06785  -1.04944  -0.89740
C     2.65964  -0.55190   0.27609
O     3.10386  -0.83130   1.38357
C     1.57905   0.43517   0.09603
N     1.07791   1.40230  -0.36214
N     0.33486   2.42520  -0.34871
C    -0.23124   2.85041  -1.46457
N    -0.78826   3.35442  -2.36200
C    -0.45961   1.40222   2.19748
C    -1.91468   0.98515   1.88371
O    -1.95657  -0.31529   2.50733
C    -0.80512  -0.83282   1.79861
C    -1.27740  -0.60858   0.33454
C    -0.94612  -1.42694  -0.85443
F    -1.91784  -2.29614  -1.19313
F    -0.71780  -0.66620  -1.94812
F     0.16896  -2.16146  -0.64319
C    -1.96706   0.53348   0.41768
F    -2.55616   1.23915  -0.52845
C     0.23055   0.25783   2.17436
H     4.37491  -2.17222  -2.01303
H     4.97222  -1.72792  -0.38646
H     3.73776  -3.00621  -0.56182
H     2.51448  -0.80371  -1.71979
H    -0.13067   2.41930   2.41545
H    -2.70483   1.65348   2.21778
H    -0.55355  -1.85921   2.06846
H     1.27146   0.05917   2.47430
29

C     4.09875  -2.05208  -0.96387
N     3.06230  -1.04288  -0.89366
C     2.65385  -0.55000   0.28206
O     3.10493  -0.83362   1.38622
C     1.56255   0.43240   0.12063
N     1.08371   1.39667  -0.37073
N     0.33229   2.41689  -0.34294
C    -0.23172   2.84905  -1.45865
N    -0.78609   3.35377  -2.35720
C    -0.45553   1.40558   2.18373
C    -1.91163   0.98598   1.88122
O    -1.94574  -0.31161   2.50916
C    -0.80112  -0.83210   1.79346
C    -1.27994  -0.61010   0.33334
C    -0.94676  -1.42758  -0.85569
F    -1.91820  -2.29710  -1.19457
F    -0.71814  -0.66656  -1.94885
F     0.16828  -2.16146  -0.64355
C    -1.96877   0.53248   0.41676
F    -2.55694   1.23917  -0.52892
C     0.24166   0.25933   2.15274
H     4.37315  -2.17035  -2.01296
H     4.97123  -1.72654  -0.38660
H     3.73671  -3.00476  -0.56171
H     2.51216  -0.80249  -1.71834
H    -0.12998   2.41942   2.41523
H    -2.70329   1.65394   2.21808
H    -0.55179  -1.85861   2.06774
H     1.27057   0.05950   2.47859
29

C     4.09423  -2.04650  -0.96307
N     3.05674  -1.03631  -0.88993
C     2.64806  -0.54810   0.28802
O     3.10599  -0.83594   1.38888
C     1.54604   0.42963   0.14524
N     1.08951   1.39104  -0.37932
N     0.32972   2.40858  -0.33717
C    -0.23219   2.84769  -1.45272
N    -0.78392   3.35311  -2.35239
C    -0.45146   1.40894   2.16997
C    -1.90858   0.98681   1.87873
O    -1.93490  -0.30793   2.51100
C    -0.79713  -0.83137   1.78832
C    -1.28249  -0.61163   0.33214
C    -0.94740  -1.42823  -0.85695
F    -1.91856  -2.29806  -1.19601
F    -0.71848  -0.66691  -1.94958
F     0.16760  -2.16146  -0.64390
C    -1.97048   0.53147   0.41584
F    -2.55772   1.23918  -0.52938
C     0.25276   0.26084   2.13112
H     4.37139  -2.16849  -2.01290
H     4.97024  -1.72515  -0.38674
H     3.73567  -3.00330  -0.56160
H     2.50983  -0.80127  -1.71688
H    -0.12929   2.41954   2.41502
H    -2.70176   1.65440   2.21837
H    -0.55003  -1.85801   2.06702
H     1.26967   0.05983   2.48288
29

C     4.08971  -2.04092  -0.96226
N     3.05118  -1.02975  -0.88619
C     2.64226  -0.54620   0.29399
O     3.10706  -0.83826   1.39153
C     1.52954   0.42686   0.16985
N     1.09531   1.38541  -0.38791
N     0.32715   2.40026  -0.33140
C    -0.23267   2.84634  -1.44680
N    -0.78176   3.35246  -2.34758
C    -0.44738   1.41230   2.15622
C    -1.90554   0.98763   1.87624
O    -1.92407  -0.30425   2.51283
C    -0.79313  -0.83065   1.78317
C    -1.28503  -0.61316   0.33094
C    -0.94804  -1.42888  -0.85821
F    -1.91893  -2.29902  -1.19746
F    -0.71881  -0.66727  -1.95032
F     0.16692  -2.16146  -0.64425
C    -1.97219   0.53047   0.41492
F    -2.55850   1.23919  -0.52985
C     0.26386   0.26234   2.10950
H     4.36963  -2.16663  -2.01283
H     4.96925  -1.72376  -0.38688
H     3.73463  -3.00185  -0.56149
H     2.50750  -0.80006  -1.71543
H    -0.12860   2.41966   2.41480
H    -2.70022   1.65486   2.21867
H    -0.54827  -1.85741   2.06629
H     1.26878   0.06016   2.48717
29

C     4.08519  -2.03534  -0.96145
N     3.04563  -1.02319  -0.88246
C     2.63647  -0.54429   0.29996
O     3.10813  -0.84058   1.39418
C     1.51303   0.42409   0.19445
N     1.10111   1.37978  -0.39650
N     0.32459   2.39195  -0.32562
C    -0.23314   2.84498  -1.44087
N    -0.77959   3.35180  -2.34278
C    -0.44331   1.41566   2.14247
C    -1.90249   0.98846   1.87374
O    -1.91324  -0.30057   2.51466
C    -0.78914  -0.82992   1.77803
C    -1.28758  -0.61468   0.32974
C    -0.94868  -1.42952  -0.85947
F    -1.91929  -2.29998  -1.19890
F    -0.71915  -0.66762  -1.95105
F     0.16625  -2.16146  -0.64460
C    -1.97390   0.52946   0.41401
F    -2.55929   1.23920  -0.53032
C     0.27496   0.26384   2.08788
H     4.36787  -2.16477  -2.01276
H     4.96826  -1.72237  -0.38702
H     3.73358  -3.00040  -0.56138
H     2.50517  -0.79884  -1.71397
H    -0.12791   2.41978   2.41458
H    -2.69868   1.65531   2.21897
H    -0.54651  -1.85681   2.06557
H     1.26788   0.06049   2.49146
29

C     4.08067  -2.02976  -0.96064
N     3.04007  -1.01663  -0.87872
C     2.63068  -0.54239   0.30592
O     3.10919  -0.84290   1.39683
C     1.49653   0.42132   0.21906
N     1.10691   1.37415  -0.40509
N     0.32202   2.38364  -0.31985
C    -0.23362   2.84362  -1.43494
N    -0.77742   3.35115  -2.33797
C    -0.43923   1.41902   2.12871
C    -1.89944   0.98929   1.87125
O    -1.90240  -0.29689   2.51650
C    -0.78514  -0.82919   1.77288
C    -1.29013  -0.61621   0.32855
C    -0.94932  -1.43017  -0.86073
F    -1.91965  -2.30094  -1.20034
F    -0.71949  -0.66798  -1.95178
F     0.16557  -2.16146  -0.64495
C    -1.97561   0.52846   0.41309
F    -2.56007   1.23922  -0.53079
C     0.28607   0.26535   2.06625
H     4.36610  -2.16290  -2.01270
H     4.96727  -1.72099  -0.38715
H     3.73254  -2.99895  -0.56127
H     2.50285  -0.79762  -1.71252
H    -0.12722   2.41990   2.41437
H    -2.69715   1.65577   2.21927
H    -0.54475  -1.85620   2.06484
H     1.26699   0.06082   2.49575
29

C     4.07615  -2.02418  -0.95984
N     3.03451  -1.01007  -0.87499
C     2.62488  -0.54049   0.31189
O     3.11026  -0.84522   1.39949
C     1.48003   0.41855   0.24367
N     1.11271   1.36852  -0.41368
N     0.31945   2.37532  -0.31408
C    -0.23410   2.84227  -1.42902
N    -0.77525   3.35049  -2.33317
C    -0.43516   1.42237   2.11496
C    -1.89640   0.99012   1.86876
O    -1.89157  -0.29321   2.51833
C    -0.78114  -0.82847   1.76774
C    -1.29267  -0.61774   0.32735
C    -0.94996  -1.43082  -0.86199
F    -1.92001  -2.30190  -1.20178
F    -0.71983  -0.66833  -1.95251
F     0.16489  -2.16146  -0.64530
C    -1.97732   0.52745   0.41217
F    -2.56085   1.23923  -0.53125
C     0.29717   0.26685   2.04463
H     4.36434  -2.16104  -2.01263
H     4.96629  -1.71960  -0.38729
H     3.73150  -2.99750  -0.56116
H     2.50052  -0.79640  -1.71106
H    -0.12653   2.42001   2.41415
H    -2.69561   1.65623   2.21957
H    -0.54299  -1.85560   2.06412
H     1.26610   0.06115   2.50003
29

C     4.07163  -2.01860  -0.95903
N     3.02896  -1.00351  -0.87125
C     2.61909  -0.53859   0.31786
O     3.11133  -0.84754   1.40214
C     1.46352   0.41578   0.26828
N     1.11850   1.36289  -0.42227
N     0.31688   2.36701  -0.30831
C    -0.23457   2.84091  -1.42309
N    -0.77309   3.34984  -2.32836
C    -0.43108   1.42573   2.10121
C    -1.89335   0.99095   1.86627
O    -1.88074  -0.28953   2.52017
C    -0.77715  -0.82774   1.76259
C    -1.29522  -0.61926   0.32615
C    -0.95060  -1.43146  -0.86325
F    -1.92037  -2.30286  -1.20323
F    -0.72017  -0.66869  -1.95325
F     0.16421  -2.16145  -0.64565
C    -1.97904   0.52645   0.41125
F    -2.56163   1.23924  -0.53172
C     0.30827   0.26835   2.02301
H     4.36258  -2.15918  -2.01257
H     4.96530  -1.71821  -0.38743
H     3.73045  -2.99605  -0.56105
H     2.49819  -0.79519  -1.70961
H    -0.12584   2.42013   2.41394
H    -2.69407   1.65669   2.21987
H    -0.54123  -1.85500   2.06339
H     1.26520   0.06148   2.50432
29

C     4.06711  -2.01302  -0.95822
N     3.02340  -0.99695  -0.86752
C     2.61329  -0.53668   0.32382
O     3.11239  -0.84986   1.40479
C     1.44702   0.41301   0.29288
N     1.12430   1.35726  -0.43086
N     0.31431   2.35869  -0.30253
C    -0.23505   2.83955  -1.41716
N    -0.77092   3.34918  -2.32355
C    -0.42701   1.42909   2.08745
C    -1.89030   0.99178   1.86378
O    -1.86990  -0.28585   2.52200
C    -0.77315  -0.82701   1.75745
C    -1.29776  -0.62079   0.32495
C    -0.95124  -1.43211  -0.86451
F    -1.92073  -2.30382  -1.20467
F    -0.72051  -0.66905  -1.95398
F     0.16353  -2.16145  -0.64601
C    -1.98075   0.52544   0.41033
F    -2.56242   1.23926  -0.53219
C     0.31938   0.26986   2.00139
H     4.36082  -2.15731  -2.01250
H     4.96431  -1.71682  -0.38757
H     3.72941  -2.99460  -0.56094
H     2.49586  -0.79397  -1.70815
H    -0.12515   2.42025   2.41372
H    -2.69254   1.65715   2.22017
H    -0.53947  -1.85440   2.06267
H     1.26431   0.06181   2.50861
29

C     4.06259  -2.00744  -0.95742
N     3.01785  -0.99039  -0.86378
C     2.60750  -0.53478   0.32979
O     3.11346  -0.85218   1.40745
C     1.43051   0.41024   0.31749
N     1.13010   1.35163  -0.43945
N     0.31174   2.35038  -0.29676
C    -0.23552   2.83820  -1.41124
N    -0.76875   3.34853  -2.31875
C    -0.42293   1.43245   2.07370
C    -1.88726   0.99261   1.86129
O    -1.85907  -0.28217   2.52383
C    -0.76915  -0.82629   1.75230
C    -1.30031  -0.62232   0.32375
C    -0.95188  -1.43276  -0.86577
F    -1.92110  -2.30478  -1.20611
F    -0.72085  -0.66940  -1.95471
F     0.16286  -2.16145  -0.64636
C    -1.98246   0.52444   0.40941
F    -2.56320   1.23927  -0.53266
C     0.33048   0.27136   1.97977
H     4.35906  -2.15545  -2.01244
H     4.96332  -1.71543  -0.38771
H     3.72837  -2.99314  -0.56083
H     2.49354  -0.79275  -1.70670
H    -0.12447   2.42037   2.41351
H    -2.69100   1.65760   2.22046
H    -0.53771  -1.85380   2.06195
H     1.26342   0.06215   2.51290
29

C     4.05807  -2.00186  -0.95661
N     3.01229  -0.98383  -0.86005
C     2.60171  -0.53288   0.33576
O     3.11453  -0.85450   1.41010
C     1.41401   0.40747   0.34210
N     1.13590   1.34600  -0.44805
N     0.30917   2.34207  -0.29099
C    -0.23600   2.83684  -1.40531
N    -0.76658   3.34787  -2.31394
C    -0.41886   1.43581   2.05995
C    -1.88421   0.99343   1.85879
O    -1.84823  -0.27849   2.52567
C    -0.76516  -0.82556   1.74716
C    -1.30285  -0.62384   0.32255
C    -0.95252  -1.43341  -0.86703
F    -1.92146  -2.30574  -1.20756
F    -0.72119  -0.66976  -1.95544
F     0.16218  -2.16145  -0.64671
C    -1.98417   0.52344   0.40850
F    -2.56398   1.23928  -0.53312
C     0.34158   0.27286   1.95815
H     4.35729  -2.15359  -2.01237
H     4.96233  -1.71405  -0.38785
H     3.72732  -2.99169  -0.56073
H     2.49121  -0.79154  -1.70524
H    -0.12378   2.42049   2.41329
H    -2.68946   1.65806   2.22076
H    -0.53595  -1.85320   2.06122
H     1.26252   0.06248   2.51719
29

C     4.05355  -1.99628  -0.95580
N     3.00673  -0.97726  -0.85631
C     2.59591  -0.53098   0.34172
O     3.11559  -0.85682   1.41275
C     1.39751   0.40470   0.36670
N     1.14170   1.34037  -0.45664
N     0.30661   2.33375  -0.28522
C    -0.23648   2.83549  -1.39938
N    -0.76441   3.34722  -2.30914
C    -0.41478   1.43917   2.04619
C    -1.88116   0.99426   1.85630
O    -1.83740  -0.27481   2.52750
C    -0.76116  -0.82484   1.74202
C    -1.30540  -0.62537   0.32136
C    -0.95316  -1.43405  -0.86829
F    -1.92182  -2.30670  -1.20900
F    -0.72153  -0.67011  -1.95618
F     0.16150  -2.16145  -0.64706
C    -1.98588   0.52243   0.40758
F    -2.56476   1.23929  -0.53359
C     0.35268   0.27437   1.93653
H     4.35553  -2.15173  -2.01231
H     4.96135  -1.71266  -0.38798
H     3.72628  -2.99024  -0.56062
H     2.48888  -0.79032  -1.70379
H    -0.12309   2.42061   2.41308
H    -2.68793   1.65852   2.22106
H    -0.53419  -1.85260   2.06050
H     1.26163   0.06281   2.52147
29

C     4.04904  -1.99070  -0.95499
N     3.00118  -0.97070  -0.85258
C     2.59012  -0.52907   0.34769
O     3.11666  -0.85914   1.41540
C     1.38100   0.40193   0.39131
N     1.14750   1.33474  -0.46523
N     0.30404   2.32544  -0.27944
C    -0.23695   2.83413  -1.39346
N    -0.76225   3.34656  -2.30433
C    -0.41071   1.44253   2.03244
C    -1.87812   0.99509   1.85381
O    -1.82657  -0.27114   2.52933
C    -0.75716  -0.82411   1.73687
C    -1.30795  -0.62690   0.32016
C    -0.95380  -1.43470  -0.86955
F    -1.92218  -2.30766  -1.21044
F    -0.72187  -0.67047  -1.95691
F     0.16082  -2.16145  -0.64741
C    -1.98759   0.52143   0.40666
F    -2.56555   1.23931  -0.53406
C     0.36379   0.27587   1.91491
H     4.35377  -2.14986  -2.01224
H     4.96036  -1.71127  -0.38812
H     3.72524  -2.98879  -0.56051
H     2.48656  -0.78910  -1.70233
H    -0.12240   2.42072   2.41286
H    -2.68639   1.65898   2.22136
H    -0.53243  -1.85199   2.05977
H     1.26074   0.06314   2.52576
29

C     4.04452  -1.98512  -0.95419
N     2.99562  -0.96414  -0.84884
C     2.58432  -0.52717   0.35366
O     3.11773  -0.86146   1.41806
C     1.36450   0.39916   0.41592
N     1.15330   1.32911  -0.47382
N     0.30147   2.31713  -0.27367
C    -0.23743   2.83277  -1.38753
N    -0.76008   3.34591  -2.29952
C    -0.40663   1.44589   2.01869
C    -1.87507   0.99592   1.85132
O    -1.81573  -0.26746   2.53117
C    -0.75317  -0.82338   1.73173
C    -1.31049  -0.62842   0.31896
C    -0.95444  -1.43535  -0.87081
F    -1.92254  -2.30862  -1.21188
F    -0.72220  -0.67083  -1.95764
F     0.16014  -2.16145  -0.64776
C    -1.98930   0.52042   0.40574
F    -2.56633   1.23932  -0.53453
C     0.37489   0.27737   1.89329
H     4.35201  -2.14800  -2.01217
H     4.95937  -1.70988  -0.38826
H     3.72419  -2.98734  -0.56040
H     2.48423  -0.78789  -1.70088
H    -0.12171   2.42084   2.41265
H    -2.68485   1.65944   2.22166
H    -0.53067  -1.85139   2.05905
H     1.25984   0.06347   2.53005
29

C     4.04000  -1.97954  -0.95338
N     2.99006  -0.95758  -0.84511
C     2.57853  -0.52527   0.35962
O     3.11879  -0.86378   1.42071
C     1.34799   0.39639   0.44053
N     1.15910   1.32348  -0.48241
N     0.29890   2.30881  -0.26790
C    -0.23790   2.83142  -1.38160
N    -0.75791   3.34525  -2.29472
C    -0.40256   1.44925   2.00493
C    -1.87202   0.99675   1.84883
O    -1.80490  -0.26378   2.53300
C    -0.74917  -0.82266   1.72658
C    -1.31304  -0.62995   0.31776
C    -0.95508  -1.43599  -0.87207
F    -1.92290  -2.30958  -1.21333
F    -0.72254  -0.67118  -1.95838
F     0.15947  -2.16144  -0.64811
C    -1.99101   0.51942   0.40482
F    -2.56711   1.23933  -0.53499
C     0.38599   0.27888   1.87167
H     4.35025  -2.14614  -2.01211
H     4.95838  -1.70849  -0.38840
H     3.72315  -2.98589  -0.56029
H     2.48190  -0.78667  -1.69942
H    -0.12102   2.42096   2.41243
H    -2.68332   1.65989   2.22196
H    -0.52891  -1.85079   2.05833
H     1.25895   0.06380   2.53434
29

C     4.04452  -1.98512  -0.95419
N     2.99562  -0.96414  -0.84884
C     2.58432  -0.52717   0.35366
O     3.11773  -0.86146   1.41806
C     1.36450   0.39916   0.41592
N     1.15330   1.32911  -0.47382
N     0.30147   2.31713  -0.27367
C    -0.23743   2.83277  -1.38753
N    -0.76008   3.34591  -2.29952
C    -0.40663   1.44589   2.01869
C    -1.87507   0.99592   1.85132
O    -1.81573  -0.26746   2.53117
C    -0.75317  -0.82338   1.73173
C    -1.31049  -0.62842   0.31896
C    -0.95444  -1.43535  -0.87081
F    -1.92254  -2.30862  -1.21188
F    -0.72220  -0.67083  -1.95764
F     0.16014  -2.16145  -0.64776
C    -1.98930   0.52042   0.40574
F    -2.56633   1.23932  -0.53453
C     0.37489   0.27737   1.89329
H     4.35201  -2.14800  -2.01217
H     4.95937  -1.70988  -0.38826
H     3.72419  -2.98734  -0.56040
H     2.48423  -0.78789  -1.70088
H    -0.12171   2.42084   2.41265
H    -2.68485   1.65944   2.22166
H    -0.53067  -1.85139   2.05905
H     1.25984   0.06347   2.53005
29

C     4.04904  -1.99070  -0.95499
N     3.00118  -0.97070  -0.85258
C     2.59012  -0.52907   0.34769
O     3.11666  -0.85914   1.41540
C     1.38100   0.40193   0.39131
N     1.14750   1.33474  -0.46523
N     0.30404   2.32544  -0.27944
C    -0.23695   2.83413  -1.39346
N    -0.76225   3.34656  -2.30433
C    -0.41071   1.44253   2.03244
C    -1.87812   0.99509   1.85381
O    -1.82657  -0.27114   2.52933
C    -0.75716  -0.82411   1.73687
C    -1.30795  -0.62690   0.32016
C    -0.95380  -1.43470  -0.86955
F    -1.92218  -2.30766  -1.21044
F    -0.72187  -0.67047  -1.95691
F     0.16082  -2.16145  -0.64741
C    -1.98759   0.52143   0.40666
F    -2.56555   1.23931  -0.53406
C     0.36379   0.27587   1.91491
H     4.35377  -2.14986  -2.01224
H     4.96036  -1.71127  -0.38812
H     3.72524  -2.98879  -0.56051
H     2.48656  -0.78910  -1.70233
H    -0.12240   2.42072   2.41286
H    -2.68639   1.65898   2.22136
H    -0.53243  -1.85199   2.05977
H     1.26074   0.06314   2.52576
29

C     4.05355  -1.99628  -0.95580
N     3.00673  -0.97726  -0.85631
C     2.59591  -0.53098   0.34172
O     3.11559  -0.85682   1.41275
C     1.39751   0.40470   0.36670
N     1.14170   1.34037  -0.45664
N     0.30661   2.33375  -0.28522
C    -0.23648   2.83549  -1.39938
N    -0.76441   3.34722  -2.30914
C    -0.41478   1.43917   2.04619
C    -1.88116   0.99426   1.85630
O    -1.83740  -0.27481   2.52750
C    -0.76116  -0.82484   1.74202
C    -1.30540  -0.62537   0.32136
C    -0.95316  -1.43405  -0.86829
F    -1.92182  -2.30670  -1.20900
F    -0.72153  -0.67011  -1.95618
F     0.16150  -2.16145  -0.64706
C    -1.98588   0.52243   0.40758
F    -2.56476   1.23929  -0.53359
C     0.35268   0.27437   1.93653
H     4.35553  -2.15173  -2.01231
H     4.96135  -1.71266  -0.38798
H     3.72628  -2.99024  -0.56062
H     2.48888  -0.79032  -1.70379
H    -0.12309   2.42061   2.41308
H    -2.68793   1.65852   2.22106
H    -0.53419  -1.85260   2.06050
H     1.26163   0.06281   2.52147
29

C     4.05807  -2.00186  -0.95661
N     3.01229  -0.98383  -0.86005
C     2.60171  -0.53288   0.33576
O     3.11453  -0.85450   1.41010
C     1.41401   0.40747   0.34210
N     1.13590   1.34600  -0.44805
N     0.30917   2.34207  -0.29099
C    -0.23600   2.83684  -1.40531
N    -0.76658   3.34787  -2.31394
C    -0.41886   1.43581   2.05995
C    -1.88421   0.99343   1.85879
O    -1.84823  -0.27849   2.52567
C    -0.76516  -0.82556   1.74716
C    -1.30285  -0.62384   0.32255
C    -0.95252  -1.43341  -0.86703
F    -1.92146  -2.30574  -1.20756
F    -0.72119  -0.66976  -1.95544
F     0.16218  -2.16145  -0.64671
C    -1.98417   0.52344   0.40850
F    -2.56398   1.23928  -0.53312
C     0.34158   0.27286   1.95815
H     4.35729  -2.15359  -2.01237
H     4.96233  -1.71405  -0.38785
H     3.72732  -2.99169  -0.56073
H     2.49121  -0.79154  -1.70524
H    -0.12378   2.42049   2.41329
H    -2.68946   1.65806   2.22076
H    -0.53595  -1.85320   2.06122
H     1.26252   0.06248   2.51719
29

C     4.06259  -2.00744  -0.95742
N     3.01785  -0.99039  -0.86378
C     2.60750  -0.53478   0.32979
O     3.11346  -0.85218   1.40745
C     1.43051   0.41024   0.31749
N     1.13010   1.35163  -0.43945
N     0.31174   2.35038  -0.29676
C    -0.23552   2.83820  -1.41124
N    -0.76875   3.34853  -2.31875
C    -0.42293   1.43245   2.07370
C    -1.88726   0.99261   1.86129
O    -1.85907  -0.28217   2.52383
C    -0.76915  -0.82629   1.75230
C    -1.30031  -0.62232   0.32375
C    -0.95188  -1.43276  -0.86577
F    -1.92110  -2.30478  -1.20611
F    -0.72085  -0.66940  -1.95471
F     0.16286  -2.16145  -0.64636
C    -1.98246   0.52444   0.40941
F    -2.56320   1.23927  -0.53266
C     0.33048   0.27136   1.97977
H     4.35906  -2.15545  -2.01244
H     4.96332  -1.71543  -0.38771
H     3.72837  -2.99314  -0.56083
H     2.49354  -0.79275  -1.70670
H    -0.12447   2.42037   2.41351
H    -2.69100   1.65760   2.22046
H    -0.53771  -1.85380   2.06195
H     1.26342   0.06215   2.51290
29

C     4.06711  -2.01302  -0.95822
N     3.02340  -0.99695  -0.86752
C     2.61329  -0.53668   0.32382
O     3.11239  -0.84986   1.40479
C     1.44702   0.41301   0.29288
N     1.12430   1.35726  -0.43086
N     0.31431   2.35869  -0.30253
C    -0.23505   2.83955  -1.41716
N    -0.77092   3.34918  -2.32355
C    -0.42701   1.42909   2.08745
C    -1.89030   0.99178   1.86378
O    -1.86990  -0.28585   2.52200
C    -0.77315  -0.82701   1.75745
C    -1.29776  -0.62079   0.32495
C    -0.95124  -1.43211  -0.86451
F    -1.92073  -2.30382  -1.20467
F    -0.72051  -0.66905  -1.95398
F     0.16353  -2.16145  -0.64601
C    -1.98075   0.52544   0.41033
F    -2.56242   1.23926  -0.53219
C     0.31938   0.26986   2.00139
H     4.36082  -2.15731  -2.01250
H     4.96431  -1.71682  -0.38757
H     3.72941  -2.99460  -0.56094
H     2.49586  -0.79397  -1.70815
H    -0.12515   2.42025   2.41372
H    -2.69254   1.65715   2.22017
H    -0.53947  -1.85440   2.06267
H     1.26431   0.06181   2.50861
29

C     4.07163  -2.01860  -0.95903
N     3.02896  -1.00351  -0.87125
C     2.61909  -0.53859   0.31786
O     3.11133  -0.84754   1.40214
C     1.46352   0.41578   0.26828
N     1.11850   1.36289  -0.42227
N     0.31688   2.36701  -0.30831
C    -0.23457   2.84091  -1.42309
N    -0.77309   3.34984  -2.32836
C    -0.43108   1.42573   2.10121
C    -1.89335   0.99095   1.86627
O    -1.88074  -0.28953   2.52017
C    -0.77715  -0.82774   1.76259
C    -1.29522  -0.61926   0.32615
C    -0.95060  -1.43146  -0.86325
F    -1.92037  -2.30286  -1.20323
F    -0.72017  -0.66869  -1.95325
F     0.16421  -2.16145  -0.64565
C    -1.97904   0.52645   0.41125
F    -2.56163   1.23924  -0.53172
C     0.30827   0.26835   2.02301
H     4.36258  -2.15918  -2.01257
H     4.96530  -1.71821  -0.38743
H     3.73045  -2.99605  -0.56105
H     2.49819  -0.79519  -1.70961
H    -0.12584   2.42013   2.41394
H    -2.69407   1.65669   2.21987
H    -0.54123  -1.85500   2.06339
H     1.26520   0.06148   2.50432
29

C     4.07615  -2.02418  -0.95984
N     3.03451  -1.01007  -0.87499
C     2.62488  -0.54049   0.31189
O     3.11026  -0.84522   1.39949
C     1.48003   0.41855   0.24367
N     1.11271   1.36852  -0.41368
N     0.31945   2.37532  -0.31408
C    -0.23410   2.84227  -1.42902
N    -0.77525   3.35049  -2.33317
C    -0.43516   1.42237   2.11496
C    -1.89640   0.99012   1.86876
O    -1.89157  -0.29321   2.51833
C    -0.78114  -0.82847   1.76774
C    -1.29267  -0.61774   0.32735
C    -0.94996  -1.43082  -0.86199
F    -1.92001  -2.30190  -1.20178
F    -0.71983  -0.66833  -1.95251
F     0.16489  -2.16146  -0.64530
C    -1.97732   0.52745   0.41217
F    -2.56085   1.23923  -0.53125
C     0.29717   0.26685   2.04463
H     4.36434  -2.16104  -2.01263
H     4.96629  -1.71960  -0.38729
H     3.73150  -2.99750  -0.56116
H     2.50052  -0.79640  -1.71106
H    -0.12653   2.42001   2.41415
H    -2.69561   1.65623   2.21957
H    -0.54299  -1.85560   2.06412
H     1.26610   0.06115   2.50003
29

C     4.08067  -2.02976  -0.96064
N     3.04007  -1.01663  -0.87872
C     2.63068  -0.54239   0.30592
O     3.10919  -0.84290   1.39683
C     1.49653   0.42132   0.21906
N     1.10691   1.37415  -0.40509
N     0.32202   2.38364  -0.31985
C    -0.23362   2.84362  -1.43494
N    -0.77742   3.35115  -2.33797
C    -0.43923   1.41902   2.12871
C    -1.89944   0.98929   1.87125
O    -1.90240  -0.29689   2.51650
C    -0.78514  -0.82919   1.77288
C    -1.29013  -0.61621   0.32855
C    -0.94932  -1.43017  -0.86073
F    -1.91965  -2.30094  -1.20034
F    -0.71949  -0.66798  -1.95178
F     0.16557  -2.16146  -0.64495
C    -1.97561   0.52846   0.41309
F    -2.56007   1.23922  -0.53079
C     0.28607   0.26535   2.06625
H     4.36610  -2.16290  -2.01270
H     4.96727  -1.72099  -0.38715
H     3.73254  -2.99895  -0.56127
H     2.50285  -0.79762  -1.71252
H    -0.12722   2.41990   2.41437
H    -2.69715   1.65577   2.21927
H    -0.54475  -1.85620   2.06484
H     1.26699   0.06082   2.49575
29

C     4.08519  -2.03534  -0.96145
N     3.04563  -1.02319  -0.88246
C     2.63647  -0.54429   0.29996
O     3.10813  -0.84058   1.39418
C     1.51303   0.42409   0.19445
N     1.10111   1.37978  -0.39650
N     0.32459   2.39195  -0.32562
C    -0.23314   2.84498  -1.44087
N    -0.77959   3.35180  -2.34278
C    -0.44331   1.41566   2.14247
C    -1.90249   0.98846   1.87374
O    -1.91324  -0.30057   2.51466
C    -0.78914  -0.82992   1.77803
C    -1.28758  -0.61468   0.32974
C    -0.94868  -1.42952  -0.85947
F    -1.91929  -2.29998  -1.19890
F    -0.71915  -0.66762  -1.95105
F     0.16625  -2.16146  -0.64460
C    -1.97390   0.52946   0.41401
F    -2.55929   1.23920  -0.53032
C     0.27496   0.26384   2.08788
H     4.36787  -2.16477  -2.01276
H     4.96826  -1.72237  -0.38702
H     3.73358  -3.00040  -0.56138
H     2.50517  -0.79884  -1.71397
H    -0.12791   2.41978   2.41458
H    -2.69868   1.65531   2.21897
H    -0.54651  -1.85681   2.06557
H     1.26788   0.06049   2.49146
29

C     4.08971  -2.04092  -0.96226
N     3.05118  -1.02975  -0.88619
C     2.64226  -0.54620   0.29399
O     3.10706  -0.83826   1.39153
C     1.52954   0.42686   0.16985
N     1.09531   1.38541  -0.38791
N     0.32715   2.40026  -0.33140
C    -0.23267   2.84634  -1.44680
N    -0.78176   3.35246  -2.34758
C    -0.44738   1.41230   2.15622
C    -1.90554   0.98763   1.87624
O    -1.92407  -0.30425   2.51283
C    -0.79313  -0.83065   1.78317
C    -1.28503  -0.61316   0.33094
C    -0.94804  -1.42888  -0.85821
F    -1.91893  -2.29902  -1.19746
F    -0.71881  -0.66727  -1.95032
F     0.16692  -2.16146  -0.64425
C    -1.97219   0.53047   0.41492
F    -2.55850   1.23919  -0.52985
C     0.26386   0.26234   2.10950
H     4.36963  -2.16663  -2.01283
H     4.96925  -1.72376  -0.38688
H     3.73463  -3.00185  -0.56149
H     2.50750  -0.80006  -1.71543
H    -0.12860   2.41966   2.41480
H    -2.70022   1.65486   2.21867
H    -0.54827  -1.85741   2.06629
H     1.26878   0.06016   2.48717
29

C     4.09423  -2.04650  -0.96307
N     3.05674  -1.03631  -0.88993
C     2.64806  -0.54810   0.28802
O     3.10599  -0.83594   1.38888
C     1.54604   0.42963   0.14524
N     1.08951   1.39104  -0.37932
N     0.32972   2.40858  -0.33717
C    -0.23219   2.84769  -1.45272
N    -0.78392   3.35311  -2.35239
C    -0.45146   1.40894   2.16997
C    -1.90858   0.98681   1.87873
O    -1.93490  -0.30793   2.51100
C    -0.79713  -0.83137   1.78832
C    -1.28249  -0.61163   0.33214
C    -0.94740  -1.42823  -0.85695
F    -1.91856  -2.29806  -1.19601
F    -0.71848  -0.66691  -1.94958
F     0.16760  -2.16146  -0.64390
C    -1.97048   0.53147   0.41584
F    -2.55772   1.23918  -0.52938
C     0.25276   0.26084   2.13112
H     4.37139  -2.16849  -2.01290
H     4.97024  -1.72515  -0.38674
H     3.73567  -3.00330  -0.56160
H     2.50983  -0.80127  -1.71688
H    -0.12929   2.41954   2.41502
H    -2.70176   1.65440   2.21837
H    -0.55003  -1.85801   2.06702
H     1.26967   0.05983   2.48288
29

C     4.09875  -2.05208  -0.96387
N     3.06230  -1.04288  -0.89366
C     2.65385  -0.55000   0.28206
O     3.10493  -0.83362   1.38622
C     1.56255   0.43240   0.12063
N     1.08371   1.39667  -0.37073
N     0.33229   2.41689  -0.34294
C    -0.23172   2.84905  -1.45865
N    -0.78609   3.35377  -2.35720
C    -0.45553   1.40558   2.18373
C    -1.91163   0.98598   1.88122
O    -1.94574  -0.31161   2.50916
C    -0.80112  -0.83210   1.79346
C    -1.27994  -0.61010   0.33334
C    -0.94676  -1.42758  -0.85569
F    -1.91820  -2.29710  -1.19457
F    -0.71814  -0.66656  -1.94885
F     0.16828  -2.16146  -0.64355
C    -1.96877   0.53248   0.41676
F    -2.55694   1.23917  -0.52892
C     0.24166   0.25933   2.15274
H     4.37315  -2.17035  -2.01296
H     4.97123  -1.72654  -0.38660
H     3.73671  -3.00476  -0.56171
H     2.51216  -0.80249  -1.71834
H    -0.12998   2.41942   2.41523
H    -2.70329   1.65394   2.21808
H    -0.55179  -1.85861   2.06774
H     1.27057   0.05950   2.47859
29

C     4.10327  -2.05766  -0.96468
N     3.06785  -1.04944  -0.89740
C     2.65964  -0.55190   0.27609
O     3.10386  -0.83130   1.38357
C     1.57905   0.43517   0.09603
N     1.07791   1.40230  -0.36214
N     0.33486   2.42520  -0.34871
C    -0.23124   2.85041  -1.46457
N    -0.78826   3.35442  -2.36200
C    -0.45961   1.40222   2.19748
C    -1.91468   0.98515   1.88371
O    -1.95657  -0.31529   2.50733
C    -0.80512  -0.83282   1.79861
C    -1.27740  -0.60858   0.33454
C    -0.94612  -1.42694  -0.85443
F    -1.91784  -2.29614  -1.19313
F    -0.71780  -0.66620  -1.94812
F     0.16896  -2.16146  -0.64319
C    -1.96706   0.53348   0.41768
F    -2.55616   1.23915  -0.52845
C     0.23055   0.25783   2.17436
H     4.37491  -2.17222  -2.01303
H     4.97222  -1.72792  -0.38646
H     3.73776  -3.00621  -0.56182
H     2.51448  -0.80371  -1.71979
H    -0.13067   2.41930   2.41545
H    -2.70483   1.65348   2.21778
H    -0.55355  -1.85921   2.06846
H     1.27146   0.05917   2.47430
29

C     4.10779  -2.06324  -0.96549
N     3.07341  -1.05600  -0.90113
C     2.66544  -0.55381   0.27012
O     3.10279  -0.82898   1.38092
C     1.59556   0.43793   0.07142
N     1.07212   1.40793  -0.35355
N     0.33743   2.43352  -0.35449
C    -0.23076   2.85176  -1.47050
N    -0.79043   3.35508  -2.36681
C    -0.46368   1.39886   2.21123
C    -1.91772   0.98432   1.88620
O    -1.96741  -0.31897   2.50550
C    -0.80912  -0.83355   1.80375
C    -1.27485  -0.60705   0.33574
C    -0.94548  -1.42629  -0.85317
F    -1.91748  -2.29518  -1.19169
F    -0.71746  -0.66584  -1.94738
F     0.16964  -2.16147  -0.64284
C    -1.96535   0.53449   0.41860
F    -2.55538   1.23914  -0.52798
C     0.21945   0.25633   2.19598
H     4.37668  -2.17408  -2.01309
H     4.97320  -1.72931  -0.38632
H     3.73880  -3.00766  -0.56193
H     2.51681  -0.80492  -1.72124
H    -0.13136   2.41919   2.41566
H    -2.70637   1.65302   2.21748
H    -0.55531  -1.85981   2.06919
H     1.27235   0.05884   2.47002
29

C     4.11231  -2.06882  -0.96629
N     3.07897  -1.06256  -0.90487
C     2.67123  -0.55571   0.26416
O     3.10173  -0.82666   1.37827
C     1.61206   0.44070   0.04681
N     1.06632   1.41356  -0.34496
N     0.34000   2.44183  -0.36026
C    -0.23029   2.85312  -1.47643
N    -0.79260   3.35573  -2.37161
C    -0.46776   1.39550   2.22499
C    -1.92077   0.98349   1.88869
O    -1.97824  -0.32265   2.50366
C    -0.81311  -0.83428   1.80890
C    -1.27231  -0.60552   0.33693
C    -0.94484  -1.42564  -0.85191
F    -1.91712  -2.29422  -1.19024
F    -0.71712  -0.66549  -1.94665
F     0.17031  -2.16147  -0.64249
C    -1.96364   0.53549   0.41952
F    -2.55459   1.23913  -0.52751
C     0.20835   0.25482   2.21760
H     4.37844  -2.17594  -2.01316
H     4.97419  -1.73070  -0.38619
H     3.73984  -3.00911  -0.56203
H     2.51914  -0.80614  -1.72270
H    -0.13205   2.41907   2.41588
H    -2.70790   1.65257   2.21718
H    -0.55707  -1.86041   2.06991
H     1.27325   0.05851   2.46573
29

C     4.11683  -2.07439  -0.96710
N     3.08452  -1.06912  -0.90860
C     2.67703  -0.55761   0.25819
O     3.10066  -0.82434   1.37561
C     1.62856   0.44347   0.02220
N     1.06052   1.41919  -0.33637
N     0.34257   2.45014  -0.36603
C    -0.22981   2.85447  -1.48235
N    -0.79476   3.35639  -2.37642
C    -0.47183   1.39214   2.23874
C    -1.92382   0.98266   1.89119
O    -1.98907  -0.32633   2.50183
C    -0.81711  -0.83500   1.81404
C    -1.26976  -0.60400   0.33813
C    -0.94420  -1.42500  -0.85065
F    -1.91676  -2.29327  -1.18880
F    -0.71678  -0.66513  -1.94592
F     0.17099  -2.16147  -0.64214
C    -1.96193   0.53649   0.42043
F    -2.55381   1.23912  -0.52705
C     0.19724   0.25332   2.23922
H     4.38020  -2.17781  -2.01322
H     4.97518  -1.73209  -0.38605
H     3.74089  -3.01056  -0.56214
H     2.52146  -0.80736  -1.72415
H    -0.13274   2.41895   2.41609
H    -2.70944   1.65211   2.21688
H    -0.55883  -1.86101   2.07064
H     1.27414   0.05818   2.46144
29

C     4.12135  -2.07997  -0.96791
N     3.09008  -1.07568  -0.91234
C     2.68282  -0.55951   0.25222
O     3.09959  -0.82202   1.37296
C     1.64507   0.44624  -0.00240
N     1.05472   1.42482  -0.32778
N     0.34514   2.45846  -0.37180
C    -0.22934   2.85583  -1.48828
N    -0.79693   3.35704  -2.38123
C    -0.47591   1.38878   2.25249
C    -1.92686   0.98183   1.89368
O    -1.99991  -0.33000   2.50000
C    -0.82111  -0.83573   1.81919
C    -1.26721  -0.60247   0.33933
C    -0.94357  -1.42435  -0.84939
F    -1.91640  -2.29231  -1.18736
F    -0.71644  -0.66478  -1.94519
F     0.17167  -2.16147  -0.64179
C    -1.96022   0.53750   0.42135
F    -2.55303   1.23910  -0.52658
C     0.18614   0.25182   2.26084
H     4.38196  -2.17967  -2.01329
H     4.97617  -1.73348  -0.38591
H     3.74193  -3.01201  -0.56225
H     2.52379  -0.80857  -1.72561
H    -0.13343   2.41883   2.41631
H    -2.71098   1.65165   2.21658
H    -0.56059  -1.86162   2.07136
H     1.27503   0.05785   2.45715
29

C     4.12587  -2.08555  -0.96872
N     3.09564  -1.08224  -0.91607
C     2.68861  -0.56142   0.24626
O     3.09853  -0.81970   1.37031
C     1.66157   0.44901  -0.02701
N     1.04892   1.43045  -0.31918
N     0.34770   2.46677  -0.37757
C    -0.22886   2.85719  -1.49421
N    -0.79910   3.35770  -2.38603
C    -0.47998   1.38542   2.26625
C    -1.92991   0.98101   1.89617
O    -2.01074  -0.33368   2.49816
C    -0.82510  -0.83645   1.82433
C    -1.26467  -0.60094   0.34053
C    -0.94293  -1.42370  -0.84813
F    -1.91603  -2.29135  -1.18591
F    -0.71610  -0.66442  -1.94445
F     0.17235  -2.16147  -0.64144
C    -1.95851   0.53850   0.42227
F    -2.55225   1.23909  -0.52611
C     0.17504   0.25031   2.28246
H     4.38372  -2.18153  -2.01335
H     4.97716  -1.73486  -0.38577
H     3.74297  -3.01346  -0.56236
H     2.52612  -0.80979  -1.72706
H    -0.13412   2.41871   2.41652
H    -2.71251   1.65119   2.21629
H    -0.56235  -1.86222   2.07208
H     1.27593   0.05752   2.45286
