11

C 0.978370798 1.814388564 0.358519842
C 1.752536298 -0.910919121 -0.198648294
O -0.388449532 -1.882509355 -1.466672419
C -2.436168874 -0.762724361 -0.233303471
O -1.703862414 1.717230526 0.404581274
H 1.580761346 3.109235651 -1.134324528
H 1.693832220 2.492648782 2.172079516
H 3.387407570 -1.079954065 -1.435327929
H 2.100588871 -1.969499382 1.550757748
H -4.049681290 -0.711267478 -1.515142382
H -2.915334992 -1.816629742 1.497480662

