10

N 3.421344745 0.221794812 -0.243047428
C 0.873477071 -0.339034725 0.072720157
C -1.226665693 1.300982858 -0.308282966
N -3.457377382 0.442635180 0.076413419
N -2.110978188 -3.307810283 1.139758662
N -0.100531030 -2.576813139 0.805720506
H 4.298027151 -0.699811466 -1.659143179
H 4.469249981 0.213708126 1.346036385
H -0.795096465 3.218614133 -0.912544702
H -4.897741185 1.662924842 -0.213788515

