10

O 4.154664647 1.842290106 2.628102725
C 3.364926292 -0.147841684 1.812949500
C 1.649362788 -0.383510714 -0.312645115
C -2.656879644 -0.084403068 -1.838907213
N -0.717339867 -0.007895578 0.110981669
H 4.088134552 -1.986313806 2.531254526
H -1.737369696 -0.525520609 -3.621442969
H -3.596225122 1.746466063 -1.966516979
H -4.057298247 -1.530418569 -1.393800422
H -1.365681146 0.458264443 1.862854465

