10

O 3.273804303 0.243154046 3.084818481
C 2.642739863 -0.475903355 1.004118430
C 1.114987546 1.167461159 -0.642504482
C -2.040953631 -0.223942769 -1.185305484
N -1.216500988 2.020686677 0.311521692
H 3.435065102 -2.215610340 0.152356372
H -0.291797165 -0.857720969 -2.316928497
H -3.348123338 0.303348267 -2.677114511
H -2.637544477 -1.796671097 -0.013273663
H -1.379999620 1.554666666 2.180406291

