14

O 3.285802249 -2.531569600 0.641932576
C 1.509182413 -1.014689898 -0.632192908
C -1.272976153 -1.539281215 -0.047733159
C -2.562589114 1.039881289 -0.443603948
C -0.604241705 3.107873045 -0.103505553
C 1.693356198 1.806424540 -0.117467096
H 2.907247456 -2.507931715 2.416092764
H 1.905075557 -1.299933738 -2.643778532
H -2.060440581 -3.065015455 -1.184072494
H -1.431677431 -2.105879934 1.939362200
H -3.174442692 1.260299549 -2.411945646
H -4.250506378 1.319668564 0.703592638
H 0.755878356 2.613497334 1.940562422
H 3.519821605 2.750087305 -0.059284148

