15

C -2.857303865 -0.679200129 -0.508562320
C -0.620885392 1.023984856 -0.037400515
O -1.177715758 3.554777098 -0.332327576
C 1.070595858 0.457806941 2.203589830
C 2.920385512 -0.936112912 0.575696749
C 1.888191591 -0.373381158 -1.839675273
O 1.871275009 -1.240410653 -3.995765022
H -4.467544182 -0.066737228 0.631175215
H -3.368119419 -0.612583712 -2.508169064
H -2.407007716 -2.638741921 -0.067048919
H -2.326756641 3.765813132 -1.721798825
H 1.734020421 2.069986533 3.302574117
H 0.129795933 -0.866759586 3.483060801
H 2.570789524 1.695530007 -1.402992636
H 4.240386422 -2.408099071 1.141501122

