16

C 3.859948422 -0.926187334 -0.411409761
C 1.853307757 0.408238725 -1.353887800
C -1.286463317 0.131449293 1.080788190
O -0.612655710 -0.383133695 3.274493958
C -2.988487632 2.080059793 0.037745409
C -3.425695349 -0.781502021 -0.474694025
H 5.481406399 0.031288970 0.387685988
H 4.146062594 -2.890768363 -0.912839461
H 3.316735932 -1.806745907 2.626448100
H 0.753026494 -0.428847984 -2.856977963
H 1.943642392 2.449631434 -1.310811455
H 1.926506355 -1.459425622 3.240888562
H -4.233564624 3.008747291 1.372028358
H -2.458561599 3.223441703 -1.572492377
H -4.949150617 -1.702335969 0.538017878
H -3.182952318 -1.413355648 -2.403432657

