9

O 0.646527483 2.506434334 -1.900534470
C 0.850270629 0.605410859 -0.684145769
C -1.303941224 -0.552827567 0.764042974
O -3.509471859 0.839409447 0.508363823
C 3.277861072 -0.755302934 -0.522044533
N 5.135822016 -1.857817910 -0.353037860
H -3.148520903 2.267790289 -0.566761557
H -0.718021586 -0.694028243 2.751972742
H -1.546710805 -2.498467721 0.078644524

