9

O 0.074542534 2.576015486 -1.339200509
C 0.599498039 0.367277192 -0.501555367
C -1.607168530 -0.818727188 0.615898783
O -3.577954116 0.536988695 0.321905132
C 3.096086181 -0.661579907 -0.638698461
N 5.055015588 -1.580402146 -0.767228259
H -1.911891913 2.485709537 -0.998051313
H -0.120781316 -0.069889952 2.334003325
H -1.628745744 -2.853778751 0.969256800

