9

O 4.255716731 0.254619336 0.055471871
C 1.960840260 0.426873636 -0.010506896
C 0.162402175 2.324987763 -0.278982554
O -2.251363334 1.311384609 -0.204789620
C -2.070939011 -1.099451352 0.092841470
N 0.300490793 -1.785783270 0.226455084
H 0.949741050 -3.558799304 0.456798602
H 0.292311473 4.331187630 -0.525352499
H -3.742851429 -2.258458594 0.197889228

