14

C 2.339335698 -1.012582437 1.858997742
C 1.063407018 1.236034974 0.463659668
O 2.898617379 2.972121281 -0.374944963
C -0.251707079 -0.079231416 -1.562416810
C -2.766851784 -1.082002944 -0.778009713
O -4.121793390 1.010761989 -1.816732184
H 3.280530367 -2.284256758 0.533753012
H 3.779319893 -0.192563338 3.078818941
H 1.003361065 -2.080474513 3.006701171
H -0.185123278 2.219485374 1.796362221
H 3.083953194 2.688166026 -2.160862819
H -3.837389854 1.011164840 -3.615473173
H -3.207675076 -1.105734238 1.243491965
H -3.303027859 -2.881311078 -1.634456383

