15

C 4.190681542 0.309614542 -2.825245984
C 1.615666609 0.731197569 -1.760211968
O 1.243425730 -0.911074117 0.013703481
C -1.129742320 -0.901551409 1.347834611
O -1.141591111 -2.860503700 3.029288936
C -3.475468051 -0.285301496 -0.009463805
C -2.366979311 1.547073614 1.907133129
H 5.278956997 -1.202480638 -1.927886574
H 3.959348677 -0.074012276 -4.843716334
H 5.214618682 2.101632472 -2.729224049
H -0.054621438 -2.445900831 4.423442302
H -5.144743337 -1.344095523 0.507249092
H -3.273872597 0.245004296 -1.974727763
H -1.479593062 3.222527491 1.138641721
H -3.300495361 1.731919310 3.716728743

