11

O -2.480777182 -2.071375368 1.854892274
C -2.655157877 -0.685743003 -0.264871270
C -0.935506650 0.714033205 -1.455919121
C 1.790970530 1.210361948 -0.804335620
C 2.716992664 -0.137754307 1.418962919
N 3.384812617 -1.221102736 3.175660016
H -4.546052608 -0.800631624 -1.044335468
H -1.578481901 1.654267667 -3.154279787
H -0.806194109 -2.023677698 2.573458176
H 2.097569599 3.227824526 -0.471005147
H 3.011660531 0.689288054 -2.388910622

