11

O -3.495625930 0.316738394 2.141778097
C -3.148499058 0.077382754 -0.224900426
C -0.701699511 -0.868557981 -0.735695495
C 1.517178071 0.936378646 -0.281227152
C 3.822707154 -0.424947117 0.412208737
N 5.635261928 -1.494095501 0.929600765
H -4.709159991 0.484628372 -1.513680604
H -0.452181963 -2.037287657 -2.405936128
H -1.509078591 -0.972570321 2.000168088
H 1.092888295 2.272690122 1.233189235
H 1.951441008 2.054088229 -1.966932511

