10

C -2.410375473 0.071928003 -0.135309020
C 0.189053493 0.084869641 0.930336794
O 1.753220681 -2.504694841 -0.656226389
C 1.756456591 2.173762903 0.323706703
N 3.112331703 3.844013873 -0.039495597
H -2.487850124 0.465672359 -2.162148457
H -3.425793936 1.584106747 0.846652843
H -3.384305452 -1.692763901 0.275342129
H 1.520413736 -2.220018957 1.335636334
H 3.422083137 -1.898754310 -1.082088095

