14

O 5.051122639 0.349669366 -0.225788049
C 3.050315408 1.133650689 -0.935949980
C 0.628725771 -0.311477793 -0.719404241
C -1.108298804 -0.394201575 -2.773409379
N -1.961849450 -0.731358271 2.409528989
C -1.734675967 1.239009988 0.512822575
C 0.234665113 -2.181582136 1.452461943
H 2.868332288 2.985494192 -1.913125261
H -0.710061719 1.265409425 -3.984608911
H -3.598349420 -1.693390345 2.213472757
H -3.407810886 1.578796786 -0.671119868
H -1.015712599 3.051507088 1.186103988
H 1.791233353 -2.215260343 2.800977951
H -0.203149035 -4.092894791 0.827002091

