12

O 2.864199627 -0.954948247 -2.168848462
C 0.597072197 -1.361934575 -0.891565170
C 0.405798673 -0.852064584 1.994472548
C -1.927841938 0.788180257 1.560175746
O -0.530616803 2.952171726 -0.609309440
C -1.544841053 0.539853425 -1.251474395
H 3.332767821 0.782806499 -1.927664587
H -0.020298607 -3.272326726 -1.355677919
H -0.086299389 -2.526752026 3.095877858
H 1.995325022 0.086747424 2.906148788
H -1.749132221 3.381085491 1.047490743
H -2.929923489 0.557347168 -2.765272578

