15

C 3.745783358 1.556787278 0.412157412
C 1.863745357 -0.290654486 -0.224593137
O -0.058753721 0.433005060 -1.694454753
C -2.414807429 -0.846995450 -1.353889388
C -3.940826130 0.333041855 0.757403138
H 4.986754145 -0.792331947 1.157373045
H 2.989766107 3.425683311 0.909429753
H 5.431790354 1.733801005 -0.726304784
H 4.497802307 -2.113284448 -0.062784998
H 1.378277815 -1.824941797 1.037891785
H -2.045516431 -2.850419120 -0.990589389
H -3.392723747 -0.694707448 -3.160016957
H -5.763038784 -0.617206624 0.933478521
H -4.279515620 2.329677440 0.375643992
H -2.954347897 0.174002656 2.562266878

