11

C 3.379235940 -0.433427376 -0.583650795
O 1.421556852 1.093187061 0.409209270
C -0.209786793 -0.220735923 1.919875269
H 0.681232662 -1.148918486 3.531572848
C -2.831126547 0.567332009 1.998113199
H -3.403525119 2.106239322 0.768692399
H -3.954868495 0.287425265 3.691814197
O -2.075780395 -1.686853291 0.718122894
H 4.462971820 -1.333721758 0.935363296
H 4.621646283 0.803252996 -1.657914498
H 2.617711820 -1.893475946 -1.832310784

