11

C -3.812351285 0.952765292 0.106729747
C 0.440586774 -0.841332810 -0.682689490
C -1.413939819 0.618192759 -1.374824945
N 5.920325640 -0.911350754 0.396804219
N 4.025976830 -1.593224940 1.537022557
N 2.088723904 -2.349746993 -0.086269191
H -5.442864981 0.375776235 -1.018687802
H -4.080409975 2.931996386 0.624350772
H -3.789988115 -0.168024734 1.832772368
H -1.177613316 1.637698775 -3.136862030
H 7.225043825 -0.494269244 1.765622386

