11

C -3.240904908 0.059551525 0.034617855
C -0.455934203 -0.336798139 0.097041934
C 1.481859184 1.308564439 -0.370716834
N 3.581740069 -0.097170228 -0.028797310
N 3.010957591 -2.456527252 0.607318028
N 0.580991214 -2.615819637 0.687784494
H -4.123482049 -1.192770544 -1.344520239
H -3.698800231 2.004208341 -0.465282527
H -4.073867970 -0.352873832 1.874489149
H 1.533224737 3.272892037 -0.896755983
H 5.404216586 0.406743290 -0.195178568

