16

C -2.112959226 2.670670582 -2.122352393
C -1.418912067 0.543546328 -0.302237033
C -2.842138756 -1.895634410 -0.951929258
C 1.349948798 -0.054183645 -0.557818012
C 4.931670348 -0.890377968 1.856654878
O 2.308474070 -0.242963675 1.689434638
H -1.092132745 4.407205359 -1.677611000
H -4.134632454 3.074883284 -2.019390609
H -1.646352889 2.143973147 -4.061881626
H -1.883489972 1.093851583 1.643425231
H -4.876723764 -1.556883390 -0.898990981
H -2.408481174 -3.403047038 0.387712558
H -2.338392441 -2.550113425 -2.842853035
H 5.701104881 -1.080285863 -0.042220941
H 5.076178442 -2.660837090 2.896980271
H 5.882926089 0.608886217 2.898216095

