16

C -1.016416144 1.147171850 3.420525398
C -0.550429202 0.836439686 0.636800325
C 2.351398046 -1.333452907 -2.588687743
C -2.274593851 2.005385319 -1.192584350
O 0.119437173 3.080179317 -0.700165771
C 0.881369720 -1.487683282 -0.162722540
N 0.775905635 -3.393387287 1.281047608
H -2.033565199 2.903462107 3.769825757
H -2.105197648 -0.443194596 4.140919346
H 0.773417679 1.195223844 4.441471026
H 3.140423521 -3.172819644 -3.072611474
H 1.176038002 -0.679271561 -4.150978585
H 3.880486683 0.035437146 -2.391850129
H -3.886204163 3.059645061 -0.480642618
H -2.514655096 1.193967629 -3.064053622
H 1.781115382 -4.863202679 0.554057042

