16

C 3.671694377 -0.414419075 0.741238534
C 1.064259984 0.037377158 -0.300185508
C -0.158862170 2.598940812 -0.231257502
C -1.238987727 0.469149682 1.294088740
C -3.308554552 -1.132674910 0.129794308
C 0.074418964 -1.805538618 -2.225606859
H 4.058451905 0.848712663 2.327127311
H 5.114174031 -0.072909772 -0.695848956
H 3.863964713 -2.364202755 1.384051117
H 0.782796389 4.067047041 0.841154609
H -1.170341650 3.259156676 -1.887591830
H -1.121732092 0.593576128 3.334274273
H -4.099632515 -2.500623860 1.454004791
H -4.820234219 -0.106886254 -0.817180580
H -0.716976302 -0.784423632 -3.861180013
H -2.370101592 -2.606980935 -1.243429019

