16

C 6.118661619 0.894408433 -0.481829612
C 4.214460249 -0.526743299 0.398241715
C 1.804508245 0.677602158 0.673579347
C -0.317016033 -1.080048192 0.404244071
N -2.766980606 -0.098075803 1.127462876
C -4.893981726 -0.851827064 -0.423863226
C -3.865959036 1.749794456 -0.550713625
H 5.842954206 2.911217317 -0.704647427
H 4.497647104 -2.557738433 0.669504077
H 7.913726354 0.088736021 -1.060363010
H -0.231222599 -1.556459638 -1.648451260
H -0.003816037 -2.885409554 1.390628706
H -6.641489991 -1.237583075 0.571097231
H -4.518872640 -2.091021093 -2.020092453
H -2.792294433 2.269158942 -2.222332228
H -4.846143026 3.303755309 0.351037528

