21

C -0.830471364 3.444504454 1.024329296
C -0.187290832 1.101933337 -0.402276583
C -3.041850984 -0.761173822 -1.772878727
C -2.766949709 -1.161775011 1.651695334
C 2.012749563 -0.307752179 0.517278738
C 4.436839289 0.172127084 -0.929526045
C 3.192136727 -2.348524472 -1.070675377
H -0.758171557 3.305085260 3.107507440
H 0.597025445 4.831705178 0.460282142
H -2.666980382 4.221652395 0.491613196
H -4.706530759 -1.995203380 -1.526353636
H -3.763027373 0.965263147 -2.610979161
H -1.826544776 -1.754257951 -3.088671973
H -1.524277299 -0.472897538 3.133357514
H -4.672193963 -0.539663149 2.103779673
H -2.635632603 -3.211576207 1.627365752
H 2.290103306 -0.529051373 2.560733063
H 4.312179990 1.387499130 -2.566978362
H 6.150691078 0.356648106 0.170862233
H 4.064978509 -3.920044112 -0.096533447
H 2.248021713 -2.835905135 -2.817091967

