11

N 1.944912987 0.956679822 0.992749610
C 1.645166613 0.254543596 -1.459469520
O 0.504190306 -1.974564283 -1.688155899
C -1.286369454 -1.934265458 0.339206009
C -1.098889480 0.887525578 1.059267233
O -2.277727867 2.187983866 2.514725431
H 2.517813452 2.775930765 1.171620711
H 2.797833598 0.849700593 -3.049736358
H -0.621211559 -3.036865698 1.948288832
H -3.099551202 -2.595227065 -0.366799167
H -1.068194885 1.630773023 -1.448837335

