9

N -3.815457522 1.311678197 0.430156997
C -2.104981672 -0.125629711 1.142890354
O -1.179022674 -1.320030144 3.161483139
C 0.120003354 -1.620451641 0.668132551
C 2.591419834 -0.520103633 0.448689466
C 4.655542660 0.372039793 0.224377576
H 6.488446704 1.180807614 0.034424461
H -0.104316813 -3.503806649 -0.111202824
H -4.986553021 1.795497520 1.876367065

