14

C 3.379788364 -1.728033050 0.326928723
O 3.183033009 1.493519153 1.222697098
C 1.133210780 -0.101564200 0.250103476
C -1.302999781 -0.201025437 1.785504989
C -2.751236656 -0.280021148 -0.754619722
C -0.333852548 0.660046432 -2.108228939
H 3.437752670 -2.544982347 2.240688290
H 4.082774476 2.189802671 -0.197338487
H -1.614485247 1.565320091 2.802836818
H -1.518130701 -1.785388582 3.082244410
H -4.421443331 0.910103667 -0.904686767
H -3.248202728 -2.200003564 -1.305681851
H -0.361280240 2.707892083 -2.371008698
H 0.239676648 -0.259194287 -3.858234119

