10

C 2.951160930 0.750034018 1.402818573
C 1.419856665 -0.220481679 3.514199141
H 2.644290440 -0.933250620 5.015522296
H 0.195792237 1.242356826 4.292100459
H 0.251241186 -1.800635856 2.882792623
C 3.648412819 2.533218669 -0.094083795
H 3.520608223 4.462986163 -0.719151339
C 4.907059141 0.025641826 -0.518669974
H 4.365646200 -1.129397936 -2.137600045
H 6.862906027 -0.250556028 0.070052091

