19

C -4.838470190 0.422245904 0.268266069
C -2.436684221 -0.909695013 -0.318509143
C -0.506349715 0.104751261 -2.037860017
C 1.685455537 0.158118582 -0.124959935
C 4.093995235 -1.328508627 -0.490207920
C 4.149449078 1.419539758 0.039269321
C 0.696966900 0.230958018 2.507293120
H -6.238801675 0.028639536 -1.216517429
H -4.586513421 2.468299131 0.328466582
H -5.657020934 -0.201552935 2.053879055
H -2.377031331 -2.926591278 0.037342046
H -0.071189044 -1.134597801 -3.633090183
H -0.988634089 1.986723178 -2.734193291
H 4.401897327 -1.973277493 -2.422498123
H 4.734638885 -2.665576107 0.932237330
H 5.131784880 2.888064921 -0.993855478
H 2.860934577 1.145991168 3.007040264
H -0.539711148 1.806399917 2.959494150
H 0.420758633 -1.517620947 3.557084964

