9

O 4.791462232 0.111075399 -1.725248256
C 1.431992241 -0.095173108 0.801021135
N -0.307128475 0.827493836 2.036943934
N -2.770297095 0.627139327 1.047445995
C -3.301681561 -0.261527740 -1.160764196
N 3.294787236 -1.182248587 -0.015091410
H 6.033840279 -1.132368907 -2.179569502
H -3.989797626 1.328690608 2.346751437
H -5.372346411 -0.142621958 -1.334970205

