9

O 4.749579740 -0.189841490 -0.093887244
C 1.628547020 -0.603624822 0.249386325
N 0.220981587 1.053302161 1.108584493
N -2.365784645 0.846944995 0.658140851
C -3.418860039 -1.069335108 -0.424645649
N 2.885043041 -2.428480372 -0.623917155
H 4.983038395 0.561459042 -1.745956007
H -3.230714012 2.412176854 1.344853530
H -5.454032620 -0.637066947 -0.486870021

