13

O 1.795096010 0.011817459 -3.755834754
C 3.098632322 0.895666821 -1.752165042
N 2.278928996 1.776717006 0.297971505
C -0.421969513 2.041063877 0.658853353
C -1.894627356 -0.367240777 1.020031568
C -0.964967859 -2.690047021 1.048347810
H 5.120073284 0.790582099 -2.101536077
H -0.721102784 3.220163198 2.328664773
H -1.276922392 3.096909988 -0.916583235
H -3.910328520 -0.087239093 1.305693397
H 0.044804310 -0.228987866 -3.305458292
H -2.182508952 -4.307198653 1.344577365
H 1.037535402 -3.054056971 0.814288203

