13

O 1.328754858 0.847926934 -3.830139901
C 2.791991510 0.546687242 -2.006155364
N 2.245368159 1.068089325 0.397377241
C -0.318366223 2.044589256 0.662329221
C -1.844529507 -0.292838744 -0.102683844
C -0.654089203 -2.339705234 1.138124503
H 4.652587752 -0.325715066 -2.302289280
H -0.645816360 2.608541660 2.618525442
H -0.707592093 3.635269150 -0.592900116
H -3.906451369 -0.415808193 -0.268188439
H -1.182584335 -0.391955617 -2.185316707
H -1.123619740 -4.284583752 0.661461591
H 0.615959405 -2.056124919 2.708335073

