10

C -3.054526133 0.160517929 1.121239290
O -0.374788664 0.018291604 1.440427884
C 0.960595580 -0.045091927 -0.664568263
O 0.135959804 0.008846904 -2.778270038
C 3.813868924 -0.203958141 -0.190935528
O 4.757917854 -0.292639794 1.852465204
H -3.839241294 0.211364110 3.016843407
H -3.561382050 1.862660995 0.078568085
H -3.739453947 -1.489758107 0.097008051
H 4.901049944 -0.230233592 -1.973934910

