15

C -4.041040423 -1.488207247 1.283176724
C -1.454331581 -2.010781130 0.455178899
O 0.124636660 2.405106841 -2.660815112
C 0.398761371 -0.301501721 1.620423636
C 2.819552183 0.091983458 0.122476249
C 2.491658848 1.526139814 -2.317352627
O 4.143509763 1.894378895 -3.824096349
H -4.292049739 -0.409877968 3.041705683
H -4.608039934 -0.224101487 -0.283352848
H -5.308467772 -3.107775422 1.183609096
H 0.115844860 3.260217436 -4.272893510
H -0.367570213 1.484867175 2.359851585
H 0.843423773 -1.461039164 3.305124831
H 4.239943924 1.118492478 1.214701024
H 3.649564418 -1.724366434 -0.390428000

