15

C -3.738593706 -0.719465922 0.311489056
C -0.979215108 -0.793373867 -0.227939219
O -0.275728975 2.213582626 -1.490442641
C 0.848756165 -0.507835115 1.923701756
C 3.209673385 0.173136481 0.394358309
C 2.020136068 0.714140768 -2.129406741
O 2.740841386 0.637260039 -4.248294434
H -4.309146601 0.813313992 1.590389198
H -4.891073721 -0.652637988 -1.398139139
H -4.174182966 -2.513742282 1.245112821
H -1.174786493 2.338771463 -3.076402586
H 0.354737687 0.918438795 3.349790266
H 1.029913550 -2.332375232 2.868782950
H 4.230008689 1.841411553 1.057888281
H 4.535410370 -1.381938479 0.174306505

