13

C -3.151453172 -0.358552232 0.295796393
C -0.498757816 -0.232383363 -0.737160165
C 1.134310355 2.104020047 -0.242415787
C 3.343123388 0.543280708 -0.184494585
O 5.560868664 0.396030660 -0.422309891
N 1.462573376 -1.572920740 0.788524111
H -3.921809419 -2.269330869 0.162672822
H -3.190314218 0.239704635 2.270421940
H -4.387601832 0.892738765 -0.781098716
H -0.418772852 -0.890918487 -2.696786730
H 0.959796415 4.000607502 -0.977161524
H 1.245346807 0.429275024 2.114932818
H 1.771291792 -3.465966244 0.733719144

