8

C 0.735670985 1.528446697 -0.253971557
H 1.245663468 3.086593331 -1.500939125
H 0.054542126 2.292502067 1.533858211
C 2.567282060 -0.695745834 -0.116878370
H 4.245753868 -0.631412848 -1.308420366
H 3.044866836 -1.429738327 1.747057112
O 0.599398185 -2.211520235 -1.285102506
C -1.083240336 -0.367235372 -1.461813876

