14

C 3.289112237 -0.414805429 0.083439100
C 2.083135096 0.575807374 -1.966766763
N -2.058916800 0.248842575 -1.538003798
C -2.740723259 -1.151514630 0.348252658
C -2.833416839 1.545564516 0.831273515
H 4.191412658 -2.250746679 -0.036919390
H 3.942182197 0.803841381 1.594809135
H 1.070795715 -1.607679153 1.669618876
H 1.912850325 -0.486098767 -3.701623709
H 1.722852536 2.580342505 -2.109443391
H -0.492509815 -1.973783335 1.938580534
H -3.764284438 -2.914880286 0.470098249
H -4.575927497 2.625965161 0.755881474
H -1.344819571 2.346091714 2.010977378

