13

N -2.487619351 -1.789392760 -0.849196641
C -2.188758994 0.238797963 -2.139755486
O -2.923989144 1.384437906 -3.923893711
C 0.308733458 2.274824643 -0.544848387
C 1.877435951 1.195184594 1.259447981
O 1.591325784 -2.774547561 1.501935275
H -0.166752192 -2.678348256 0.682771995
H -3.893056234 -2.839230543 -1.628098437
H -1.179110470 3.466576758 0.217380317
H 1.213569173 2.979310971 -2.239190248
H 3.871470290 0.931069063 0.899562415
H 1.327765625 1.122201803 3.224418219
H 2.667033011 -3.512324533 0.240006821

