14

O 3.333401106 0.574207645 2.289255045
C 3.206090427 -1.110484235 0.626017283
C 0.318481799 -0.396409814 -2.072246664
C -1.386722925 1.204379491 -0.947933943
C -3.563008556 0.149552699 0.500252778
O -3.749342317 -2.041544548 1.063221088
H 1.167529151 1.973397717 2.329931721
H 2.419729938 -2.958588045 1.126394311
H 4.559913579 -1.061300125 -0.935340921
H -0.133769517 -2.390017378 -2.100857325
H 1.479500201 0.321527168 -3.592053949
H -0.230793480 2.471552729 1.684829678
H -1.570316489 3.148172740 -1.569510086
H -5.038040745 1.530410802 1.043852340

