19

C 3.806970422 -0.183046072 1.018141596
C 1.294821217 -0.611133196 -0.301609039
O -0.311635132 -1.956765425 1.371608348
C 0.102897515 1.867196961 -1.107254296
C -2.700832047 2.204965928 -1.269811258
C -1.231191284 3.490589791 0.787551753
C -1.524409561 -4.052940954 0.289008836
H 5.092357256 0.889839812 -0.187736316
H 4.693162817 -1.981733677 1.495738504
H 3.509433837 0.881870913 2.758896774
H 1.611762945 -1.764921317 -1.998222747
H -1.441092387 2.730010609 2.674762482
H 1.204609263 2.860750631 -2.522935876
H -3.889952189 0.640718332 -0.707192850
H -3.446213296 3.341601686 -2.797508414
H -0.973112276 5.516524653 0.690450330
H -0.157383516 -5.497090256 -0.300268637
H -2.674338276 -3.529525670 -1.354403261
H -2.757601782 -4.857591534 1.728987249

