12

C -3.051163196 1.547392486 -0.199939336
C -1.743650975 -0.835929063 -1.013221713
O -0.078981217 -0.580017305 -2.941712092
C 1.012114787 -1.685873374 -0.660473283
C 2.506331344 0.040235576 0.590862595
O 4.344281731 -0.551461389 2.232710906
H -3.440800912 1.513973927 1.822321238
H -2.034289606 3.279838746 -0.707252414
H -4.870654966 1.590705689 -1.174523803
H 4.656861896 -2.341795422 2.215942251
H 1.410502596 -3.694928428 -0.665898347
H 2.161249117 2.045221464 0.441882540

