10

O 4.348337953 -0.936505125 -0.801274377
C 2.208740316 -0.224152396 -0.370593359
C 0.878283419 1.972860374 0.190906105
N -1.618856826 0.699630128 0.349986009
C -0.303732959 -1.771425376 -0.264773930
H -2.476400274 0.690555569 2.073248124
H 1.147832479 3.967046325 0.496552884
H -2.932258302 1.204168995 -0.963404035
H -0.506554278 -3.126867627 1.271051977
H -0.992012107 -2.559118311 -2.037610762

