10

N 4.788288777 -1.978495537 0.752006666
C 2.921926243 -1.093295683 0.101806274
C 0.583546709 0.154324654 -0.712794943
C 0.479402183 2.838645201 0.443709187
O -1.397057705 3.771199872 1.249891844
C -3.524884881 -2.559892588 0.211868118
C -1.666439714 -1.351817265 -0.205238525
H 2.316625820 3.835428772 0.401246568
H -5.181697083 -3.637367635 0.590897460
H 0.757802456 0.465406871 -2.758500895

