14

O 5.512414159 -1.095283504 1.549360409
C 3.893075472 -0.716393435 -0.532946949
C 1.226467649 -0.219625558 0.106728595
C -0.350249096 -0.097830781 1.921880400
C -2.598866715 1.319392154 2.041456449
C -3.444275174 0.192236377 -0.425788385
N -5.273347930 0.616574889 1.526794868
H 5.195438982 0.214850371 2.761132490
H 4.548245843 0.847265738 -1.731526474
H 4.012259724 -2.426276630 -1.683653418
H -2.386737493 3.343681235 2.223583699
H -3.207999428 -1.813246357 -0.783937519
H -0.960980518 0.700916125 -1.658803142
H -5.852204472 -1.043613309 2.301249137

