13

O 1.229368833 -4.027203527 -2.006875217
C 0.683542512 -2.092765291 -0.966691024
C -1.985920101 -1.005814742 -0.769732316
C -1.624648969 1.580617443 0.346055681
C 1.031052639 1.957608923 1.038766860
O -0.015333994 3.139293843 -1.134244914
C 2.543447549 -0.363276944 0.410955792
H -3.118729503 -2.225443416 0.455002852
H -2.877149183 -0.975325939 -2.627831077
H 1.605464942 3.225975297 2.541846478
H -3.159911114 2.547206668 1.298573117
H 3.224921755 -1.325524164 2.108068936
H 4.170750071 0.025166768 -0.792582336

