13

O 1.028593406 -4.574503437 -0.405872505
C 0.576079532 -2.358962979 -0.410672447
C -2.081380485 -1.225975924 -0.695377073
C -1.843064988 1.272771042 0.446124446
C 0.749689540 2.047805551 0.925013889
O 1.215391606 4.336379029 0.150973811
C 2.397599998 -0.182002074 -0.125439378
H -3.631136735 -2.402926777 -0.014523320
H -2.418668876 -0.955560632 -2.737905980
H 0.770063566 1.695299989 3.077538802
H -3.365679726 2.622936403 0.697355389
H 4.019896919 -0.657088123 1.038064733
H 3.058874469 0.386646733 -1.999045005

