15

C -4.768858499 0.211990176 1.572929640
N -2.178981665 1.090175253 1.431335977
C 1.716733244 0.511002164 -1.747831201
C 3.834089012 -1.270799037 -1.061328868
O 5.687276942 -0.126019807 0.496522724
C -0.699967312 0.462410975 -0.509016194
N -0.778961965 -0.623585338 -2.624288067
H -4.907432267 -1.668596458 2.417037173
H -5.888976671 1.533448613 2.684745905
H -5.548133157 0.132554404 -0.330818800
H -1.375563034 1.884531192 2.951036322
H 2.325260394 2.229328731 -2.707763922
H 4.829339316 -1.854326868 -2.771586625
H 3.041588709 -2.974359756 -0.185441319
H 4.898139123 0.379424710 2.046812065

