12

C -3.559784513 -1.100762992 0.540056911
C -1.523412258 0.573197378 -0.295290891
C -0.291544792 2.598503699 -0.675717307
N 4.378945941 0.817025074 0.740441296
C 2.990360199 -0.616231545 -0.566747176
N 0.827090568 0.272834973 -1.830249338
H -5.051883575 -0.018711237 1.456267927
H -2.841343654 -2.505072295 1.870431662
H -4.343745937 -2.104369948 -1.083852003
H 0.102191589 4.584868698 -0.641977381
H 5.925977868 -0.116918867 1.385461458
H 3.384746760 -2.607210782 -0.965241453

