16

C 3.664324105 -0.455076551 0.443662889
C 0.919616170 0.129494087 0.042086941
C -0.065581169 2.774909368 0.042451620
C -0.790808034 1.050265466 2.176411373
C -3.272659658 -0.905641494 -0.054483582
C -0.809155215 -1.653824091 -1.351752107
H 4.502796966 0.874739861 1.778919350
H 4.724825764 -0.345302096 -1.326910316
H 3.900341676 -2.354469305 1.220104488
H 1.254783079 4.222306429 0.647159086
H -1.389485988 3.417708062 -1.382643158
H -2.837710429 0.055922533 2.250814577
H -4.386306784 -2.460651863 0.708632368
H -4.461241568 0.462740600 -1.018154692
H -0.831549263 -1.473604237 -3.412059463
H -0.342811380 -3.612616191 -0.902040092

