11

C -2.222039641 -0.982702882 1.216257686
C -0.558963375 1.157207335 0.464457586
N -1.297700913 3.195503161 -0.461167082
O 2.022981258 0.775530638 1.127846736
C 3.620911767 -0.525489617 -0.258452003
O 2.437374595 -1.310498970 -2.326289350
H -1.996300669 -1.358525415 3.231284766
H -1.692354927 -2.688815317 0.189499752
H -4.176422348 -0.501990778 0.808319427
H 0.161997074 4.404687488 -0.779726321
H 3.649551266 -2.244262821 -3.304064676

