11

C -2.341729263 -0.946745664 1.075577592
C -0.569905948 1.155732083 0.494215481
N -1.186920198 3.320686329 -0.193432857
O 2.020678268 0.545072452 1.007979008
C 3.310231703 -0.767248611 -0.652717526
O 2.257538071 -1.413923549 -2.737777799
H -2.033607755 -1.608741632 3.003895533
H -2.002117794 -2.524868026 -0.205846960
H -4.273218713 -0.282947275 0.861205246
H 0.339584408 4.457628468 -0.457079491
H 4.428506957 -2.014005551 -2.288051687

