16

C -1.455111264 3.617270095 -0.585393406
C -0.787554682 0.905825176 -0.251698518
C 0.869710147 -0.388302228 -2.007471256
C 3.284718227 -1.256722335 -0.499199502
C 2.685408575 -2.326125038 1.688679069
C -0.080753799 -2.547828576 2.552537245
N -1.344664841 -0.216995871 1.888327444
H 0.294569299 4.718483843 -0.540022216
H -2.711040064 4.316689594 0.891108801
H -2.327916555 3.929908558 -2.426205350
H 1.285774568 0.774738918 -3.650535322
H 0.033477330 -2.168122977 -2.650321388
H 4.070370767 -3.179301253 2.938292405
H -0.980335300 -4.122264687 1.548817547
H -0.328670106 -2.872525949 4.572509719
H -2.179105706 0.797794635 3.263600878

