13

O 3.401797362 1.480659227 -1.089452754
C 1.038153418 -1.187882352 -0.770466342
C -0.150389904 -1.069645250 1.821364488
C -2.405741430 0.379404585 0.614507906
C -0.941922119 0.251591862 -1.878227254
H 4.053513390 2.233480950 0.436244693
H 2.313723881 -2.604940333 -1.510436114
H 0.921758383 -0.103855984 3.289865368
H -0.647558574 -2.950752919 2.507610046
H -2.785655277 2.260264417 1.372263365
H -4.156598139 -0.708894038 0.669092702
H 1.141535024 1.880051048 -1.668619985
H -1.667868045 0.124267143 -3.787319217

