10

O 2.120963048 -1.280735198 1.855287132
C 1.977252569 0.379152061 -0.228244107
C 0.521990374 -1.949440846 -0.173280062
C -1.989350294 -0.375211037 0.064398257
O -1.799107351 1.177163523 2.225789104
C -0.534235818 1.953744603 0.008931545
H 3.691571991 0.890420449 -1.213596271
H 0.791699796 -3.747974949 -1.102832053
H -3.839528589 -0.843074514 -0.663038152
H -0.941255707 3.795955889 -0.773415373

