12

C -3.585601573 0.150893233 -2.139001315
O -2.280075663 -1.938844113 -1.017910256
C -0.138458551 -1.459055764 0.115759104
N 0.889749275 0.665138526 0.378128264
C 3.045454239 1.319456234 1.389714815
H -4.023042104 1.556151820 -0.695134848
H -2.409209814 1.006654064 -3.600202485
H -5.311046417 -0.608232013 -2.955161575
H 2.427334215 -2.830356144 1.669552641
H 3.653851451 -1.923391841 2.192769655
H 4.654893388 1.661632893 0.161931217
H 3.042497422 2.234021903 3.227799355

