11

O -1.701833925 1.750489611 -0.793954844
C -1.896525340 3.228690153 1.161647001
C -0.072542958 -0.331010456 -0.528180360
C -0.535056205 -2.206570910 1.424431522
O -1.140974285 -2.636829461 -1.168240577
C 2.541990797 0.145634125 -1.540972198
O 3.320648516 2.183491591 -2.108165841
H -3.169845574 4.738147256 0.450264004
H 1.008337149 -3.332372433 2.170970757
H -2.130596191 -1.879512949 2.667495011
H 3.683415952 -1.601119611 -1.700914706

