14

O 2.911586059 4.118796794 -0.466772179
C 2.053181746 2.004514760 -0.355790057
C 2.724483708 -0.415956121 -0.985025657
C 1.145296675 -2.559474618 -0.461457608
C -1.321376366 -2.405922730 0.124701288
C -2.502041722 0.155093848 0.077131326
N -0.653976745 1.975892534 1.126591315
H -0.261933596 1.538278337 2.960260018
H 4.577384551 -0.662968534 -1.805953602
H 2.024118495 -4.409423350 -0.566489814
H -2.478405708 -4.042599560 0.510423341
H -4.256571435 0.265875735 1.153716482
H -2.876580016 0.789873508 -1.861620625
H -1.234924552 3.803815997 1.038324570

