14

O 2.405248816 4.114850139 -1.434254526
C 1.721228317 2.134869504 -0.590098012
C 2.802571859 -0.295575786 -0.104772615
C 1.075815527 -2.484621905 -0.264921972
C -1.436481021 -2.291228430 -0.244042917
C -2.616104514 0.281350778 0.039845045
N -0.645888774 1.949088054 1.065366041
H 1.260119968 0.668738624 2.042501128
H 4.769251109 -0.590573958 -0.578250997
H 1.955473514 -4.332187654 -0.354276197
H -2.651627472 -3.930586819 -0.361421705
H -4.178608837 0.241298581 1.387136908
H -3.363727657 1.019824151 -1.754081942
H -1.247025961 3.670549373 1.639312431

