14

C -0.768119472 -2.227797146 0.730672584
H -1.931990095 -3.921530476 0.552169243
H -0.354790883 -1.998957567 2.743879328
C -2.163376174 0.087928276 -0.264136866
H -3.225961294 -0.357532082 -1.992681616
H -3.616605856 0.764689827 1.038827558
C -0.696792346 2.403929031 -1.041243384
O 1.741353031 2.178584709 -1.088446891
C 3.186414107 -0.083278908 -0.419264616
H 3.800853832 0.186602216 1.532803838
H 4.839799725 -0.004568243 -1.641422386
C 1.699100814 -2.494429111 -0.719374251
H 2.835568386 -4.076098584 -0.036278168
H 1.318658335 -2.834875726 -2.723752365

