12

N -3.838983875 -1.492765417 1.314032380
C -1.708678891 -0.346312230 0.464611221
N 0.570247629 -1.738207506 0.655484142
C 2.204279731 -0.177450688 -0.198261580
O 4.653799671 -0.640078584 -0.395688185
C 1.053783947 2.288470318 -0.976087347
N -1.595990932 1.904537458 -0.438170381
H -3.795242253 -3.379479205 1.488055709
H -5.489500020 -0.688644905 0.837347529
H 4.956667683 -2.329455794 0.220311169
H 1.400327801 2.675025494 -2.977545759
H 1.857211100 3.860475069 0.100593920

