14

O 3.471086797 -2.417405027 1.737140472
C 3.684049464 -0.849567670 -0.151134475
C -1.872256986 -1.954574817 -1.112839835
C -2.223071885 0.836283179 -0.521310941
C 0.072518958 2.317316647 0.244130033
C 2.487199681 1.596948721 0.354947031
H 2.477077306 -1.718694118 3.130158321
H -0.351827415 -2.257287021 -2.476300666
H -3.601683823 -2.730716044 -1.922871014
H -1.430960601 -3.060009117 0.570882539
H -3.006620858 1.781291995 -2.189839521
H -3.664776808 1.078362046 0.944908359
H -0.300703369 4.304208898 0.607417711
H 3.913214245 3.043910956 0.700855408

