14

O 3.462993459 -2.695269998 1.121035312
C 2.503697840 -1.066032604 -0.585428045
C -1.529002560 -1.725902063 -0.634727579
C -2.431889154 0.987448211 -0.513730834
C -0.225904796 2.590233048 0.285440013
C 2.050810386 1.519812595 0.268625324
H 3.157994421 -2.118390696 2.829160665
H 0.709804017 -1.889997508 -1.817735912
H -2.467663220 -2.890347824 -2.056067642
H -1.507064616 -2.706070727 1.172579104
H -3.091363226 1.586234465 -2.382817143
H -4.042933815 1.230860280 0.763173228
H -0.490137925 4.576976257 0.711332238
H 3.734805523 2.575112896 0.782441121

