15

C 4.053654042 0.649180375 -1.056709205
C 1.705067511 1.518227096 0.232233395
O -0.110704578 2.164129230 -1.386506363
C -2.260207630 1.376202820 0.069514161
C -2.918044425 -1.344392002 -0.780354221
C -1.423776392 -2.204902717 1.476342185
C -0.905450878 0.192378523 2.353011816
H 5.264280382 2.318527640 -1.237763355
H 5.053378745 -0.684883745 0.152849326
H 3.749785269 -0.157128667 -2.935995954
H -3.712894054 2.828907158 0.162750225
H -4.945337320 -1.730062692 -0.700638373
H -2.230471656 -1.800686349 -2.682515045
H -0.819447325 -4.055923528 2.093606730
H -0.500411818 0.887826781 4.230142179

