14

N 3.061035012 -3.586830783 -2.012266190
C 1.613854721 -1.729410264 -1.656926152
O 2.541764691 0.643864783 -1.438231266
C 0.932739222 2.780263680 -1.122829286
C -1.516095862 2.203782147 0.155278852
C -1.201238275 -2.115779775 -1.450903240
C -2.506271760 -0.084150449 0.021569428
H 4.889428922 -3.002573386 -2.132944988
H 0.598564079 3.629437437 -2.984590223
H 2.037235141 4.129016282 -0.023012102
H -2.441071277 3.731572277 1.156928222
H -1.976865875 -2.189791541 -3.370902286
H -1.498821838 -3.984171647 -0.643622728
H -4.287328239 -0.525699830 0.930900443

