14

N 2.478403648 -3.715468655 -1.167963278
C 1.399118452 -1.581004100 -1.156935970
O 2.541508444 0.709316335 -1.766447573
C 0.750576200 2.718751224 -1.476179593
C -1.607764058 1.405031858 -0.429429547
C -1.466944143 -1.105155093 -1.913264553
C -0.640829316 -0.339039732 1.460291796
H 4.384062620 -3.514893143 -1.263508360
H 0.421003202 3.603447731 -3.315097804
H 1.511028260 4.111425218 -0.159796432
H -3.394585676 2.398236023 -0.328522140
H -1.256630097 -0.724322688 -3.923158230
H -2.855717138 -2.563513511 -1.564692419
H -2.081716535 -1.494767431 2.392319385

