10

C 3.435151557 0.318951018 -0.185790049
C 2.780584802 -1.893633266 1.455501813
C 1.058351642 -3.651127316 0.966405638
O -0.449523099 -3.821238421 -1.101356876
H -0.067878188 -2.465998257 -2.246589773
H 0.688402075 -5.188963306 2.264700606
H 3.808242491 -2.096171636 3.214079357
H 3.457029993 2.066219477 0.911556280
H 2.092290630 0.611969759 -1.728364678
H 5.305944912 0.108667510 -1.036807441

