16

C 3.006721921 -1.752036578 1.211506064
C 1.020532156 0.171187757 0.480174457
C 1.566168143 2.029994448 -1.547367447
C 1.439408490 2.867045630 1.143994446
C -3.874730332 0.676853165 -0.109973991
N -3.145708669 -1.821431328 -1.022925078
C -1.661406372 -0.636205761 0.972716945
H 2.787511385 -2.290140703 3.190892493
H 4.909598914 -0.998651773 0.966998426
H 2.830495719 -3.445087246 0.044479939
H 3.455991117 2.036810425 -2.349907582
H 0.151321936 2.778343832 -2.831756582
H -3.574102911 2.297614287 -1.325758301
H -5.618476228 0.733107061 0.959258883
H -2.217719822 -1.675352607 -2.694365272
H -1.895463144 -1.512578421 2.812600863

