16

C 4.653854908 -1.447019022 -0.132612759
C 2.380113229 -0.694212151 1.264564471
C -2.146803371 2.928670090 -0.079836488
C -2.294825221 0.167610147 0.687519214
O -4.373534711 -1.075016267 -0.474027140
C 0.056058574 -1.273374167 -0.109908210
H 5.155992423 0.388302058 -0.994649031
H 4.425132964 -2.809773814 -1.684532613
H 6.251634352 -1.926544509 1.076216338
H -0.524867123 3.829477665 0.823700815
H -1.952286585 3.097564835 -2.129218486
H -3.844432523 3.953502658 0.497927829
H -2.444153779 0.039002832 2.751314777
H -5.882319317 -0.137915746 -0.117478680
H -0.162499137 -3.269314540 0.494934428
H 0.213857225 -1.359517559 -2.186339124

