16

C 3.939561941 -0.170003712 -0.626222545
C 1.849748987 -0.154716489 1.267026066
C -1.071649569 2.205385787 -0.232542629
C -2.485558472 -0.125898543 0.676431095
O -4.495639194 -0.944844316 -0.863799027
C -0.293281602 -1.978079117 0.678820540
H 5.148673249 1.494892814 -0.512327486
H 3.384996487 -0.508815808 -2.600021055
H 5.100565376 -1.791814501 -0.054306156
H 0.745532785 2.117229554 1.269762069
H -0.544135998 2.101542030 -2.216382973
H -1.841131383 4.057847420 0.251576310
H -3.131388381 0.188888312 2.619199299
H -5.937722327 0.112760903 -0.571147857
H -0.457356373 -3.498856114 2.061331511
H -0.168962832 -2.819016861 -1.216542241

