13

C -2.128349760 -1.808507623 -0.367020057
N -0.208393933 0.137562424 -0.133858259
C -1.290835557 2.622069888 0.293267844
H -2.470495995 2.577546976 1.985523768
H 0.214624360 3.995141696 0.587723495
H -2.466228615 3.267425400 -1.301733891
C 1.545413905 0.109586371 -2.169279338
C 3.926921090 -0.418349894 -1.682029766
O 6.020008334 -0.881596354 -1.261211209
H 1.020501958 0.505872238 -4.120830820
H -3.368970608 -1.516112209 -2.015460659
H -3.303687638 -1.820700136 1.328765233
H -1.229079478 -3.651558363 -0.548770212

