15

C -2.749435728 -1.686763189 -0.274751458
N -0.636688850 -0.049104552 0.359129619
C -1.335759336 2.616447839 0.220374683
C 1.579091980 -0.654883511 -0.973128697
C 3.900285552 -0.504867641 0.231371283
O 6.144448651 -0.550658936 -0.282585997
H -3.377186343 -1.448789941 -2.243957989
H -4.342060831 -1.261148621 0.962926444
H -2.218399594 -3.656378166 0.009798154
H -2.869108682 2.983964856 1.549730720
H 0.272913434 3.788268388 0.738408858
H -1.970941054 3.169892685 -1.681002926
H 1.499881181 -1.024540662 -3.002299206
H 2.857138401 -1.927232766 1.821055631
H 3.265289178 -0.084881603 2.495659210

