13

N 4.594999217 -2.288258007 2.400875461
C 3.146116434 -0.790199165 1.803051474
C 1.295370938 1.087177997 0.981453451
C 0.619049655 1.171864297 -1.865037514
C -2.052365668 0.534479479 -1.034933532
C -2.101150800 -1.794183121 0.462648797
N -1.380219962 0.559682870 1.730171899
H 1.855516280 2.922348446 1.725011038
H 1.548809044 -0.184121572 -3.104088736
H 0.825909470 3.064586204 -2.637990868
H -3.749997825 1.444831097 -1.722511044
H -0.682446131 -3.246821017 0.164984070
H -3.919590672 -2.481387488 1.096365486

