13

N 4.678935466 -2.165603235 2.316537758
C 3.151032746 -0.740749907 1.742463434
C 1.270547930 1.115132205 0.974582313
C 0.850596890 1.503835584 -1.941365518
C -1.865332859 1.000253203 -1.302161064
C -2.323382951 -2.184385960 1.032018459
N -1.428238772 0.290015853 1.110186962
H 1.561497194 2.873133042 2.009080660
H 1.775136761 -0.012778290 -3.004033596
H 1.354563075 3.319904776 -2.771857423
H -3.688121559 1.246919267 -2.169906463
H -1.829959889 -3.381115991 -0.546669365
H -3.507274032 -2.864560546 2.551118193

