14

C 4.520690670 -0.530255809 0.817504139
N 3.164268785 1.161313370 -0.835519484
C 0.783046117 1.337756210 -0.760938362
N -3.803343320 0.130182836 -3.734387251
N -4.704320478 -0.041573351 -1.639087969
C -3.366233982 -0.393023028 0.719921554
C -0.940721539 0.130832618 1.075125645
H 5.721908895 -1.736147761 -0.347710060
H 5.779660493 0.586003202 2.013822379
H 3.354417336 -1.753271193 2.012615544
H -0.103051471 2.575309125 -2.142928090
H -6.646507006 0.054624215 -1.333925773
H -4.567804301 -1.108011471 2.218956799
H -0.206778047 -0.261251311 2.946390317

