13

C 3.872052363 -0.669411045 -1.075177366
C 1.482387325 -1.373050303 -1.304623434
C -0.465002696 -1.202030297 0.747542849
C -2.711698143 0.382939336 -0.032168997
C -2.915813697 3.041195665 0.546448097
N -4.223739787 1.729027802 2.002487462
H 4.601219137 0.088251457 0.685645191
H -2.449372069 5.008294755 0.247438925
H 5.191996279 -0.837480093 -2.630572937
H 0.832655509 -2.125677895 -3.104805812
H 0.373597173 -0.408548848 2.458852088
H -1.134595175 -3.103453392 1.222067252
H -3.829357667 -0.380447544 -1.581170793

