11

C -1.330946771 2.108155089 0.029264129
C 2.248733875 -0.828061906 0.085616064
C 0.973895529 1.213847756 -1.357629874
N 0.635794726 -1.523920292 -1.997380477
C -2.118197755 0.102604097 1.308960204
C -0.264686474 -1.939169486 0.655030815
H -2.124484307 3.984232836 -0.060335932
H 4.186760303 -1.429158955 0.337080238
H 1.974684205 2.328279061 -2.748246070
H -3.726512630 -0.100282153 2.545610926
H -0.471881942 -3.892662567 1.220073100

