17

C -0.695955121 3.533654041 0.338197557
C -0.779867370 1.052645633 -1.075982295
C 1.301233964 -0.788079251 -1.453945586
C 3.762924723 -0.235933044 -0.128897142
N -0.806238555 -1.272849673 0.476302068
C -2.636050875 -3.285097268 0.082162438
H 0.712534274 3.546706852 1.841585522
H -2.530614381 4.022535223 1.151668264
H -0.187936476 5.026647492 -0.991344826
H -2.277791286 1.019790646 -2.491177233
H -0.417178339 -0.919991148 2.322142081
H 4.834344596 -1.974680671 0.167628288
H 4.912834862 0.957650896 -1.360872700
H 3.645846307 0.737932779 1.717721457
H -4.447353744 -2.819454559 0.957246797
H -1.900049415 -5.037723970 0.876938898
H -2.861277316 -3.530755579 -1.945040544

