15

C 1.377686652 2.788579571 0.255506581
C 2.321869394 1.503038611 -1.993149399
C 0.967572298 -2.732159058 0.506238883
O -0.643730253 -1.712081211 2.386901049
C -2.372914789 -0.123362247 1.173383126
C -0.906138832 1.248897395 -0.908628547
C 1.034036536 -0.918612688 -1.771668338
H 1.647145969 2.028595105 2.156821772
H 1.391732155 4.841580962 0.211597661
H 2.826834412 -3.009025346 1.354788803
H 0.257135979 -4.569690682 -0.132970673
H -3.151533504 1.175946351 2.571455482
H -3.921890545 -1.191363039 0.296590437
H -2.077934456 2.151002096 -2.321867410
H 0.778621569 -1.910137888 -3.555068909

