8

O -2.854757119 1.105163484 -0.792190331
C -1.514104148 0.299766745 1.157691710
C -2.846632865 -1.684623377 -0.968206698
C -0.592201674 -2.372486105 0.195682123
C 1.375549580 -0.370252811 0.573651102
C 3.385687654 0.747571573 0.737786760
H -1.999735567 0.763524320 3.095052935
H 5.147466432 1.710925265 0.880666987

