11

N 4.624547353 -0.302421546 -0.049517287
C 2.253517641 -0.045385855 0.045642385
C 0.959088032 2.457720331 0.119137651
C -1.688385557 1.710006991 -0.148172084
C -1.925607110 -1.130974365 0.330247026
O 0.595079254 -2.038695786 0.093486112
H 5.102820500 -2.170664489 -0.100215200
H -1.841969098 2.129709532 -2.201050113
H -3.068372610 2.939827052 0.756928760
H -3.111653159 -2.129507539 -1.025985528
H -2.616450636 -1.527117067 2.236269430

