11

N 4.568658797 -0.169984871 -0.137587010
C 2.204538888 0.025737578 -0.034716159
C 0.783003144 2.489005295 0.042664233
C -1.732749580 1.622461838 0.082758193
C -1.924746378 -1.213161389 0.381205191
O 0.604524370 -2.035217896 0.131960841
H 5.103459681 -2.018801165 -0.054772143
H -1.015091087 2.227430558 -1.987467635
H -3.343221238 2.854457692 0.396692196
H -3.099220103 -2.134025137 -1.043702579
H -2.653482805 -1.702492911 2.253937481

