10

O -0.924058803 1.197939248 -1.873623636
C -2.749743942 -0.428139488 -1.048784941
N -2.273359293 -2.316036849 0.284337793
C 2.930952388 0.690936708 1.363066351
C 1.342993869 1.120168533 -0.771592676
N 3.521460678 1.802014638 -1.287284913
H -4.565684520 0.195037140 -1.790001535
H -3.873075026 -3.289725151 0.688798124
H 2.970723980 2.017641346 2.928906457
H 3.635724839 -1.192681255 1.758699318

