14

C -2.553059263 -1.381193643 0.066379654
C -1.176988138 1.534174797 -0.982319059
O -0.210994593 3.041542430 0.711601033
C 2.442128994 2.296005657 0.940588558
C 2.496616488 -0.498654769 0.540501488
C 0.550758525 -0.440157844 -1.551520007
H -3.381655924 -0.565436424 1.760565101
H -1.527229184 -3.071327802 0.672384473
H -3.986652612 -1.842598018 -1.325695694
H -2.617752052 2.295327340 -2.218400350
H 3.225953716 3.124339514 2.645552928
H 4.337568687 -1.145141623 -0.122566030
H 1.915366609 -1.830208312 2.094150801
H 0.506882580 -1.564749734 -3.256811696

