14

C -3.183294679 -0.452414399 -0.315916042
C -2.478223878 2.251398653 -0.380724880
C -0.737721508 0.356206439 0.914335387
C 1.618938084 -0.093282872 -0.431632817
C 3.883360409 -0.667930747 1.094423339
O 2.992082893 -3.111443324 0.362704281
H -3.030419275 -1.532335583 -2.044023756
H -4.676934662 -1.040571473 0.949077095
H -3.457205284 3.560695474 0.844927882
H -1.815967204 3.034142943 -2.147855494
H -0.723040245 0.411476544 2.967328614
H 2.169853494 -2.357819752 -1.505799425
H 5.743693771 -0.187690188 0.356813589
H 3.745588905 -0.440320530 3.135349342

