16

C 2.227847034 2.229161150 0.206274605
C 0.432918378 -0.053710665 -0.015121796
C -1.572326893 -0.790406713 1.934691723
C -3.582594112 -0.553068979 -0.174336249
C -1.446547762 -0.490685246 -2.169407405
C 3.142796828 -0.393910633 0.045249776
N 4.911009405 -1.970785454 -0.012286697
H 2.432442939 3.441791204 -1.435650259
H 6.615928422 -1.079118598 0.105386870
H 2.323256661 3.193949919 2.013976846
H -1.766815295 0.455265902 3.564354041
H -1.327255040 -2.728093841 2.592895086
H -4.948897847 -2.084208385 -0.330235139
H -4.601547874 1.234298164 -0.076722522
H -1.156020814 -2.313977312 -3.085669198
H -1.548715786 0.979122947 -3.609473312

