16

C 2.123380215 2.332214473 0.363800776
C 1.005849778 -0.280225654 -0.121152685
C -0.950443820 -1.101854044 1.913416147
C -3.086999584 -0.220766310 0.139878378
C -1.192681142 -0.257416584 -2.073276092
C 3.014111147 -2.105161744 -0.625361341
N 4.571076003 -3.563072088 -1.023846207
H 3.195859752 2.987344386 -1.270337698
H 3.378480692 2.301243544 1.999119649
H 0.612719772 3.687148331 0.733693387
H -0.771229073 -0.181721809 3.747555770
H -0.953383630 -3.142789685 2.182788801
H -4.726462985 -1.452243774 -0.021450130
H -3.741964977 1.681125173 0.583084728
H -1.275710057 -2.014375030 -3.142678305
H -1.202602109 1.330550816 -3.385235235

