11

C 2.868180448 -1.380041610 1.758840821
N 1.012223049 0.127323567 0.438856295
C -3.044522660 2.685064362 -1.553045999
O -4.436509002 3.860657598 -2.854739525
C -0.690951164 -1.000117860 -0.738455137
O -2.548386783 0.200607600 -2.062504257
H 2.585677485 -3.421464290 1.533222375
H 2.810012070 -0.921284250 3.768015211
H 4.747186308 -0.886414495 1.070130796
H -2.068317508 3.374795556 0.138484951
H -0.913743204 -3.045292591 -0.912667269

