15

C -0.066769655 -2.937097210 -1.050334687
C -0.773157236 -0.328473688 -0.173989994
C 0.743098818 1.870237795 -1.221860233
C 3.437766957 1.690685580 -0.630558730
C 5.639005400 1.522611600 -0.135387954
C -2.619845453 0.086406990 1.398408406
C -4.460542804 0.506328418 2.972859824
H -0.256516262 -3.085335983 -3.103245711
H 1.902708600 -3.342076082 -0.581927157
H -1.263140978 -4.364541844 -0.177800476
H -4.138232439 0.529443756 4.996412063
H 0.524027517 1.925048092 -3.279526242
H -0.001389856 3.645755033 -0.485893392
H 7.596251893 1.382166966 0.305404157
H -6.370453546 0.842562663 2.310745200

