15

C -3.699828242 -0.474773166 -1.331826911
C -1.626768334 -1.640442336 -0.493355807
C 1.034654174 2.053351255 -0.272474394
C -0.092811612 3.883223611 1.397554420
N 2.184756536 3.538906308 1.881118687
N 0.667695703 -0.569276045 0.130248712
C 2.924449670 -2.111955347 0.025443802
H -5.405014466 -1.557399021 -1.625975840
H -3.765489252 1.529129152 -1.729308445
H -1.693680229 4.954101907 2.074654251
H -1.668333654 -3.668521206 -0.179999796
H 1.652173057 2.609323458 -2.158312029
H 3.719994511 -2.232106269 -1.887402328
H 2.482950990 -4.020316873 0.663736103
H 4.354753006 -1.323759235 1.281964087

