11

C -3.032176494 -0.458970105 1.289044777
N -0.665588073 -0.053433575 0.350115134
C 0.765882755 2.127044035 0.636630420
N 2.904236328 2.032692958 -0.589449628
N 2.901156377 -0.210885385 -1.684738121
C 0.770645318 -1.529165492 -1.133569167
H -3.691300437 -2.386802047 1.241735144
H 4.359339447 -0.758732333 -2.761537798
H -3.582812621 0.773163869 2.814117047
H 0.124104494 3.711241205 1.735772537
H 0.288066165 -3.381567163 -1.805489750

