13

C -0.583892397 2.829953594 0.181218991
C -0.269747463 0.129251144 1.017091853
O 1.932880118 -0.322974018 2.421226280
H 3.356058128 -0.176191941 1.306028861
C -1.223108699 -1.988712077 -0.604758809
H -2.194383386 -1.529953432 -2.346347338
H -0.101063819 -3.697418671 -0.659200685
C -2.493889651 -1.358371402 1.873978054
H -4.334299442 -0.467095625 1.830154549
H -2.183979234 -2.646467594 3.429902540
H 0.951320861 3.391882762 -1.083336183
H -0.569252556 4.086185375 1.817146809
H -2.361290687 3.088124784 -0.831118746

