10

O 2.795956798 0.529852126 3.020282369
C 2.685075133 -0.589844940 1.052705102
C 0.419610851 -0.529584559 -0.664835641
C -3.823736923 1.476068836 -0.613282117
N -1.605592687 1.030607458 0.356909323
H 4.284711006 -1.756888620 0.376396897
H 1.033631454 0.179986700 -2.508872307
H -3.903950902 0.420913402 -2.426030134
H -0.225729732 -2.473882535 -0.951808448
H -1.152969019 1.831972258 2.037527198

