15

C -3.369565059 -1.952087521 1.438313942
C -1.132744755 -1.011774938 -0.045254840
C -0.743159686 1.601578625 -0.907817854
N 0.538984038 0.802282886 1.206371981
C 3.270659817 0.491199630 1.178321339
C 4.188121605 0.662372647 -1.542712655
N 2.767010143 1.286271963 -3.201112208
H -4.146282407 -0.439047233 2.601469549
H -2.840568167 -3.518886153 2.675515613
H -4.849586636 -2.622023287 0.164914396
H -0.195221162 -2.450453370 -1.190431253
H 1.253024689 1.696720118 -4.273183280
H -2.013703856 3.209714714 -0.943963118
H 4.186900275 2.026749467 2.207541606
H 3.817804789 -1.295602184 2.043342282

