22

C     1.90232  -2.57047   0.33102
C     1.62968  -1.14486   0.51788
O     2.17231  -0.30433  -0.22675
N     1.93395   1.11613  -0.20689
C     1.37574   1.50931   0.91947
N     0.92526   2.02852   1.88215
C    -0.43550   0.34681  -1.47476
C    -1.17611   1.37541  -0.69792
O    -1.12286   2.56770  -0.98643
C    -2.03197   0.89707   0.41719
C    -2.14105  -0.41299   0.69743
C    -1.39963  -1.42941  -0.09077
O    -1.52210  -2.63351   0.14922
C    -0.55480  -0.93423  -1.20419
H     0.96703  -3.19613   0.34255
H     2.47022  -2.81678   1.20540
H     2.45655  -2.75569  -0.59609
H     0.80752  -0.79701   1.20675
H     0.24729   0.74016  -2.24756
H    -2.59098   1.65594   0.95122
H    -2.78570  -0.79400   1.47718
H     0.08935  -1.70546  -1.69648
22

C     1.89758  -2.56975   0.32819
C     1.60886  -1.14602   0.50339
O     2.17194  -0.30141  -0.22684
N     1.91562   1.11002  -0.21378
C     1.37093   1.50955   0.91716
N     0.92824   2.02983   1.88151
C    -0.41892   0.35115  -1.46256
C    -1.17247   1.37648  -0.69574
O    -1.12331   2.56771  -0.98791
C    -2.03123   0.89678   0.41580
C    -2.13943  -0.41340   0.69635
C    -1.39455  -1.43017  -0.08786
O    -1.52322  -2.63367   0.14736
C    -0.53272  -0.93602  -1.18632
H     0.96769  -3.19843   0.34349
H     2.47078  -2.81306   1.20394
H     2.45437  -2.75588  -0.59739
H     0.80732  -0.79783   1.20710
H     0.24717   0.73987  -2.24749
H    -2.59187   1.65561   0.94999
H    -2.78604  -0.79415   1.47617
H     0.08999  -1.70500  -1.69620
22

C     1.89283  -2.56904   0.32536
C     1.58803  -1.14719   0.48889
O     2.17156  -0.29850  -0.22693
N     1.89729   1.10392  -0.22066
C     1.36612   1.50979   0.91485
N     0.93122   2.03114   1.88087
C    -0.40235   0.35548  -1.45036
C    -1.16884   1.37756  -0.69356
O    -1.12376   2.56772  -0.98938
C    -2.03049   0.89648   0.41441
C    -2.13780  -0.41381   0.69527
C    -1.38947  -1.43092  -0.08495
O    -1.52435  -2.63382   0.14550
C    -0.51063  -0.93780  -1.16845
H     0.96834  -3.20073   0.34443
H     2.47134  -2.80934   1.20248
H     2.45219  -2.75608  -0.59870
H     0.80712  -0.79865   1.20744
H     0.24706   0.73958  -2.24742
H    -2.59276   1.65528   0.94877
H    -2.78638  -0.79430   1.47516
H     0.09062  -1.70453  -1.69592
22

C     1.88809  -2.56833   0.32253
C     1.56721  -1.14836   0.47439
O     2.17119  -0.29558  -0.22701
N     1.87896   1.09781  -0.22755
C     1.36131   1.51002   0.91253
N     0.93420   2.03246   1.88023
C    -0.38577   0.35982  -1.43815
C    -1.16520   1.37864  -0.69139
O    -1.12421   2.56773  -0.99086
C    -2.02974   0.89619   0.41302
C    -2.13618  -0.41422   0.69420
C    -1.38438  -1.43168  -0.08204
O    -1.52548  -2.63397   0.14364
C    -0.48855  -0.93959  -1.15058
H     0.96900  -3.20303   0.34537
H     2.47190  -2.80562   1.20102
H     2.45001  -2.75627  -0.60000
H     0.80691  -0.79947   1.20779
H     0.24694   0.73929  -2.24736
H    -2.59365   1.65494   0.94755
H    -2.78673  -0.79445   1.47416
H     0.09125  -1.70407  -1.69565
22

C     1.88334  -2.56762   0.31970
C     1.54639  -1.14953   0.45990
O     2.17082  -0.29266  -0.22710
N     1.86063   1.09171  -0.23443
C     1.35651   1.51026   0.91022
N     0.93718   2.03377   1.87959
C    -0.36919   0.36416  -1.42595
C    -1.16156   1.37971  -0.68921
O    -1.12466   2.56774  -0.99234
C    -2.02900   0.89589   0.41163
C    -2.13455  -0.41462   0.69312
C    -1.37930  -1.43243  -0.07913
O    -1.52660  -2.63413   0.14177
C    -0.46647  -0.94138  -1.13271
H     0.96966  -3.20533   0.34630
H     2.47246  -2.80190   1.19956
H     2.44783  -2.75647  -0.60130
H     0.80671  -0.80029   1.20814
H     0.24683   0.73901  -2.24729
H    -2.59453   1.65461   0.94633
H    -2.78707  -0.79460   1.47315
H     0.09189  -1.70361  -1.69537
22

C     1.87860  -2.56691   0.31687
C     1.52557  -1.15070   0.44540
O     2.17045  -0.28975  -0.22719
N     1.84230   1.08560  -0.24132
C     1.35170   1.51050   0.90791
N     0.94016   2.03508   1.87895
C    -0.35261   0.36850  -1.41375
C    -1.15793   1.38079  -0.68703
O    -1.12511   2.56775  -0.99382
C    -2.02826   0.89559   0.41024
C    -2.13292  -0.41503   0.69205
C    -1.37422  -1.43319  -0.07623
O    -1.52773  -2.63428   0.13991
C    -0.44438  -0.94317  -1.11483
H     0.97031  -3.20763   0.34724
H     2.47302  -2.79818   1.19810
H     2.44565  -2.75666  -0.60260
H     0.80651  -0.80111   1.20848
H     0.24671   0.73872  -2.24722
H    -2.59542   1.65428   0.94511
H    -2.78741  -0.79474   1.47214
H     0.09252  -1.70315  -1.69509
22

C     1.87385  -2.56620   0.31404
C     1.50474  -1.15186   0.43090
O     2.17007  -0.28683  -0.22728
N     1.82397   1.07950  -0.24820
C     1.34689   1.51074   0.90560
N     0.94315   2.03639   1.87831
C    -0.33604   0.37284  -1.40154
C    -1.15429   1.38186  -0.68486
O    -1.12556   2.56776  -0.99529
C    -2.02752   0.89530   0.40886
C    -2.13130  -0.41544   0.69097
C    -1.36914  -1.43394  -0.07332
O    -1.52885  -2.63443   0.13805
C    -0.42230  -0.94496  -1.09696
H     0.97097  -3.20993   0.34818
H     2.47359  -2.79446   1.19664
H     2.44347  -2.75686  -0.60390
H     0.80631  -0.80193   1.20883
H     0.24660   0.73843  -2.24716
H    -2.59631   1.65395   0.94388
H    -2.78775  -0.79489   1.47114
H     0.09316  -1.70269  -1.69481
22

C     1.86910  -2.56548   0.31121
C     1.48392  -1.15303   0.41641
O     2.16970  -0.28391  -0.22736
N     1.80564   1.07339  -0.25508
C     1.34208   1.51098   0.90328
N     0.94613   2.03770   1.87766
C    -0.31946   0.37718  -1.38934
C    -1.15066   1.38294  -0.68268
O    -1.12601   2.56777  -0.99677
C    -2.02678   0.89500   0.40747
C    -2.12967  -0.41585   0.68989
C    -1.36406  -1.43470  -0.07041
O    -1.52998  -2.63459   0.13618
C    -0.40022  -0.94675  -1.07909
H     0.97162  -3.21223   0.34912
H     2.47415  -2.79075   1.19518
H     2.44129  -2.75706  -0.60520
H     0.80610  -0.80275   1.20917
H     0.24649   0.73814  -2.24709
H    -2.59720   1.65362   0.94266
H    -2.78809  -0.79504   1.47013
H     0.09379  -1.70223  -1.69454
22

C     1.86436  -2.56477   0.30838
C     1.46310  -1.15420   0.40191
O     2.16933  -0.28100  -0.22745
N     1.78731   1.06729  -0.26197
C     1.33727   1.51121   0.90097
N     0.94911   2.03901   1.87702
C    -0.30288   0.38152  -1.37714
C    -1.14702   1.38401  -0.68050
O    -1.12646   2.56778  -0.99825
C    -2.02604   0.89471   0.40608
C    -2.12804  -0.41626   0.68882
C    -1.35898  -1.43545  -0.06750
O    -1.53111  -2.63474   0.13432
C    -0.37813  -0.94854  -1.06122
H     0.97228  -3.21454   0.35006
H     2.47471  -2.78703   1.19373
H     2.43910  -2.75725  -0.60650
H     0.80590  -0.80357   1.20952
H     0.24637   0.73785  -2.24702
H    -2.59809   1.65328   0.94144
H    -2.78844  -0.79519   1.46912
H     0.09443  -1.70177  -1.69426
22

C     1.85961  -2.56406   0.30555
C     1.44228  -1.15537   0.38742
O     2.16896  -0.27808  -0.22754
N     1.76898   1.06118  -0.26885
C     1.33247   1.51145   0.89866
N     0.95209   2.04032   1.87638
C    -0.28631   0.38586  -1.36493
C    -1.14339   1.38509  -0.67833
O    -1.12691   2.56779  -0.99973
C    -2.02530   0.89441   0.40469
C    -2.12642  -0.41667   0.68774
C    -1.35390  -1.43621  -0.06459
O    -1.53223  -2.63489   0.13246
C    -0.35605  -0.95033  -1.04335
H     0.97293  -3.21684   0.35100
H     2.47527  -2.78331   1.19227
H     2.43692  -2.75745  -0.60780
H     0.80570  -0.80439   1.20987
H     0.24626   0.73756  -2.24696
H    -2.59897   1.65295   0.94022
H    -2.78878  -0.79534   1.46811
H     0.09506  -1.70131  -1.69398
22

C     1.85487  -2.56335   0.30272
C     1.42145  -1.15653   0.37292
O     2.16859  -0.27516  -0.22762
N     1.75065   1.05508  -0.27574
C     1.32766   1.51169   0.89635
N     0.95507   2.04163   1.87574
C    -0.26973   0.39020  -1.35273
C    -1.13975   1.38616  -0.67615
O    -1.12737   2.56780  -1.00120
C    -2.02456   0.89411   0.40330
C    -2.12479  -0.41707   0.68667
C    -1.34882  -1.43697  -0.06168
O    -1.53336  -2.63505   0.13060
C    -0.33396  -0.95212  -1.02547
H     0.97359  -3.21914   0.35194
H     2.47583  -2.77959   1.19081
H     2.43474  -2.75764  -0.60910
H     0.80550  -0.80520   1.21021
H     0.24614   0.73727  -2.24689
H    -2.59986   1.65262   0.93900
H    -2.78912  -0.79548   1.46711
H     0.09570  -1.70084  -1.69371
22

C     1.85012  -2.56264   0.29989
C     1.40063  -1.15770   0.35842
O     2.16821  -0.27225  -0.22771
N     1.73232   1.04897  -0.28262
C     1.32285   1.51193   0.89403
N     0.95805   2.04294   1.87510
C    -0.25315   0.39454  -1.34053
C    -1.13611   1.38724  -0.67397
O    -1.12782   2.56781  -1.00268
C    -2.02382   0.89382   0.40191
C    -2.12317  -0.41748   0.68559
C    -1.34374  -1.43772  -0.05878
O    -1.53448  -2.63520   0.12873
C    -0.31188  -0.95391  -1.00760
H     0.97424  -3.22144   0.35288
H     2.47639  -2.77587   1.18935
H     2.43256  -2.75784  -0.61041
H     0.80529  -0.80602   1.21056
H     0.24603   0.73699  -2.24682
H    -2.60075   1.65229   0.93778
H    -2.78946  -0.79563   1.46610
H     0.09633  -1.70038  -1.69343
22

C     1.84537  -2.56193   0.29706
C     1.37981  -1.15887   0.34393
O     2.16784  -0.26933  -0.22780
N     1.71399   1.04287  -0.28951
C     1.31804   1.51217   0.89172
N     0.96104   2.04425   1.87446
C    -0.23657   0.39888  -1.32832
C    -1.13248   1.38831  -0.67180
O    -1.12827   2.56782  -1.00416
C    -2.02308   0.89352   0.40053
C    -2.12154  -0.41789   0.68451
C    -1.33866  -1.43848  -0.05587
O    -1.53561  -2.63535   0.12687
C    -0.28980  -0.95570  -0.98973
H     0.97490  -3.22374   0.35382
H     2.47695  -2.77215   1.18789
H     2.43038  -2.75803  -0.61171
H     0.80509  -0.80684   1.21090
H     0.24591   0.73670  -2.24676
H    -2.60164   1.65195   0.93655
H    -2.78980  -0.79578   1.46509
H     0.09697  -1.69992  -1.69315
22

C     1.84063  -2.56121   0.29423
C     1.35899  -1.16004   0.32943
O     2.16747  -0.26642  -0.22789
N     1.69566   1.03676  -0.29639
C     1.31323   1.51240   0.88941
N     0.96402   2.04556   1.87382
C    -0.22000   0.40322  -1.31612
C    -1.12884   1.38939  -0.66962
O    -1.12872   2.56784  -1.00564
C    -2.02234   0.89323   0.39914
C    -2.11991  -0.41830   0.68344
C    -1.33358  -1.43923  -0.05296
O    -1.53674  -2.63551   0.12501
C    -0.26771  -0.95749  -0.97186
H     0.97555  -3.22604   0.35476
H     2.47751  -2.76844   1.18643
H     2.42820  -2.75823  -0.61301
H     0.80489  -0.80766   1.21125
H     0.24580   0.73641  -2.24669
H    -2.60252   1.65162   0.93533
H    -2.79015  -0.79593   1.46409
H     0.09760  -1.69946  -1.69287
22

C     1.83588  -2.56050   0.29140
C     1.33816  -1.16120   0.31493
O     2.16710  -0.26350  -0.22797
N     1.67733   1.03066  -0.30328
C     1.30842   1.51264   0.88709
N     0.96700   2.04687   1.87317
C    -0.20342   0.40756  -1.30392
C    -1.12521   1.39046  -0.66744
O    -1.12917   2.56785  -1.00711
C    -2.02160   0.89293   0.39775
C    -2.11829  -0.41871   0.68236
C    -1.32850  -1.43999  -0.05005
O    -1.53786  -2.63566   0.12314
C    -0.24563  -0.95928  -0.95399
H     0.97621  -3.22834   0.35570
H     2.47807  -2.76472   1.18497
H     2.42602  -2.75842  -0.61431
H     0.80469  -0.80848   1.21160
H     0.24568   0.73612  -2.24663
H    -2.60341   1.65129   0.93411
H    -2.79049  -0.79608   1.46308
H     0.09824  -1.69900  -1.69260
22

C     1.83114  -2.55979   0.28857
C     1.31734  -1.16237   0.30044
O     2.16673  -0.26058  -0.22806
N     1.65900   1.02455  -0.31016
C     1.30362   1.51288   0.88478
N     0.96998   2.04819   1.87253
C    -0.18684   0.41189  -1.29171
C    -1.12157   1.39154  -0.66527
O    -1.12962   2.56786  -1.00859
C    -2.02086   0.89263   0.39636
C    -2.11666  -0.41912   0.68129
C    -1.32342  -1.44074  -0.04714
O    -1.53899  -2.63581   0.12128
C    -0.22355  -0.96106  -0.93611
H     0.97686  -3.23064   0.35664
H     2.47864  -2.76100   1.18351
H     2.42384  -2.75862  -0.61561
H     0.80448  -0.80930   1.21194
H     0.24557   0.73583  -2.24656
H    -2.60430   1.65096   0.93289
H    -2.79083  -0.79622   1.46207
H     0.09887  -1.69854  -1.69232
22

C     1.82639  -2.55908   0.28574
C     1.29652  -1.16354   0.28594
O     2.16635  -0.25767  -0.22815
N     1.64067   1.01845  -0.31705
C     1.29881   1.51312   0.88247
N     0.97296   2.04950   1.87189
C    -0.17027   0.41623  -1.27951
C    -1.11793   1.39261  -0.66309
O    -1.13007   2.56787  -1.01007
C    -2.02012   0.89234   0.39497
C    -2.11503  -0.41952   0.68021
C    -1.31834  -1.44150  -0.04423
O    -1.54011  -2.63597   0.11942
C    -0.20146  -0.96285  -0.91824
H     0.97752  -3.23295   0.35758
H     2.47920  -2.75728   1.18205
H     2.42166  -2.75881  -0.61691
H     0.80428  -0.81012   1.21229
H     0.24546   0.73554  -2.24649
H    -2.60519   1.65062   0.93167
H    -2.79117  -0.79637   1.46107
H     0.09951  -1.69808  -1.69204
22

C     1.82165  -2.55837   0.28291
C     1.27569  -1.16471   0.27145
O     2.16598  -0.25475  -0.22824
N     1.62234   1.01235  -0.32393
C     1.29400   1.51336   0.88016
N     0.97594   2.05081   1.87125
C    -0.15369   0.42057  -1.26731
C    -1.11430   1.39369  -0.66091
O    -1.13052   2.56788  -1.01155
C    -2.01937   0.89204   0.39358
C    -2.11341  -0.41993   0.67913
C    -1.31326  -1.44225  -0.04133
O    -1.54124  -2.63612   0.11756
C    -0.17938  -0.96464  -0.90037
H     0.97817  -3.23525   0.35852
H     2.47976  -2.75356   1.18059
H     2.41948  -2.75901  -0.61821
H     0.80408  -0.81094   1.21263
H     0.24534   0.73526  -2.24643
H    -2.60607   1.65029   0.93044
H    -2.79151  -0.79652   1.46006
H     0.10014  -1.69762  -1.69176
22

C     1.81690  -2.55765   0.28008
C     1.25487  -1.16587   0.25695
O     2.16561  -0.25183  -0.22832
N     1.60401   1.00624  -0.33082
C     1.28919   1.51360   0.87784
N     0.97893   2.05212   1.87061
C    -0.13711   0.42491  -1.25510
C    -1.11066   1.39476  -0.65874
O    -1.13097   2.56789  -1.01302
C    -2.01863   0.89175   0.39220
C    -2.11178  -0.42034   0.67806
C    -1.30818  -1.44301  -0.03842
O    -1.54237  -2.63628   0.11569
C    -0.15729  -0.96643  -0.88250
H     0.97883  -3.23755   0.35946
H     2.48032  -2.74984   1.17914
H     2.41730  -2.75920  -0.61951
H     0.80388  -0.81176   1.21298
H     0.24523   0.73497  -2.24636
H    -2.60696   1.64996   0.92922
H    -2.79186  -0.79667   1.45905
H     0.10077  -1.69715  -1.69149
22

C     1.81215  -2.55694   0.27725
C     1.23405  -1.16704   0.24245
O     2.16524  -0.24892  -0.22841
N     1.58568   1.00014  -0.33770
C     1.28438   1.51383   0.87553
N     0.98191   2.05343   1.86997
C    -0.12053   0.42925  -1.24290
C    -1.10703   1.39584  -0.65656
O    -1.13142   2.56790  -1.01450
C    -2.01789   0.89145   0.39081
C    -2.11016  -0.42075   0.67698
C    -1.30310  -1.44376  -0.03551
O    -1.54349  -2.63643   0.11383
C    -0.13521  -0.96822  -0.86463
H     0.97949  -3.23985   0.36040
H     2.48088  -2.74612   1.17768
H     2.41512  -2.75940  -0.62082
H     0.80368  -0.81258   1.21333
H     0.24511   0.73468  -2.24629
H    -2.60785   1.64963   0.92800
H    -2.79220  -0.79682   1.45804
H     0.10141  -1.69669  -1.69121
22

C     1.80741  -2.55623   0.27442
C     1.21323  -1.16821   0.22796
O     2.16486  -0.24600  -0.22850
N     1.56735   0.99403  -0.34459
C     1.27958   1.51407   0.87322
N     0.98489   2.05474   1.86933
C    -0.10396   0.43359  -1.23070
C    -1.10339   1.39692  -0.65438
O    -1.13187   2.56791  -1.01598
C    -2.01715   0.89116   0.38942
C    -2.10853  -0.42116   0.67591
C    -1.29802  -1.44452  -0.03260
O    -1.54462  -2.63658   0.11197
C    -0.11313  -0.97001  -0.84675
H     0.98014  -3.24215   0.36134
H     2.48144  -2.74241   1.17622
H     2.41294  -2.75959  -0.62212
H     0.80347  -0.81340   1.21367
H     0.24500   0.73439  -2.24623
H    -2.60874   1.64929   0.92678
H    -2.79254  -0.79696   1.45704
H     0.10204  -1.69623  -1.69093
22

C     1.81215  -2.55694   0.27725
C     1.23405  -1.16704   0.24245
O     2.16524  -0.24892  -0.22841
N     1.58568   1.00014  -0.33770
C     1.28438   1.51383   0.87553
N     0.98191   2.05343   1.86997
C    -0.12053   0.42925  -1.24290
C    -1.10703   1.39584  -0.65656
O    -1.13142   2.56790  -1.01450
C    -2.01789   0.89145   0.39081
C    -2.11016  -0.42075   0.67698
C    -1.30310  -1.44376  -0.03551
O    -1.54349  -2.63643   0.11383
C    -0.13521  -0.96822  -0.86463
H     0.97949  -3.23985   0.36040
H     2.48088  -2.74612   1.17768
H     2.41512  -2.75940  -0.62082
H     0.80368  -0.81258   1.21333
H     0.24511   0.73468  -2.24629
H    -2.60785   1.64963   0.92800
H    -2.79220  -0.79682   1.45804
H     0.10141  -1.69669  -1.69121
22

C     1.81690  -2.55765   0.28008
C     1.25487  -1.16587   0.25695
O     2.16561  -0.25183  -0.22832
N     1.60401   1.00624  -0.33082
C     1.28919   1.51360   0.87784
N     0.97893   2.05212   1.87061
C    -0.13711   0.42491  -1.25510
C    -1.11066   1.39476  -0.65874
O    -1.13097   2.56789  -1.01302
C    -2.01863   0.89175   0.39220
C    -2.11178  -0.42034   0.67806
C    -1.30818  -1.44301  -0.03842
O    -1.54237  -2.63628   0.11569
C    -0.15729  -0.96643  -0.88250
H     0.97883  -3.23755   0.35946
H     2.48032  -2.74984   1.17914
H     2.41730  -2.75920  -0.61951
H     0.80388  -0.81176   1.21298
H     0.24523   0.73497  -2.24636
H    -2.60696   1.64996   0.92922
H    -2.79186  -0.79667   1.45905
H     0.10077  -1.69715  -1.69149
22

C     1.82165  -2.55837   0.28291
C     1.27569  -1.16471   0.27145
O     2.16598  -0.25475  -0.22824
N     1.62234   1.01235  -0.32393
C     1.29400   1.51336   0.88016
N     0.97594   2.05081   1.87125
C    -0.15369   0.42057  -1.26731
C    -1.11430   1.39369  -0.66091
O    -1.13052   2.56788  -1.01155
C    -2.01937   0.89204   0.39358
C    -2.11341  -0.41993   0.67913
C    -1.31326  -1.44225  -0.04133
O    -1.54124  -2.63612   0.11756
C    -0.17938  -0.96464  -0.90037
H     0.97817  -3.23525   0.35852
H     2.47976  -2.75356   1.18059
H     2.41948  -2.75901  -0.61821
H     0.80408  -0.81094   1.21263
H     0.24534   0.73526  -2.24643
H    -2.60607   1.65029   0.93044
H    -2.79151  -0.79652   1.46006
H     0.10014  -1.69762  -1.69176
22

C     1.82639  -2.55908   0.28574
C     1.29652  -1.16354   0.28594
O     2.16635  -0.25767  -0.22815
N     1.64067   1.01845  -0.31705
C     1.29881   1.51312   0.88247
N     0.97296   2.04950   1.87189
C    -0.17027   0.41623  -1.27951
C    -1.11793   1.39261  -0.66309
O    -1.13007   2.56787  -1.01007
C    -2.02012   0.89234   0.39497
C    -2.11503  -0.41952   0.68021
C    -1.31834  -1.44150  -0.04423
O    -1.54011  -2.63597   0.11942
C    -0.20146  -0.96285  -0.91824
H     0.97752  -3.23295   0.35758
H     2.47920  -2.75728   1.18205
H     2.42166  -2.75881  -0.61691
H     0.80428  -0.81012   1.21229
H     0.24546   0.73554  -2.24649
H    -2.60519   1.65062   0.93167
H    -2.79117  -0.79637   1.46107
H     0.09951  -1.69808  -1.69204
22

C     1.83114  -2.55979   0.28857
C     1.31734  -1.16237   0.30044
O     2.16673  -0.26058  -0.22806
N     1.65900   1.02455  -0.31016
C     1.30362   1.51288   0.88478
N     0.96998   2.04819   1.87253
C    -0.18684   0.41189  -1.29171
C    -1.12157   1.39154  -0.66527
O    -1.12962   2.56786  -1.00859
C    -2.02086   0.89263   0.39636
C    -2.11666  -0.41912   0.68129
C    -1.32342  -1.44074  -0.04714
O    -1.53899  -2.63581   0.12128
C    -0.22355  -0.96106  -0.93611
H     0.97686  -3.23064   0.35664
H     2.47864  -2.76100   1.18351
H     2.42384  -2.75862  -0.61561
H     0.80448  -0.80930   1.21194
H     0.24557   0.73583  -2.24656
H    -2.60430   1.65096   0.93289
H    -2.79083  -0.79622   1.46207
H     0.09887  -1.69854  -1.69232
22

C     1.83588  -2.56050   0.29140
C     1.33816  -1.16120   0.31493
O     2.16710  -0.26350  -0.22797
N     1.67733   1.03066  -0.30328
C     1.30842   1.51264   0.88709
N     0.96700   2.04687   1.87317
C    -0.20342   0.40756  -1.30392
C    -1.12521   1.39046  -0.66744
O    -1.12917   2.56785  -1.00711
C    -2.02160   0.89293   0.39775
C    -2.11829  -0.41871   0.68236
C    -1.32850  -1.43999  -0.05005
O    -1.53786  -2.63566   0.12314
C    -0.24563  -0.95928  -0.95399
H     0.97621  -3.22834   0.35570
H     2.47807  -2.76472   1.18497
H     2.42602  -2.75842  -0.61431
H     0.80469  -0.80848   1.21160
H     0.24568   0.73612  -2.24663
H    -2.60341   1.65129   0.93411
H    -2.79049  -0.79608   1.46308
H     0.09824  -1.69900  -1.69260
22

C     1.84063  -2.56121   0.29423
C     1.35899  -1.16004   0.32943
O     2.16747  -0.26642  -0.22789
N     1.69566   1.03676  -0.29639
C     1.31323   1.51240   0.88941
N     0.96402   2.04556   1.87382
C    -0.22000   0.40322  -1.31612
C    -1.12884   1.38939  -0.66962
O    -1.12872   2.56784  -1.00564
C    -2.02234   0.89323   0.39914
C    -2.11991  -0.41830   0.68344
C    -1.33358  -1.43923  -0.05296
O    -1.53674  -2.63551   0.12501
C    -0.26771  -0.95749  -0.97186
H     0.97555  -3.22604   0.35476
H     2.47751  -2.76844   1.18643
H     2.42820  -2.75823  -0.61301
H     0.80489  -0.80766   1.21125
H     0.24580   0.73641  -2.24669
H    -2.60252   1.65162   0.93533
H    -2.79015  -0.79593   1.46409
H     0.09760  -1.69946  -1.69287
22

C     1.84537  -2.56193   0.29706
C     1.37981  -1.15887   0.34393
O     2.16784  -0.26933  -0.22780
N     1.71399   1.04287  -0.28951
C     1.31804   1.51217   0.89172
N     0.96104   2.04425   1.87446
C    -0.23657   0.39888  -1.32832
C    -1.13248   1.38831  -0.67180
O    -1.12827   2.56782  -1.00416
C    -2.02308   0.89352   0.40053
C    -2.12154  -0.41789   0.68451
C    -1.33866  -1.43848  -0.05587
O    -1.53561  -2.63535   0.12687
C    -0.28980  -0.95570  -0.98973
H     0.97490  -3.22374   0.35382
H     2.47695  -2.77215   1.18789
H     2.43038  -2.75803  -0.61171
H     0.80509  -0.80684   1.21090
H     0.24591   0.73670  -2.24676
H    -2.60164   1.65195   0.93655
H    -2.78980  -0.79578   1.46509
H     0.09697  -1.69992  -1.69315
22

C     1.85012  -2.56264   0.29989
C     1.40063  -1.15770   0.35842
O     2.16821  -0.27225  -0.22771
N     1.73232   1.04897  -0.28262
C     1.32285   1.51193   0.89403
N     0.95805   2.04294   1.87510
C    -0.25315   0.39454  -1.34053
C    -1.13611   1.38724  -0.67397
O    -1.12782   2.56781  -1.00268
C    -2.02382   0.89382   0.40191
C    -2.12317  -0.41748   0.68559
C    -1.34374  -1.43772  -0.05878
O    -1.53448  -2.63520   0.12873
C    -0.31188  -0.95391  -1.00760
H     0.97424  -3.22144   0.35288
H     2.47639  -2.77587   1.18935
H     2.43256  -2.75784  -0.61041
H     0.80529  -0.80602   1.21056
H     0.24603   0.73699  -2.24682
H    -2.60075   1.65229   0.93778
H    -2.78946  -0.79563   1.46610
H     0.09633  -1.70038  -1.69343
22

C     1.85487  -2.56335   0.30272
C     1.42145  -1.15653   0.37292
O     2.16859  -0.27516  -0.22762
N     1.75065   1.05508  -0.27574
C     1.32766   1.51169   0.89635
N     0.95507   2.04163   1.87574
C    -0.26973   0.39020  -1.35273
C    -1.13975   1.38616  -0.67615
O    -1.12737   2.56780  -1.00120
C    -2.02456   0.89411   0.40330
C    -2.12479  -0.41707   0.68667
C    -1.34882  -1.43697  -0.06168
O    -1.53336  -2.63505   0.13060
C    -0.33396  -0.95212  -1.02547
H     0.97359  -3.21914   0.35194
H     2.47583  -2.77959   1.19081
H     2.43474  -2.75764  -0.60910
H     0.80550  -0.80520   1.21021
H     0.24614   0.73727  -2.24689
H    -2.59986   1.65262   0.93900
H    -2.78912  -0.79548   1.46711
H     0.09570  -1.70084  -1.69371
22

C     1.85961  -2.56406   0.30555
C     1.44228  -1.15537   0.38742
O     2.16896  -0.27808  -0.22754
N     1.76898   1.06118  -0.26885
C     1.33247   1.51145   0.89866
N     0.95209   2.04032   1.87638
C    -0.28631   0.38586  -1.36493
C    -1.14339   1.38509  -0.67833
O    -1.12691   2.56779  -0.99973
C    -2.02530   0.89441   0.40469
C    -2.12642  -0.41667   0.68774
C    -1.35390  -1.43621  -0.06459
O    -1.53223  -2.63489   0.13246
C    -0.35605  -0.95033  -1.04335
H     0.97293  -3.21684   0.35100
H     2.47527  -2.78331   1.19227
H     2.43692  -2.75745  -0.60780
H     0.80570  -0.80439   1.20987
H     0.24626   0.73756  -2.24696
H    -2.59897   1.65295   0.94022
H    -2.78878  -0.79534   1.46811
H     0.09506  -1.70131  -1.69398
22

C     1.86436  -2.56477   0.30838
C     1.46310  -1.15420   0.40191
O     2.16933  -0.28100  -0.22745
N     1.78731   1.06729  -0.26197
C     1.33727   1.51121   0.90097
N     0.94911   2.03901   1.87702
C    -0.30288   0.38152  -1.37714
C    -1.14702   1.38401  -0.68050
O    -1.12646   2.56778  -0.99825
C    -2.02604   0.89471   0.40608
C    -2.12804  -0.41626   0.68882
C    -1.35898  -1.43545  -0.06750
O    -1.53111  -2.63474   0.13432
C    -0.37813  -0.94854  -1.06122
H     0.97228  -3.21454   0.35006
H     2.47471  -2.78703   1.19373
H     2.43910  -2.75725  -0.60650
H     0.80590  -0.80357   1.20952
H     0.24637   0.73785  -2.24702
H    -2.59809   1.65328   0.94144
H    -2.78844  -0.79519   1.46912
H     0.09443  -1.70177  -1.69426
22

C     1.86910  -2.56548   0.31121
C     1.48392  -1.15303   0.41641
O     2.16970  -0.28391  -0.22736
N     1.80564   1.07339  -0.25508
C     1.34208   1.51098   0.90328
N     0.94613   2.03770   1.87766
C    -0.31946   0.37718  -1.38934
C    -1.15066   1.38294  -0.68268
O    -1.12601   2.56777  -0.99677
C    -2.02678   0.89500   0.40747
C    -2.12967  -0.41585   0.68989
C    -1.36406  -1.43470  -0.07041
O    -1.52998  -2.63459   0.13618
C    -0.40022  -0.94675  -1.07909
H     0.97162  -3.21223   0.34912
H     2.47415  -2.79075   1.19518
H     2.44129  -2.75706  -0.60520
H     0.80610  -0.80275   1.20917
H     0.24649   0.73814  -2.24709
H    -2.59720   1.65362   0.94266
H    -2.78809  -0.79504   1.47013
H     0.09379  -1.70223  -1.69454
22

C     1.87385  -2.56620   0.31404
C     1.50474  -1.15186   0.43090
O     2.17007  -0.28683  -0.22728
N     1.82397   1.07950  -0.24820
C     1.34689   1.51074   0.90560
N     0.94315   2.03639   1.87831
C    -0.33604   0.37284  -1.40154
C    -1.15429   1.38186  -0.68486
O    -1.12556   2.56776  -0.99529
C    -2.02752   0.89530   0.40886
C    -2.13130  -0.41544   0.69097
C    -1.36914  -1.43394  -0.07332
O    -1.52885  -2.63443   0.13805
C    -0.42230  -0.94496  -1.09696
H     0.97097  -3.20993   0.34818
H     2.47359  -2.79446   1.19664
H     2.44347  -2.75686  -0.60390
H     0.80631  -0.80193   1.20883
H     0.24660   0.73843  -2.24716
H    -2.59631   1.65395   0.94388
H    -2.78775  -0.79489   1.47114
H     0.09316  -1.70269  -1.69481
22

C     1.87860  -2.56691   0.31687
C     1.52557  -1.15070   0.44540
O     2.17045  -0.28975  -0.22719
N     1.84230   1.08560  -0.24132
C     1.35170   1.51050   0.90791
N     0.94016   2.03508   1.87895
C    -0.35261   0.36850  -1.41375
C    -1.15793   1.38079  -0.68703
O    -1.12511   2.56775  -0.99382
C    -2.02826   0.89559   0.41024
C    -2.13292  -0.41503   0.69205
C    -1.37422  -1.43319  -0.07623
O    -1.52773  -2.63428   0.13991
C    -0.44438  -0.94317  -1.11483
H     0.97031  -3.20763   0.34724
H     2.47302  -2.79818   1.19810
H     2.44565  -2.75666  -0.60260
H     0.80651  -0.80111   1.20848
H     0.24671   0.73872  -2.24722
H    -2.59542   1.65428   0.94511
H    -2.78741  -0.79474   1.47214
H     0.09252  -1.70315  -1.69509
22

C     1.88334  -2.56762   0.31970
C     1.54639  -1.14953   0.45990
O     2.17082  -0.29266  -0.22710
N     1.86063   1.09171  -0.23443
C     1.35651   1.51026   0.91022
N     0.93718   2.03377   1.87959
C    -0.36919   0.36416  -1.42595
C    -1.16156   1.37971  -0.68921
O    -1.12466   2.56774  -0.99234
C    -2.02900   0.89589   0.41163
C    -2.13455  -0.41462   0.69312
C    -1.37930  -1.43243  -0.07913
O    -1.52660  -2.63413   0.14177
C    -0.46647  -0.94138  -1.13271
H     0.96966  -3.20533   0.34630
H     2.47246  -2.80190   1.19956
H     2.44783  -2.75647  -0.60130
H     0.80671  -0.80029   1.20814
H     0.24683   0.73901  -2.24729
H    -2.59453   1.65461   0.94633
H    -2.78707  -0.79460   1.47315
H     0.09189  -1.70361  -1.69537
22

C     1.88809  -2.56833   0.32253
C     1.56721  -1.14836   0.47439
O     2.17119  -0.29558  -0.22701
N     1.87896   1.09781  -0.22755
C     1.36131   1.51002   0.91253
N     0.93420   2.03246   1.88023
C    -0.38577   0.35982  -1.43815
C    -1.16520   1.37864  -0.69139
O    -1.12421   2.56773  -0.99086
C    -2.02974   0.89619   0.41302
C    -2.13618  -0.41422   0.69420
C    -1.38438  -1.43168  -0.08204
O    -1.52548  -2.63397   0.14364
C    -0.48855  -0.93959  -1.15058
H     0.96900  -3.20303   0.34537
H     2.47190  -2.80562   1.20102
H     2.45001  -2.75627  -0.60000
H     0.80691  -0.79947   1.20779
H     0.24694   0.73929  -2.24736
H    -2.59365   1.65494   0.94755
H    -2.78673  -0.79445   1.47416
H     0.09125  -1.70407  -1.69565
22

C     1.89283  -2.56904   0.32536
C     1.58803  -1.14719   0.48889
O     2.17156  -0.29850  -0.22693
N     1.89729   1.10392  -0.22066
C     1.36612   1.50979   0.91485
N     0.93122   2.03114   1.88087
C    -0.40235   0.35548  -1.45036
C    -1.16884   1.37756  -0.69356
O    -1.12376   2.56772  -0.98938
C    -2.03049   0.89648   0.41441
C    -2.13780  -0.41381   0.69527
C    -1.38947  -1.43092  -0.08495
O    -1.52435  -2.63382   0.14550
C    -0.51063  -0.93780  -1.16845
H     0.96834  -3.20073   0.34443
H     2.47134  -2.80934   1.20248
H     2.45219  -2.75608  -0.59870
H     0.80712  -0.79865   1.20744
H     0.24706   0.73958  -2.24742
H    -2.59276   1.65528   0.94877
H    -2.78638  -0.79430   1.47516
H     0.09062  -1.70453  -1.69592
22

C     1.89758  -2.56975   0.32819
C     1.60886  -1.14602   0.50339
O     2.17194  -0.30141  -0.22684
N     1.91562   1.11002  -0.21378
C     1.37093   1.50955   0.91716
N     0.92824   2.02983   1.88151
C    -0.41892   0.35115  -1.46256
C    -1.17247   1.37648  -0.69574
O    -1.12331   2.56771  -0.98791
C    -2.03123   0.89678   0.41580
C    -2.13943  -0.41340   0.69635
C    -1.39455  -1.43017  -0.08786
O    -1.52322  -2.63367   0.14736
C    -0.53272  -0.93602  -1.18632
H     0.96769  -3.19843   0.34349
H     2.47078  -2.81306   1.20394
H     2.45437  -2.75588  -0.59739
H     0.80732  -0.79783   1.20710
H     0.24717   0.73987  -2.24749
H    -2.59187   1.65561   0.94999
H    -2.78604  -0.79415   1.47617
H     0.08999  -1.70500  -1.69620
