13

C -0.464863027 2.010981762 -1.943951835
C 0.198269309 0.416223253 0.368127758
C -3.684760019 -0.973184992 2.692687498
N -1.910650004 -1.293540606 1.027301684
C 2.509588438 -1.051854329 -0.032684231
C 4.371518052 -2.280424752 -0.403322055
H -0.813380907 0.803380552 -3.578142125
H 1.083674633 3.289852292 -2.400890673
H -2.160256463 3.117222314 -1.560186707
H 0.461490074 1.644782905 2.005779025
H -3.296621536 0.861869277 3.631527909
H -1.944690188 -2.894472435 -0.023987635
H 6.035705779 -3.368071741 -0.712837235

