16

C -3.252244550 -1.086416872 0.134897060
C -0.497055872 -0.339339311 0.265374901
C 1.369454665 -1.822628205 -0.893340001
O 2.198510435 1.047538705 -3.201587965
C 0.305524722 1.237952536 2.530330846
O 2.818339507 2.096205028 2.341171926
H -3.689198136 -2.056287795 -1.632248068
H -3.769075253 -2.347977510 1.688673532
H -4.471651218 0.573194166 0.255814266
H 0.146354432 1.007647380 -1.722785205
H 0.846254243 -3.255036941 -2.258689292
H 3.292180264 -1.870627740 -0.206591739
H 2.445151422 1.180434904 -5.003595762
H -1.019810621 2.822603882 2.737233124
H 0.201569791 0.133686483 4.277157544
H 3.104675081 2.663597129 0.629809283

