16

C 2.867357472 0.995422798 0.747385095
C 1.712366465 0.500317879 -1.684146580
C -1.338770709 -0.064596678 -0.905894302
C -1.521799132 -2.855703664 -0.152515185
C -1.577800523 1.734493854 1.298318778
O -3.076394536 0.740561048 -2.402228013
H 0.701892943 1.366058619 2.182657295
H 3.756659091 2.804388642 1.121792866
H 3.675930066 -0.572128927 1.798053205
H 2.382191549 -1.201367079 -2.617945315
H 1.700190600 2.107296076 -2.962858203
H -1.405818702 -4.008614158 -1.856357700
H -0.049382134 -3.457248710 1.166216189
H -3.364772770 -3.184828891 0.714863211
H -1.429541190 3.708898228 0.749921107
H -3.072975397 1.390667899 2.677692502

