11

N -2.071797741 1.169389492 -0.079825093
C -0.273607682 2.836803247 0.379975566
C -1.740430655 -1.576189342 0.020304880
N 0.720599474 -2.313355838 -0.900834806
C 2.443979395 -0.730179687 -0.427437776
N 2.017678800 1.626839501 0.647486046
H -3.811630392 1.848370092 -0.422311799
H -1.947404175 -2.226190576 1.979864568
H -3.208378205 -2.478339624 -1.109459852
H 4.386101805 -1.129279129 -0.971196396
H 3.520346288 2.766259449 0.863511297

