13

O 2.888855620 3.556948412 1.744596065
C 1.788039225 1.746879232 0.828081994
C 2.932381720 -0.661858547 0.474396525
O 1.701386797 -2.508641855 -0.787099371
C -0.670338523 -2.564355875 -1.165753848
C -2.241865816 -0.577434371 -0.018623383
C -0.906837653 1.973782144 -0.174074541
H 4.924158063 -1.031876258 0.665283940
H -0.799733532 2.651382223 -2.126687992
H -1.328712642 -4.201086317 -2.196340576
H -2.423245434 -1.081787534 2.001178392
H -4.134524361 -0.567304551 -0.827517457
H -1.898871605 3.403626447 0.922293704

