13

O 2.322135203 3.587754009 2.120072817
C 1.668830047 1.684591913 0.998998689
C 2.937187577 -0.508057045 0.184386398
O 1.527054743 -2.396820543 -0.966538259
C -0.900059564 -1.632859224 -1.310601337
C -2.428451119 -0.799423334 0.828281096
C -1.001546834 1.377777302 -0.361612851
H 4.806744882 -1.101191355 0.739950742
H 1.018607187 1.335581475 -1.746064912
H -1.756610642 -2.304224020 -3.043188703
H -1.826504373 -1.307242027 2.720715840
H -4.446430764 -0.825578296 0.492423284
H -2.024099466 2.989899560 -1.098805179

