14

C 1.918872863 -1.731892325 -0.693014367
C 1.521785185 1.016709713 1.365844343
O 3.058443951 2.791790877 0.844711357
C -0.762149261 1.018242451 -0.099083367
O -0.717346386 2.752149639 -1.835616689
C -3.115777354 -0.449602279 0.273522153
H 0.925817193 -3.435088969 -0.111633246
H 3.915276484 -1.855500841 -0.229146924
H 1.719297168 -1.369776599 -2.706995295
H 1.498691069 0.049920706 3.199374227
H 0.961200576 3.601371357 -1.388494052
H -3.657862773 -1.433728994 -1.455855532
H -4.623585501 0.876518887 0.742507750
H -2.909314910 -1.804400511 1.807138271

