9

C -2.375381468 0.717150970 -0.481693646
C -0.391559719 -0.281903183 -1.773572691
C 1.890521775 -0.937706292 -2.014483028
C 2.895288248 -0.837585427 0.536002353
O 1.866554681 0.391483298 2.276982918
H -2.679516919 2.741536106 -0.666764371
H -0.275747173 0.735516670 1.463793383
H -4.059643170 -0.399741950 -0.129780721
H 4.600376641 -1.878909502 1.049664949

