10

C 1.305803738 1.250621448 0.224328840
C 2.862965919 -0.915673597 -0.447004359
N 1.832853626 -3.084981451 -0.917304147
N 0.853291715 -4.932579495 -1.310304423
C -3.602667898 1.305181923 0.642944959
C -1.156309016 1.286178460 0.437072979
H 2.341679828 2.984794502 0.575710657
H 4.893015263 -0.841024237 -0.583377654
H -4.526010664 0.890477595 2.426969139
H -4.806001992 1.742301163 -0.959585786

