11

C -0.401752165 1.641539643 -1.756670867
H -0.493198487 1.714573230 -3.793340659
C -2.462781339 2.621316832 -0.054230680
H -4.245772349 2.983153332 -0.992026374
H -2.012873567 3.875264727 1.503476895
C -1.696472810 -0.077419944 0.091809717
H -2.933478990 -1.688194506 -0.142109351
O 0.507414765 -0.366332064 1.600918865
C 1.936453628 1.135184372 -0.177363647
H 2.855357050 2.754754815 0.719377237
H 3.339164884 -0.036434827 -1.136560565

