12

O 0.242235280 0.574658118 4.402594560
C 1.259253207 0.354805188 2.423933766
C 3.736836242 -0.696957640 1.476010463
C 3.267931865 -0.879040481 -0.888836613
C 0.409631661 0.772883831 -0.271535049
C -2.069585986 -0.636153359 -1.054663293
N -3.215922842 1.680906437 -0.784067684
H 3.798010097 -1.513320686 -2.745438749
H 0.763121449 2.656991989 -1.002551714
H -2.463282060 -2.166626125 0.275458045
H -1.939099131 -1.305758573 -2.997729753
H -3.695801878 1.921846782 1.069438967

