15

C 1.730559652 -1.619640533 1.573117366
C 2.059333277 1.439993568 -3.202534548
N 0.839794743 2.047687708 -1.168224778
C -0.329520407 0.088371039 0.483983635
C -2.278409813 -1.424367744 -1.018585889
C -1.603539330 1.450662603 2.553610817
N -2.586577278 2.535532015 4.151861427
H 0.896048866 -3.069604239 2.774139928
H 2.719840519 -2.506120866 -0.000015401
H 3.077080336 -0.526669335 2.684680993
H 2.734882550 3.217131586 -4.051360557
H 0.595315961 3.846802183 -0.537892173
H -1.317585708 -2.309012718 -2.609759494
H -3.127096889 -2.873335243 0.173668609
H -3.766850062 -0.194116787 -1.735426509

