15

C 2.169216411 -1.453751511 0.700350322
C 2.583255008 1.337127441 -1.522831678
N 0.050670285 1.747619759 -2.505102133
C -0.584810123 0.443710718 -0.221254804
C -2.537457268 -1.620750842 -0.588060906
C -1.141836813 2.073936419 1.927386873
N -1.687748152 3.331707193 3.610435541
H 1.085996351 -2.096601020 2.351767393
H 2.438751600 -3.026905424 -0.581582811
H 3.963332806 -0.833246181 1.484713143
H 3.039999847 2.868915476 -0.160553985
H -0.475946384 3.585171075 -2.354985181
H -1.944119964 -2.880491428 -2.100464508
H -2.840335579 -2.694140017 1.144492861
H -4.309399503 -0.726798532 -1.148172876

