9

N -2.656445404 -1.000570204 -0.903841266
C -1.381345710 0.607506755 0.212203545
O 1.164847649 0.864250917 0.584540573
C 2.842437503 -0.819869490 -0.399900006
O 2.352664919 -2.616289140 -1.653949664
C -2.645628158 3.403546058 0.967408950
N -2.837393238 2.127954637 2.798051143
H -1.573529968 -2.329027072 -1.775122361
H 4.741080111 -0.223146231 0.170225471

