11

C 2.139755486 -0.008774244 -0.355056125
C -0.587943346 -0.502684402 -1.234800246
N -1.926199521 -2.686887210 -0.316221686
C 0.035606541 1.672346979 0.351561662
N -0.825868010 3.487458534 1.605715538
H 3.497907226 0.583634166 -1.768680209
H 0.587897879 4.384692504 2.561969832
H 2.910321719 -1.232901298 1.100837939
H -0.911559720 -0.140271744 -3.228464633
H -3.804748992 -2.325921723 -0.268295662
H -1.400206084 -3.088193003 1.478747183

