11

C 2.183228295 0.140822013 -0.000221344
C -0.552929518 -0.258802830 -1.048358827
N -1.858172385 -2.516450619 -0.311123697
C -0.698322532 2.060294505 0.371467981
N -0.809922595 3.953014561 1.656790300
H 3.609453375 0.305768591 -1.463043880
H 1.385580605 2.859535272 1.509868270
H 2.615864745 -1.228356487 1.468609974
H -0.662635678 0.050737597 -3.078756655
H -3.726477538 -2.422850632 -0.700995663
H -1.645463943 -2.865764566 1.554987031

