10

N 3.686958999 -0.910409538 -0.044805085
C 1.450407471 -1.276610606 0.943937569
O -0.527919144 -1.418492604 -1.008347750
C -1.318731014 0.905841692 -0.854034170
C -3.883863151 1.437794947 -1.504981363
N -5.951701046 1.925818287 -1.957875204
H 5.056524685 -1.039080895 1.293452809
H 0.918879952 -2.890708743 2.146434950
H 0.034982024 2.449672932 -0.843192698
H 0.521535516 0.418048936 2.158920578

