19

C -1.998553714 -2.665014783 0.709346760
C -0.789285293 -0.737698472 -1.091887629
C -2.616498257 1.378319257 -1.869320163
C 0.237233837 2.413645871 3.567625818
O 1.871697211 1.584655466 1.892277066
C 1.679597953 0.258140803 -0.129814169
C 4.097168274 -0.196292448 -1.499937249
H -3.749969271 -3.394178704 -0.101930977
H -0.728136515 -4.258274929 1.025268698
H -2.449660536 -1.856823461 2.549981485
H -0.310549881 -1.768732649 -2.819203169
H -3.089604269 2.630331109 -0.302603092
H -4.375559136 0.572465298 -2.585847277
H -1.736535892 1.951561686 3.425405994
H 1.079454799 3.454459229 5.095315982
H -1.790470792 2.536965354 -3.361825535
H 4.475545169 -2.219864718 -1.721124098
H 4.054651874 0.614537273 -3.405976699
H 5.672543919 0.648292714 -0.479417962

