10

C -3.587183142 -0.326349012 1.123599520
C -0.957917933 -0.894410172 2.149686658
C 1.328500709 -0.100298707 0.695418042
O 0.604442299 1.058697424 -1.373564384
H 2.094112931 1.560351680 -2.289256973
H -0.676748512 -2.923250507 2.476189154
H -0.670878890 -0.076053124 4.034078331
H -3.875282113 1.699936073 0.877400520
H -3.885583104 -1.218582276 -0.710663427
H -5.034367269 -1.023094398 2.415921006

