14

O 2.312720247 2.230504273 2.382283277
C 2.921476451 2.271921287 -0.022620815
C 0.761067638 1.713322137 -1.675062024
C -0.121685399 -0.922192112 -2.103714402
C -0.391181509 -2.436164131 0.323061701
C -2.246576110 -0.357396211 1.162296008
N -1.920659581 1.069568073 -1.260294333
H 3.821780716 2.568553883 3.339866237
H 0.942682337 2.742196829 -3.440445549
H -0.143758194 -1.702384988 -3.996862897
H 1.319035600 -2.706090910 1.437745361
H -1.292743160 -4.260823167 0.028265106
H -1.815202923 0.712135334 2.860088301
H -4.192266058 -1.022377927 1.246698660

