11

O -4.420049714 0.098831920 -0.234250318
C -2.168012390 0.044590563 -0.175238499
C -0.122894824 2.080658969 -0.209279590
C 1.848514013 -0.028291449 0.293026886
C -0.229992236 -2.080701563 0.058324696
H 0.032393269 2.995232102 -2.051780250
H -0.341840155 3.538490304 1.230394387
H 2.686076858 0.070482306 2.169443518
H 3.359199590 -0.159890257 -1.095627983
H -0.515666613 -3.333229216 1.669259261
H -0.127727798 -3.226173661 -1.654272126

