11

O -3.845095571 -0.025490100 0.889002682
C -1.733160274 0.001885890 0.075715676
C -0.021797726 2.246562428 -0.354990325
C 2.410154073 1.001936646 0.555679050
C -0.126236766 -2.310230401 -0.364290744
H 0.075103537 2.797792704 -2.341627860
H -0.619825728 3.853745358 0.789638615
H 2.164744827 0.674356005 2.605420966
H 2.005807106 -1.660901758 -0.186107372
H -0.546402952 -3.892097973 0.879986232
H -0.129235951 -2.885403677 -2.347607596

