12

O 2.451071651 0.376859539 3.193617346
C 2.057968838 1.902523255 1.562853394
O 1.749365658 -2.698082742 -2.423768264
C -0.178452564 -2.881211206 -1.243989171
C -1.578033072 -0.682186010 -0.102519645
C -0.121622528 1.776897116 -0.262246535
H 3.313091595 3.564919749 1.336661359
H -1.076330402 -4.752801175 -0.959418564
H -3.393050330 -0.551034651 -1.089796477
H -2.021829640 -1.166139617 1.856794113
H 0.632563559 2.078801652 -2.162371048
H -1.338901289 3.401919778 0.141487933

