12

O 3.657209627 0.509004686 2.675802965
C 2.754881729 0.658201228 0.637894949
O 2.214034591 -2.113486025 -1.122763146
C 0.030070399 -1.815545096 -0.042358343
C -2.214344752 -0.690956474 -1.172554065
C -0.878537077 1.399140391 0.343888033
H 3.313958791 1.675147288 -1.048763512
H -0.226869199 -2.580676816 1.862929203
H -2.150572014 -0.427057071 -3.202838605
H -4.032376293 -1.303091130 -0.453981190
H -0.552983866 3.092077940 -0.752038716
H -1.606367210 1.754728985 2.221866297

