10

O -0.330038797 4.269503417 -0.323889609
C -0.284503219 2.020931775 -0.243246359
C -2.205413736 -0.023108875 0.469689879
C -0.019628925 -1.707109398 1.352072076
O 1.604898969 -1.637283659 -1.939861711
C 1.840106792 0.113777916 0.122347710
H -3.408368676 -0.843912400 -0.983293251
H -3.401346341 0.547994158 2.058382405
H 2.478782916 -3.168591344 -1.459135001
H 3.767599018 0.571315532 0.664589882

