10

O -0.462491345 4.285695062 -0.270791026
C -0.251504538 2.050257868 -0.181860666
C -2.072176876 -0.145866845 0.362591219
C 0.243316846 -1.774539532 0.990068467
O 1.720877092 -1.464322979 -1.963757204
C 1.999543231 0.278320621 0.078407156
H -3.298943348 -0.845917569 -1.130869183
H -3.203496419 0.249752101 2.045947875
H 1.448895293 -3.227467500 -0.844437517
H 3.918071843 0.737602153 0.632358770

