14

C 3.765509774 1.704228454 0.660087723
C 1.695062980 -0.062191265 -0.194708347
O -0.438263110 0.329556350 1.379959274
C -2.473738273 -1.227757066 0.846458201
C -3.978110180 -0.555396763 -1.488454328
O -3.507314245 1.137768932 -2.913547065
H 3.154537904 3.663659224 0.476572223
H 4.252506426 1.352571020 2.632050873
H 5.453710818 1.435611199 -0.493059649
H 2.304824896 -2.042943059 -0.033842595
H -3.783297048 -1.138623674 2.448927454
H -1.917373611 -3.230296949 0.659621584
H -5.639441417 -1.807561418 -1.799814524
H 1.196810155 0.299668271 -2.169464229

