14

C 3.143939224 1.414163676 0.105016540
C 1.178074314 -0.661843958 0.009604911
O -0.084686130 -0.976785318 2.334339904
C -2.633369902 -1.031015072 1.477809142
C -2.113430316 -0.459584209 -1.316745044
O -2.561661183 1.815319368 -2.280171718
H 2.277454405 3.252265563 0.467603791
H 4.444038295 1.003165989 1.654307597
H 4.219708302 1.503675713 -1.651150393
H 1.935679218 -2.429788100 -0.742596491
H -3.753221244 0.460430032 2.359942972
H -3.509663156 -2.876587896 1.794798038
H -2.245621666 -2.090703676 -2.599692960
H -0.255069015 1.013086333 -1.608334415

