14

C -3.866268157 -0.056830414 -0.330890005
C -1.455502286 -1.322984315 0.600484079
C 0.907323842 -0.145353689 -0.362456274
C 4.730066712 -0.192820681 0.706289580
O 2.998890782 -1.630165419 -0.385881810
C 1.069298769 2.316939363 -1.350539867
N 0.985498807 4.316452226 -2.235685581
H -3.950543177 1.918651236 0.252669384
H -5.518389038 -1.017773798 0.437950398
H -3.987024718 -0.107801260 -2.387869118
H -1.429379241 -1.349626487 2.676500992
H -1.388927121 -3.312990797 0.025337920
H 6.597984660 -0.187596438 -0.123401327
H 4.257362966 0.773858230 2.435983775

