17

C 4.756035309 -1.548136793 -1.108933903
O 2.979997357 0.152294446 -0.060917400
C -1.605492059 0.370684708 0.469071560
C -1.658865540 3.001490856 -0.606467537
C -3.743166295 -0.297645168 2.223219246
C 0.773006644 -1.005418826 0.627191975
O -0.963616629 -1.591792338 -1.307453488
H 5.207032508 -3.066069998 0.227212430
H 6.461705870 -0.470588254 -1.506180602
H 4.037172947 -2.375445548 -2.860864808
H -0.061716206 3.314528127 -1.860431779
H -1.588822804 4.394107668 0.914651141
H -3.408680141 3.288704869 -1.662361496
H -3.796770663 0.995377010 3.830180832
H -5.544548460 -0.157380398 1.225795568
H -3.547470982 -2.222649645 2.929251710
H 1.028975433 -2.513283098 2.014934332

