11

C 2.898256630 0.911277413 -3.321149236
C 1.477785350 0.892665803 -1.246893151
C 0.230804346 -1.320753267 -0.109472855
H 0.302204699 -3.248592956 -0.797565827
N -1.010225401 -0.674932617 1.869227623
C -0.555313936 1.949774534 1.997531542
O -1.619163755 3.180950814 3.886249101
H -1.149677173 4.934006371 3.728461259
N 0.846722630 2.955447472 0.282215441
H 3.726821827 2.644355995 -4.021798891
H 3.242961629 -0.821371463 -4.352338692

