10

C -4.877012930 0.703292418 -0.283823050
C -2.059917958 1.025893007 0.272868742
C -0.513814171 -0.966997462 -0.851078355
C 0.719245826 -2.616437861 -1.789939703
H 1.820701176 -4.078962842 -2.621433617
H -1.737693293 1.042025353 2.313304588
H -1.400872458 2.850524170 -0.436839088
H -5.958705071 2.228235638 0.584838129
H -5.229953148 0.730150566 -2.313955939
H -5.570776763 -1.089541628 0.458415659

