12

O 0.972327586 4.258786799 1.065808747
C 0.302437741 1.983423621 0.409785995
N 2.008610798 0.327007090 -0.259001743
C 0.831053494 -2.096993969 -0.895716048
C -1.917524374 -1.558354258 -0.266074648
O -2.299411246 -0.937868657 2.258980990
C -2.347368111 1.166229700 0.322660078
H 3.887071831 0.630605860 -0.169520339
H 1.652945104 -3.622090389 0.226289015
H 1.092243181 -2.501362290 -2.902388611
H -3.356561589 -2.700314792 -1.179449997
H -0.604507249 5.124781801 1.432802688

