12

O 1.854084378 4.351593176 1.109844713
C 0.996968443 2.304173677 0.589006676
N 2.307527658 0.244385619 -0.230023530
C 0.794335322 -1.937720009 -0.897415327
C -1.849481232 -1.115894388 -0.179839396
O -2.096984521 -0.547365314 2.417849359
C -1.743606642 1.494652271 0.699764186
H 4.205379378 0.240192146 -0.211473827
H 1.362102156 -3.623540452 0.152487047
H 0.898044946 -2.345828702 -2.921554704
H -3.485845312 -1.942926772 -1.089848898
H -3.242524554 2.878278767 0.561203702

