10

O 3.937598364 -1.705012823 -0.962336169
C 1.832302318 -0.943733138 -0.897975575
C -0.737852617 -2.047829097 -0.101517183
H -1.280693133 -3.677918379 -1.237560606
H -0.787400820 -2.576895380 1.888493570
C -2.062681362 0.460911893 -0.777255693
H -2.924762741 1.467763207 0.799118313
H -3.416102475 0.365390546 -2.326877206
C 0.477929425 1.621368366 -1.588903306
O 1.134434302 3.606185094 -2.392303965

