8

C 2.708561897 -2.791830599 -0.165388755
C 2.004043973 -5.123789430 -0.634046163
H 1.415008894 -6.361463666 0.880896721
H 2.015140766 -5.820392482 -2.551635789
C 3.585828510 -0.297925452 -0.728410808
H 5.581766862 0.045421249 -1.047655849
H 2.285974613 1.111972715 -1.453498798
O 2.977366084 -1.210369224 1.806905740

