17

C -4.331686858 -0.382689288 0.349769446
C -1.718822658 0.132013905 -0.693222728
C 0.067531083 1.872699333 0.847760355
C 2.178012632 0.023285035 0.243721059
C 4.677556325 0.530279808 -0.780820246
O 4.340561522 -0.380086984 1.730850594
C 0.289059481 -1.997615994 -0.522811705
H -4.221232460 -1.071778335 2.294187930
H -5.485244111 1.329416282 0.350722700
H -5.318141753 -1.809282165 -0.769828333
H -1.848896116 0.813822536 -2.637707579
H 0.287050759 3.829217412 0.242207690
H -0.384852476 1.827795189 2.862343689
H 5.533869864 -0.804561461 -2.086178727
H 5.345999604 2.467117448 -0.925511133
H -0.094613901 -3.273595809 1.054794062
H 0.683849063 -3.106036874 -2.213447208

