15

O 4.254474160 -3.595352825 -3.123173610
C 3.458820074 -2.661401608 -1.310997386
C -3.202921715 -0.650106340 0.795273060
C -1.331856428 1.490465583 0.733057796
C 0.161640521 2.035830848 -1.609591707
C 1.480035277 1.015463589 0.691880380
C 2.522225943 -1.600253474 0.719850217
H -2.512918003 -2.275039675 -0.269813906
H -3.558083740 -1.271906265 2.731695943
H -5.005073245 -0.069040256 -0.024684585
H -1.886896997 3.135508325 1.823322887
H -0.095863482 0.764102633 -3.194817209
H 0.515501432 3.978344563 -2.138670915
H 2.605001692 2.374314717 1.736217624
H 2.600432845 -2.703340527 2.441745871

