12

O -2.737382620 -2.381426721 -0.156181877
C -1.463058469 -1.595321988 1.894985232
C -0.881069574 0.933859357 1.993909882
C 1.730660771 1.332260811 0.876647974
C 0.487050849 0.895121502 -1.668680551
C -0.837353179 -1.404191081 -2.097989477
N 0.506029728 -2.401704975 -3.657788506
H -0.248778740 -3.021476524 2.758283652
H -2.314849042 2.234535909 1.293902224
H 3.056916637 -0.157617067 1.389880790
H 2.595770399 3.189125014 1.041536349
H 0.231599618 2.428831578 -2.999654156

