15

C 3.225725380 -0.740183330 -1.645737878
C 0.830638189 -1.032711724 -0.054825944
C -0.798140644 1.365992252 -0.123104224
N -3.033169394 1.179680317 1.482828897
C -3.500663600 2.306941616 3.622055751
C -0.663890853 -3.202816533 -0.916692008
N -1.876573687 -4.855200747 -1.623547769
H 2.757216618 -0.357470628 -3.616589000
H 4.357156813 0.824833026 -0.925978481
H 4.365335567 -2.452887772 -1.578523192
H 1.342759449 -1.403248883 1.913490697
H -1.374275299 1.756078325 -2.068847557
H 0.320755120 2.957688120 0.554862500
H -4.366517780 -0.030262509 0.827178081
H -1.840463572 3.527121787 4.018855151

