15

C 2.263437097 -0.963767750 -2.039216217
C 1.104504461 -0.121815941 0.435556342
C -0.447968781 2.376413636 0.186724651
N -3.040879268 1.495974097 0.166591679
C -2.918453267 -0.505626120 1.891857433
C -0.859958386 -2.453827439 1.333717355
N -0.121960165 -4.563734454 1.518623277
H 0.830458665 -1.187111098 -3.507699806
H 3.585214463 0.503164053 -2.655907078
H 3.267327493 -2.744541772 -1.833886267
H 2.517529615 -0.059321602 1.930549973
H 0.035479419 3.476677665 -1.496746125
H -0.134350249 3.563057915 1.847928350
H -3.536839439 0.866143799 -1.571613333
H -2.661443560 0.187294649 3.822829419

