16

C 3.322559256 2.135530984 1.402896600
C 1.227048457 1.090409069 -0.291436586
C -0.963288157 -0.046383195 1.238790308
C -3.094450113 -0.981075544 -0.458821572
C -3.105130618 -3.382486912 -1.752296378
C 2.239030849 -0.811522778 -2.036376412
N 3.007428678 -2.336905019 -3.373007101
H 4.850533143 2.945149296 0.284956035
H 4.111362744 0.645806533 2.589448661
H 2.559474864 3.607891082 2.626765290
H -1.649471844 1.416013132 2.527347989
H -0.246916869 -1.603939517 2.392274901
H -4.668581940 -1.846581995 0.707587387
H -4.032201247 0.550897382 -1.483179857
H -1.783006147 -4.634089582 -0.717182642
H 0.484290866 2.621403532 -1.468702230

