16

C 2.941233367 2.322677781 0.607603206
C 1.059352441 0.272165122 -0.113097614
C -1.109905581 -0.195864103 1.761916312
C -3.135595271 -1.304302332 0.028233491
C -2.553603126 0.176959831 -2.356303057
C 2.308962999 -2.047162798 -0.903078818
N 3.314127902 -3.875183753 -1.500217212
H 4.368641567 2.595324669 -0.850603372
H 3.894060378 1.794684598 2.361249831
H 1.946489812 4.101016531 0.911052460
H -1.719607782 1.643892673 2.465690610
H -0.569634092 -1.374841348 3.362524601
H -2.912129865 -3.354193611 -0.129906822
H -5.050926051 -0.900668793 0.683001578
H -1.964470538 -1.116603961 -3.878967268
H -0.080367690 1.195000969 -1.829522871

