12

O -2.990658890 0.571892239 -2.368599373
C -1.688499621 -0.951280327 -1.177329403
C -1.321980341 -1.068102837 1.550607345
C 1.592230698 2.126438435 0.525692971
C 2.456969524 0.282318601 -1.036382612
O 0.996756359 -1.433950526 -2.089747002
H -2.568699997 -3.016793934 -0.872993868
H 0.027079851 -2.410613389 2.300485555
H -2.888471930 -0.496009247 2.751294065
H -0.290696116 2.915692604 0.239472557
H 2.932516250 3.241906652 1.589154867
H 4.453484809 -0.027726648 -1.400936557

