10

N -2.388451588 2.063617324 0.935661816
C -0.729681498 0.357811195 0.205816195
O -1.005007149 -0.673015471 -2.044246838
C 1.543397700 -0.563928574 1.221903337
C 1.574130864 -1.598961109 -2.252419540
N 2.911228901 -2.584167367 -3.707290487
H -3.652998882 2.764774068 -0.298512666
H -2.391719246 2.695081403 2.722433374
H 2.694188356 0.608959368 2.445446012
H 1.457276984 -2.540045947 1.771675160

