15

C -2.847190183 -1.651415560 -2.455742922
C -1.330078366 0.477445182 -1.270497342
C -0.932784254 0.267390143 1.587139833
C 1.471146289 0.522438087 -1.930463499
C 2.259508677 1.091932661 0.459927818
C 4.568921091 0.639421999 1.893288013
O 4.676833051 0.472059671 4.163093392
H -4.787715415 -1.685386448 -1.753182263
H -2.886485526 -1.408432609 -4.500351283
H -1.977585936 -3.480466906 -2.062089972
H -2.171852427 2.299335355 -1.768310749
H -0.563118165 -1.621908639 2.289231292
H 0.825357217 2.163907584 1.839122377
H -2.096305051 1.314647524 2.940801168
H 6.246561344 0.432367561 0.663008011

