11

O 4.170734103 1.266520659 1.866940298
C 2.177695064 0.598621602 0.971072468
C 1.076660669 -1.995300096 0.860594335
C -1.149163168 -1.904164426 -0.288543737
C -1.759796833 0.755361383 -1.058901533
N 0.423682361 2.113048780 -0.181600526
H -2.007656335 0.904357841 -3.109425153
H 2.034540732 -3.621474962 1.633420756
H -2.414589543 -3.464472831 -0.660679925
H -3.507398206 1.413691868 -0.164454909
H 0.692589028 3.978494626 -0.379730959

