16

N 2.090259533 0.484731229 1.036508335
C 2.099286018 -2.212580447 1.740993624
O 2.371462346 -2.693037570 3.979477832
C 1.438205452 -3.731308471 -0.305751942
C -1.760624514 -0.212149669 0.036140974
C -2.058016894 2.160536539 -1.420153900
O -1.218018986 4.283808058 -0.072946735
H 2.274702964 1.609464150 2.569350724
H 3.328918675 0.975298764 -0.332698152
H 1.701365821 -3.047332815 -2.215461732
H 1.255356932 -5.746979834 -0.024634772
H -2.559713329 -1.823602340 -0.916167855
H -2.180384427 -0.146503550 2.037605339
H -1.127990714 1.983749845 -3.265055797
H -4.109051344 2.277070602 -1.789845652
H -1.624664899 5.776296894 -1.013813424

