11

C -2.821367548 0.623115231 -1.256908737
N -1.447213380 1.902484970 0.501459104
C -0.378381298 -0.168245699 1.508239269
O 2.167332713 -0.124167838 2.203159596
C 3.849521706 -0.052394376 0.293930534
O 3.370019425 -0.355728471 -1.885410878
H -4.769579638 1.183172890 -1.661985422
H -1.762341727 -1.695828565 -0.261202272
H -1.787135010 -0.104910130 -2.878033820
H -1.427803323 -1.221497235 2.919376134
H 5.746341201 0.265914834 1.068014378

