8

C 3.527882270 3.338231283 -1.528337641
C 1.954686783 1.685195038 -0.482584104
C -0.713055423 2.059113559 -0.303233372
C -2.955405009 2.334945864 -0.128885633
H -4.944428929 2.592731247 0.021974850
H 2.673080285 -0.069607514 0.299210731
H 2.851506166 5.100178134 -2.319546524
H 5.536703206 2.962633023 -1.616416056

