13

O 0.649006992 3.900535166 1.670800578
C 0.932427323 2.024015959 0.210577738
N 2.498203783 0.000023603 0.331237091
C 1.039294094 -2.150064414 -0.742294040
C -1.504857434 -0.909822646 -1.444612285
C -2.666690762 0.711091601 0.676246808
N -0.928111472 1.714886793 -1.562437087
H 3.415886990 -0.262157869 1.979805892
H 0.895054946 -3.658978316 0.655465396
H 1.954441402 -2.893933447 -2.433943495
H -2.583878920 -1.704796619 -2.989716086
H -1.838240536 3.283093384 1.526871289
H -1.473494727 0.077044059 2.265245111

