12

N -3.642525567 -1.064610660 1.433661020
C -1.267669329 -0.455985963 0.891718200
N 0.637392679 -1.009600015 2.538725010
C 2.813222885 -0.207298043 1.579624335
O 3.589205791 0.146459727 -2.933661159
C 2.202597270 1.124166267 -0.922894769
N -0.514743274 0.669314651 -1.210871003
H -3.933896485 -1.959028901 3.082736778
H -5.070519865 -0.863850673 0.206666383
H 4.774567286 -1.025418629 -2.199211240
H 2.513295476 3.167067393 -0.755250853
H -1.635780212 1.380256377 -2.565659692

