12

C -1.967246035 -1.375391939 1.187524721
C -0.608970971 0.544404604 -0.915447982
C 1.765808638 -0.494821724 -0.102637300
O -0.966052864 2.910632749 -0.417214150
H -3.933201425 -1.003287876 0.719147598
H -1.608986012 -3.389527880 0.979308215
H -1.599024717 -0.724970675 3.100255200
H -1.244742983 -0.203902243 -2.756645845
H 2.499242055 -2.264708694 -0.844293917
H 3.229394964 2.524894218 -1.391565538
H 2.518105225 0.162727529 1.683340706
H 1.903088548 3.358849934 -1.166129753

