13

C -2.955970869 -0.390190197 -0.819895322
C -0.894206837 -1.252822186 1.029139877
C 0.744457682 0.922779572 1.872444617
C 3.183111338 1.107247266 1.368409193
H 4.183336271 -0.358195357 0.341135476
H 4.273225799 2.730086822 1.971552702
H -0.216688413 2.407231460 2.916202433
C -2.048339531 -2.489691795 3.230823389
N -2.976756893 -3.433888955 4.947437902
H 0.299231442 -2.665473117 0.107439264
H -2.076954936 0.435195914 -2.489546966
H -4.166925133 1.030835453 0.053485939
H -4.135994228 -1.976259745 -1.398288163

