16

C -3.791491902 -0.659813845 -0.535985232
C -1.161104668 -1.204491665 0.537670112
C 0.588255642 1.060387293 0.337880593
C 3.242623198 0.705593273 0.337789414
O 3.569078658 1.094593905 -3.068552059
C -1.370243399 -2.086949489 3.169541498
N -1.511232558 -2.751381938 5.230105970
H -3.627011841 -0.188978565 -2.535398412
H -4.655112501 0.939942291 0.436565644
H -5.038931354 -2.286765218 -0.333016741
H -0.335794525 -2.778201025 -0.523069596
H 1.472364784 1.470269550 -2.239884779
H -0.113213039 2.791648676 1.188028598
H 4.061291295 -1.169632832 0.441575894
H 4.472450176 2.201364072 1.004392931
H 4.468650598 2.593715360 -3.592763503

