16

C 3.591597107 0.395053426 0.059782941
C 0.765146404 0.840456280 0.268295057
C -0.793179697 -0.053291014 -1.992960049
C -3.432834602 -0.281274169 -0.865600068
O -3.097943385 -0.830620406 1.746653675
C -0.510299148 -0.618534327 2.402399695
H 4.399677730 1.446019772 -1.520833878
H 4.575775600 0.988982385 1.774085128
H 3.996485877 -1.608490620 -0.241683575
H 0.406485381 2.859175714 0.556370501
H -0.718345957 1.235616324 -3.599308494
H -0.108203942 -1.899699249 -2.624253731
H -4.552908043 -1.784941926 -1.730408757
H -4.485134547 1.493824552 -1.048494207
H -0.368071122 0.327556509 4.232197672
H 0.331752306 -2.509833271 2.583758109

