9

N -1.635702600 -1.237191222 0.063529720
C -1.252408468 1.267958986 -0.132914076
C 1.283520239 1.709921821 0.061822315
C 2.493910514 -0.638269965 0.606099173
N 0.575898345 -2.437066078 0.617937759
H -3.281853005 -2.181913688 0.115280909
H -2.826230985 2.542768173 -0.383582051
H 2.201522167 3.521030066 -0.095249774
H 2.240025639 -2.696301580 -0.876073120

