11

O -0.233061491 1.501643048 -1.007965591
C 1.733821376 0.722878371 0.795846252
H 3.691329104 1.103150207 0.293719791
C 0.126220250 1.838402750 2.947464872
H -0.114754035 3.880019770 2.894417935
H 0.403288493 1.094238391 4.848374206
C -1.579373134 0.340398049 1.130281005
H -3.631665953 0.257225741 1.029438416
C 0.363327513 -1.823778689 1.107874390
H 0.331671048 -3.012133681 -0.570103764
H 0.658527414 -2.876025646 2.854009184

