14

C -3.018186832 -1.386746887 0.943092540
C -2.793804551 0.936317475 -0.516329283
C -0.306378538 2.198939818 -0.389328992
N 1.854975176 1.133830062 0.939603709
C 3.129718752 -1.018894330 0.275037241
O 4.507373996 -2.150340050 1.672838440
O 2.747319348 -1.828170583 -2.122010372
H -1.714751148 -1.700555714 2.522325230
H -2.453344406 -2.746740922 -0.550141888
H -4.959519129 -1.879130090 1.415804866
H 1.880814271 -0.589859831 -3.128697015
H -0.804558400 4.003653949 0.514634274
H 0.226438701 2.829235328 -2.293293428
H 2.133732286 1.610989367 2.757070335

