19

C 4.325701793 0.824938548 -1.461565907
C 1.760525228 -0.483556897 -1.501196714
C 0.480205789 -0.447217029 1.064996543
C -0.472646336 2.077543169 2.173746103
C -2.845324343 0.870080930 3.150091625
C -4.002205039 -1.319833726 -0.908536252
C -2.290641367 -1.352102481 1.419252387
H 5.219551283 0.793397054 -3.319466813
H 5.608054143 -0.094133891 -0.129555371
H 4.143048595 2.800564611 -0.888731790
H 0.543255934 0.432595878 -2.900649779
H 1.984741630 -2.444519328 -2.123011605
H 1.691116098 -1.402942407 2.439049213
H -1.158900908 3.309687348 0.638481671
H 0.640181631 3.269903322 3.435961229
H -3.928398232 0.484535095 -1.905195649
H -5.958684454 -1.648767392 -0.351405571
H -3.439691378 -2.797403288 -2.231569965
H -2.553304190 -3.164333451 2.382702040

