12

C 2.713392055 -0.295700924 -1.108852078
C 0.742260384 -1.776864499 -0.537762311
C 0.391661745 1.019657175 2.512007608
C -2.069038060 1.051360657 1.113654855
O -2.100339597 1.715279289 -1.533898764
C -1.925494880 -0.860859464 -0.835933334
H 2.446238412 1.443155363 -2.149921211
H 4.613720243 -0.843124800 -0.590280049
H 1.007360954 -3.577064679 0.402018767
H 1.505317564 2.724296096 2.083101421
H -3.769168397 1.505719660 2.170239206
H -3.427414735 -2.115555691 -1.436613320

