11

N 2.672143000 -0.031517892 -0.704674110
C 2.536070606 -2.111427452 0.795213194
C 0.866280256 1.909004770 -0.681168884
C -1.472504907 1.350166929 0.008487648
C -1.974666007 -1.374328174 0.484046619
O 0.231684372 -2.590475689 1.593611313
H 4.432197554 0.398770574 -1.268688477
H 1.547750740 3.798125464 -1.064506650
H -2.911429363 2.773166001 0.276382461
H -2.389704836 -2.401898086 -1.264852541
H -3.508222636 -1.694687435 1.815200353

