11

N 2.843487057 -0.016719163 1.059567775
C 2.119513968 -1.365339522 -0.970733583
C 0.915974384 1.525122876 -1.016841105
C -1.460801304 1.224598805 -0.223074912
C -1.922790228 -1.440202175 0.676637963
O 0.071613288 -2.908594207 -0.331910684
H 4.403549363 0.995704972 0.556682911
H 1.762366180 3.127547419 -1.941395545
H -2.952262962 2.607816591 -0.426690124
H -3.659725948 -2.203811249 -0.136766396
H -2.091325018 -1.521229096 2.743574648

