16

C 3.325830088 2.153361098 -1.249514522
C -0.389836327 -2.541163834 1.785618864
C -0.917779130 -0.303649244 2.782911092
C -0.648291372 -2.527461278 -1.045518512
C -0.736172651 0.324524803 -1.691961127
C -1.642093579 1.579268027 0.777334023
N 1.755207104 1.034683389 -2.636514879
H 5.187252462 2.577644467 -2.017797362
H 2.970910118 2.732523586 0.704345959
H 0.116845054 -4.214026972 2.850299557
H -0.913835460 0.126572779 4.784349926
H 0.911499664 -3.456042801 -2.025636607
H -2.389677586 -3.481477928 -1.626803880
H -2.043861938 0.688436373 -3.242395562
H -0.849553327 3.463782684 1.062945264
H -3.696743755 1.822073457 0.729140243

