12

C -4.366754090 -0.001559364 0.519677897
C -2.053643671 1.632461512 0.400908685
C 0.258000906 0.797153376 0.218999831
C 2.537160184 -0.036760275 0.086456728
C 4.936202138 -0.897584042 1.000665201
O 4.313505746 -0.688366151 -1.664644833
H -5.650282568 0.448216921 -1.034079773
H -3.876914780 -1.997463795 0.412573776
H -5.399710269 0.333059146 2.276615556
H -2.356109493 3.666495741 0.467156209
H 5.140515925 -2.820968627 1.683408888
H 6.323739668 0.461070309 1.660875548

