12

C -4.983268016 -0.326360048 0.734632826
C -2.291423865 0.146020820 0.404488280
C -0.074774724 0.515087828 0.120236716
C 2.584277671 1.021893515 -0.230245781
C 4.524026924 -0.492576333 1.036915590
O 4.030741037 -0.802912770 -1.569193501
H -5.820129621 -1.006010423 -1.022708025
H -5.307990541 -1.745784968 2.193854943
H -5.962113872 1.401677065 1.287605751
H 3.041247066 2.966020111 -0.708908627
H 3.931940940 -2.048211502 2.236411953
H 6.327467001 0.371156686 1.501855718

