12

C -3.932824878 0.528945529 0.509250331
C -1.437731736 -0.747226868 0.746238428
C -0.169832200 -2.888039221 0.556033109
C 1.631053799 -0.822333466 0.229467950
C 4.139265042 0.107033785 0.831262309
O 3.211922500 -0.254086546 -1.731456308
H -4.090480552 1.530098355 -1.285975163
H -5.350840440 -0.966244784 0.549631284
H -4.297259128 1.849385215 2.048275998
H 0.166679003 1.145632309 0.818306894
H 5.565914063 -1.243459783 1.417733010
H 4.451219613 2.063590849 1.359716339

