15

C -4.041541786 1.009730463 0.620222306
C -3.314159366 -1.408420553 -0.775209687
C -0.978328959 -2.759159295 0.073969266
O -0.450738817 -2.341327280 2.621936889
C 1.508408476 -1.425703686 1.171112715
C 3.349451230 -0.071147319 0.846824222
C 5.634146442 1.287802604 0.176397959
H -4.340111465 0.663612610 2.627301387
H -5.778218614 1.793239694 -0.165835826
H -2.558239852 2.431556033 0.436297417
H -3.142342840 -1.101490782 -2.808810696
H -4.800640745 -2.843459391 -0.560736770
H 5.390448873 3.326396269 0.357040186
H 7.199512756 0.701928697 1.387378093
H 6.169764953 0.861163880 -1.773576225

