13

O -5.307861284 -1.362672835 0.222261707
C -3.150448934 -0.767500927 0.000367590
C -1.716735191 1.718222235 0.307293278
C 0.727451432 0.143138571 0.383117405
C 4.931674524 1.437431950 -0.762647884
O 2.620054759 0.986451777 -1.382460251
C -0.711308995 -2.226914360 -0.495745215
H -2.183089495 2.890199046 1.932298971
H -1.817126589 2.849837916 -1.416779435
H 5.099942504 1.048187863 1.322090683
H 1.603731477 -0.011862227 2.244448411
H -0.439001728 -2.557688223 -2.515510972
H -0.434534378 -3.984735730 0.536298870

