13

C -2.763237626 -1.313992035 0.403543531
C -0.396332128 0.060368662 1.059955471
C 2.974970912 -0.973246012 -0.450527546
C -0.243166840 2.671609001 0.205318951
O 0.861200030 1.211985053 -1.746608945
H -3.968403980 -1.228490960 2.085212188
H -3.804665750 -0.495057562 -1.191171005
H -2.411398438 -3.311155817 0.019953146
H 2.502698799 -2.893641295 0.101078408
H 4.135000289 -0.058819748 0.965117449
H 3.905232042 -1.005111084 -2.293610070
H -1.963458325 3.534040131 -0.524071132
H 1.023837325 4.004927435 1.133318457

