10

O -1.248951630 3.026333687 0.400323834
C -0.651671430 0.572114754 -0.152722847
C -2.663898182 -1.122584397 -0.786827742
O -4.842805713 -0.371201019 -0.845585053
C 1.752191309 -0.248660330 -0.024656825
C 4.116277185 -0.805805052 -0.082954460
H -3.076893669 3.073556394 0.271958707
H 3.414005654 0.788708038 1.499874491
H -2.160709374 -3.099493962 -1.209946001
H 5.475503064 -1.897395427 0.969840309

