11

O -3.324693531 2.019601275 -1.282686076
C -1.586425913 2.254083595 0.229548207
C -0.157867002 -0.306637676 0.058656570
C 0.045492057 -2.209108075 1.818699067
O -2.475374001 -0.841493229 -1.875641637
C 2.262347348 0.193242449 -1.341072566
O 2.705122595 2.172855059 -2.372931589
H -1.301219697 4.021121575 1.243267749
H 1.785616256 -3.270482863 1.939430344
H -1.455136076 -2.640959628 3.134262012
H 3.607849206 -1.401538832 -1.340740711

