14

O 1.217333261 -2.647712696 -2.811198459
C 0.622267594 -0.389979624 -2.026240072
C -1.992300553 0.250552135 -1.146131669
C -1.553379554 -0.315723309 1.656045502
O 1.104626027 -0.620534281 1.715565110
C 2.393220917 1.980597971 1.447035028
H 0.048899649 -3.908120885 -2.199671086
H 1.912700848 1.068582714 -2.632035226
H -3.416559959 -0.930089467 -2.064929380
H -2.359364414 2.236437484 -1.524823204
H -2.417555752 -2.094365946 2.255896844
H -2.185089354 1.193422783 2.912006693
H 2.277456918 2.799950469 3.354115150
H 4.373176286 1.409589878 1.201849885

