17

C -3.870113901 0.028271380 0.492070415
C -2.117631536 -0.105420205 -1.519684811
N -0.393861840 1.649095260 -2.588531898
C 0.542274335 -0.847586538 -1.794363722
C 2.189465166 -1.279556557 0.467929920
C 4.032713458 0.665417204 1.273384957
N 1.858588843 0.049658809 2.839488925
H -4.232615755 -0.941191759 -2.310406504
H -5.074487099 1.668357068 0.663932578
H -3.919796860 -1.458224058 1.886924133
H -3.168939035 -1.030345145 -3.940516366
H -0.079896751 3.047279998 -1.311678103
H 1.054709251 -2.007869364 -3.403834260
H 2.698868074 -3.254636206 0.688276635
H 5.847791300 0.103831512 2.035262815
H 4.049058701 2.434799881 0.234933889
H 0.445498474 1.339204156 2.716512163

