14

N -4.936552097 -0.897189940 -1.205975440
C -2.644907228 -0.339980740 -0.730477073
C -0.373452363 -1.909905017 -0.457408303
C 1.547905452 -0.457768296 0.325135392
N 3.972937924 -1.100410029 0.949101246
C 0.676883892 2.234396579 0.622474822
N -1.867396157 2.132057781 -0.339233051
H -5.126602363 -2.787393919 -1.452344024
H 0.773548410 2.794056716 2.616798780
H -0.337105598 -3.919644114 -0.812120649
H 5.282996192 0.271464959 0.884846778
H 4.596680979 -2.800819649 0.380265147
H 1.873761000 3.533248790 -0.461711342
H -3.178375042 3.389291287 0.209459247

