15

C -3.652144329 -1.404209128 0.123714832
C -1.719094514 -0.502663313 -1.807311030
N -0.316302132 1.652751653 -0.878833821
C 1.800577425 1.411530589 0.179886582
O 2.992019379 3.508397417 1.028931384
C 3.340043115 -0.898698905 0.729671974
H -4.813683011 -2.921757529 -0.653700354
H -4.890678296 0.147941216 0.678566334
H -2.720706940 -2.111535998 1.824852923
H -0.491704810 -2.078984142 -2.359771310
H -2.699474922 0.100633869 -3.520888469
H 1.892725196 4.904755414 0.617638408
H 2.434273932 -2.615899441 0.062207346
H 3.635889661 -1.042007079 2.764366038
H 5.193456130 -0.719787024 -0.153756546

