9

N -3.943816319 -1.905129736 0.280382577
C -1.690164696 -1.110237663 0.241058831
O 0.541799352 -1.987632155 0.244535663
C 3.003147466 1.443838858 -0.465769358
O 3.799018681 1.491815962 -2.460057015
C -1.206404465 1.707721613 0.158974080
N 0.111933959 3.473249758 0.068127783
H -3.952662732 -3.828495499 0.319460167
H 3.378012173 1.008798771 1.491600288

