18

C 3.114282694 0.630538926 -1.401714557
C 0.751826821 -0.777314445 -0.544147110
C -0.011944562 -0.105364250 2.232138546
C -1.555393057 -0.089803489 -1.952337986
C -0.044900101 2.697813966 2.888219482
C -3.193188492 -2.268533953 -2.440128568
H 2.750484885 2.651497723 -1.560037815
H 4.675216844 0.327446395 -0.082002360
H 3.719287735 -0.040098307 -3.255876868
H 1.129665011 -2.828616481 -0.542776529
H 1.339375025 -1.094669060 3.441756074
H -1.856651269 -0.941360077 2.653274652
H -1.313250884 3.750460052 1.654059306
H 1.832712993 3.534861217 2.731992384
H -0.671944923 2.955310296 4.836628557
H -2.923479107 -3.961222359 -1.262823618
H -2.503889912 -2.752381376 -4.355325064
H -5.187034009 -1.808471681 -2.678632339

