9

N -2.621589992 -1.120125504 0.233617846
C -1.290616538 1.150686533 -0.425684015
C 1.353979433 1.207082196 0.640240213
C 1.794159651 -0.993177218 -0.487933144
N -0.674822900 -1.179405381 -1.777585449
H -1.870919476 -1.858251470 1.845109143
H -2.329213758 2.677667709 -1.304449390
H 2.379962561 2.484090325 1.854159703
H 3.262929288 -2.409415530 -0.577008124

