13

N 3.496576519 0.497705522 1.243919176
C 1.644148070 1.181993928 -0.459509527
O 2.043817662 2.617638518 -2.190876999
C -0.352221347 -2.000904911 -1.193661815
C -2.845828749 -0.936792439 -1.074869341
C -1.200230484 0.917281054 0.590519477
H 3.237831760 -1.081924048 2.266559756
H 5.257694819 0.721125309 0.557242629
H -0.083189788 -3.220787753 0.475506758
H -3.544227834 0.015472832 -2.753832913
H -4.328941520 -1.816591607 0.045098579
H -1.347315333 0.512594353 2.591966739
H -1.852084160 2.799696641 0.117506100

