13

C 3.776947474 -0.408357589 0.431554242
C 1.029507694 -0.016344903 0.038710473
O 0.407872723 2.303261355 -0.922832030
C -0.955933720 -1.509909882 0.367777950
C -3.226306717 -0.109725001 -0.616648985
N -2.299819276 2.504653097 -0.830077224
H 4.787384751 -0.168378434 -1.350871816
H 4.134790491 -2.302761598 1.147830816
H 4.522657402 0.974041643 1.768056656
H -0.917875789 -3.432005295 1.040276657
H -4.875108710 -0.141981341 0.623612985
H -3.818395158 -0.804653226 -2.475540373
H -2.582757065 3.350395167 0.873462746

