17

C 3.442684497 -1.557435077 0.206048291
C 1.724290618 0.407764971 -0.835821972
C -1.979703903 -0.037310526 -2.417973230
C -3.132247621 0.982568616 -0.080112558
C -1.819205949 -1.393869189 0.592946755
O -1.724570090 3.076581146 0.746481787
C 0.865962499 2.375205534 1.064402564
H 5.337788347 -0.731482672 0.050494786
H 3.473705069 -3.263093940 -0.948819601
H 3.154175908 -2.090988117 2.207772171
H -1.056147673 1.236526189 -3.695378825
H -2.921428981 -1.588668697 -3.362425731
H -5.139465502 1.311671167 0.175629389
H -2.755083099 -3.171203475 0.224811098
H -0.623443949 -1.453770238 2.248994638
H 1.982749102 4.084005179 0.747958702
H 1.143665973 1.788671905 3.057267975

