16

C -4.034584665 -0.356377497 -0.307289612
C -2.203104340 1.068649175 1.344546563
N -0.045799459 -0.065142866 2.500159347
C 0.369687330 1.946826524 0.564134441
C 1.608492453 0.258485829 -1.135230878
C 4.189436666 -0.673280033 -0.679730235
O 3.147785441 -2.791969532 0.535484624
H -5.155995881 0.935573074 -1.460905542
H -5.329162484 -1.428194439 0.888139928
H -3.100782887 -1.714047887 -1.543056661
H -3.127412606 2.435801133 2.580741086
H 1.364335718 -1.875052345 1.814919710
H 1.216886530 3.712133137 1.174136843
H 0.528657497 -0.844647938 -2.475463159
H 5.262682014 -1.196227761 -2.365310456
H 5.323147977 0.552915931 0.541541952

