12

C 1.884001955 -0.537845686 1.184519868
C 1.114479815 -1.600637315 -1.198263393
C -0.756884484 -1.630720205 0.972820181
C -2.598599281 0.505153802 0.614238564
C -1.325264988 2.298366209 -0.597364330
C 1.291593470 1.251633926 -0.975364036
H 3.471921810 -0.829763869 2.429014087
H 1.895953585 -3.005155716 -2.452351562
H -1.226835220 -3.387680314 1.907507880
H -4.541772700 0.513581036 1.237016932
H -1.971458480 4.133153989 -1.213062802
H 2.795615343 2.268615041 -1.915958471

