10

N -3.682681377 0.104205243 0.533411330
C -1.212845880 -0.327722257 0.741869211
N 3.944291075 -1.402230094 -1.834041206
C 3.685603329 -1.192533119 0.473499378
N 2.860528305 1.105796089 -0.559580522
N 0.210601511 1.167952072 -0.674291792
H -4.471638860 1.433109503 -0.596409130
H -4.881436477 -0.964994825 1.534922939
H 3.897911602 -2.131553602 2.271096497
H -0.394955349 2.551604457 -1.852291028

