10

N -3.825815281 -0.126191697 -0.112661673
C -1.486174582 -0.392875668 -0.948719030
N 3.231802097 -2.220110930 -1.726817768
C 3.804243358 -1.184696387 0.279771742
N 2.601718369 1.186568331 0.363821695
N 0.131430943 1.313497985 0.113361911
H -4.347876160 0.919397359 1.404595634
H -5.202104481 -1.103304466 -0.980742310
H 5.293517676 -1.604087558 1.657138690
H -0.437388582 3.141920959 0.066374816

