11

N 2.750555976 3.417335295 0.191098346
C 2.387556992 1.244809369 -0.519036656
C 2.078191213 -1.167625641 -0.985605595
O -0.198536592 -2.410346844 -1.166102163
C -2.318988261 -1.064094482 -0.335911102
C -2.375842051 -0.735320044 2.429024443
N -2.469503756 -0.498736991 4.579764661
H 3.684235602 -2.371444942 -1.347289425
H 2.811865759 4.714681866 -1.230732175
H -2.437556160 0.804013894 -1.226414435
H -3.968672397 -2.158868875 -0.899925224

