16

C -2.999689891 2.024371057 -0.912504054
C 0.204849865 1.049862973 0.717891421
C 1.380835351 -0.807985664 -1.144424604
C 3.913753063 -1.410973781 -0.227642834
C 5.978601997 -1.871549057 0.574531260
C -0.650630532 -0.284385754 3.016390931
N -2.936160832 -0.435124123 1.510991032
H -1.886402852 2.068065191 -2.635784726
H -3.181567432 3.914901601 -0.141049782
H -4.844406613 1.267592021 -1.451322476
H 1.529660014 0.040009452 -3.024762418
H 0.290616823 -2.562340634 -1.327640581
H 7.819687081 -2.287194356 1.268482384
H 0.141819826 -2.155818044 3.342093109
H -0.753010602 0.832069316 4.742079644
H -4.260148668 0.609047392 2.428052425

