17

C -3.609291596 0.964911790 -0.269287711
C -1.281336660 1.861047017 1.114267410
C 1.903957028 -4.404247182 0.791026676
C 1.071616915 -2.287056236 -0.253309812
C 1.158554218 0.237776944 0.982704941
C 2.189167950 2.472104435 -0.562861654
O -0.053690162 3.927889877 -0.160842641
H -4.395160132 -0.713293188 0.640645804
H -3.186419039 0.512205901 -2.235890446
H -5.040603100 2.448854397 -0.251068654
H -1.777267635 2.403696066 3.048543261
H 1.813044648 -6.195533296 -0.194864646
H 2.717310686 -4.419216855 2.673676437
H 0.283443574 -2.356431502 -2.150071954
H 2.059605379 0.080921228 2.828941079
H 3.869506146 3.398489850 0.200551739
H 2.493559365 2.064862899 -2.569696147

