14

C 3.322008325 0.227051614 -0.777470347
N 1.207335646 -0.741287364 0.652527325
C -1.275687777 0.399894658 1.032666276
C -2.574779605 -1.518248204 2.652584977
C -2.619502940 1.067340294 -1.420215505
N -0.840913782 -3.349890497 3.018930912
N 1.335117529 -2.824715897 1.814261348
H 4.869796520 -1.113346187 -0.618070720
H 3.899171993 2.056273811 -0.024676667
H 2.788044817 0.448117521 -2.755601432
H -1.016385398 2.083722064 2.217483361
H -2.860138057 -0.612907422 -2.588981690
H -4.485585700 1.798206046 -0.961932089
H -1.592904215 2.496585648 -2.495131523

