11

C -2.570719849 -1.154923147 1.108272423
C -0.697331220 0.016358679 -0.707890783
C 1.639080524 -0.988125318 -1.109422171
C 4.009456901 -0.891077980 -0.787464088
C 4.198210097 1.223081733 0.626553796
N 3.312365657 2.994345424 1.671584890
H -1.610284934 -2.061904042 2.688976888
H -3.747878535 -2.568781028 0.173720047
H -3.820585162 0.298987554 1.863664401
H 1.101011151 2.133337768 0.835405930
H -1.506206340 1.059500387 -2.286402277

