14

C -4.630201659 -1.293465300 0.271552170
C -2.202301906 -0.981347891 -1.090912776
O -0.267960254 -0.219656984 0.162266512
C 2.024900729 0.343853923 -0.599500665
C 3.914264139 0.835932540 1.385949423
O 5.436495130 -1.295982907 2.080334711
H 4.315694351 -2.669526089 2.458996028
H 2.951257325 1.600056678 3.055364303
H 5.274710612 2.246511840 0.744600942
H 2.464116185 0.016024159 -2.573068836
H -1.983019522 -1.244671646 -3.112988080
H -5.461640374 -3.153237622 -0.078022011
H -6.035731876 0.117507214 -0.296822211
H -4.325024439 -1.098114994 2.300096064

