16

C -4.655025045 -1.217228400 0.210727461
C -2.281522362 -0.497877771 -1.108131261
O -0.280730948 -0.209756595 0.282037202
C 1.928520633 0.583942323 -0.580315107
C 3.939562489 0.842485468 1.353218100
O 5.373179535 -1.400914391 1.790012345
H -4.833794988 -3.268108177 0.444816094
H -6.286270443 -0.576687192 -0.873656254
H -4.734266515 -0.347004097 2.076413605
H -1.544496349 3.033609303 -2.148116749
H -1.991891314 -0.911066161 -3.096423951
H -0.071861900 3.317431635 -1.920823231
H 2.395991123 0.061143752 -2.509143880
H 3.096767975 1.529891865 3.116469750
H 5.314176276 2.242173691 0.724004440
H 4.226578231 -2.700198573 2.321855278

