15

C 4.029546409 0.895566741 0.941596047
C 1.393760662 -0.033168284 0.724940969
C 0.077452787 -1.467018844 2.392481033
C -2.423273137 -1.185754880 1.980855975
H -3.875775672 -2.567223781 2.418509213
C -2.917709546 1.011954840 0.244504804
H -4.659841730 0.841724362 -0.851557192
H -2.934653662 2.853786064 1.185481833
C -0.412778112 0.807168282 -1.378019754
O 0.268275404 2.980076820 -2.715427120
H 0.320447133 4.391478114 -1.576007154
H -0.681895389 -0.658975241 -2.806602248
H 4.202683854 2.866081964 0.358552742
H 5.264939462 -0.190486415 -0.313260126
H 4.716533476 0.662892927 2.868463000

