17

C 4.009308973 0.196103229 0.564468223
C 1.254700328 -0.171994708 0.213983421
C -0.209572082 -2.124441523 1.047287806
C -2.712196898 -1.652070539 0.590551962
C -3.077904597 0.972415874 -0.362123625
C -0.379290067 1.627834764 -1.323612120
O 0.303137997 4.184644093 -1.115657889
H 4.482301224 2.192253457 0.775587519
H 5.039572973 -0.478734675 -1.102305292
H 4.701839287 -0.853967255 2.195194570
H 0.060505742 -4.402737744 1.095774909
H -4.162792094 -3.089188737 0.754261279
H -1.081693350 -5.830245419 -0.139854530
H -4.558734334 1.085938563 -1.793708006
H -3.602141817 2.281625994 1.153292559
H -0.251535908 1.206020359 -3.349348656
H 0.227981001 4.668134793 0.633321037

