14

C -3.416609186 0.477244739 -1.156881338
C -0.699610154 0.105516562 -0.527091103
C 1.212689335 1.737995951 -0.649517653
C 3.554188146 0.486522652 0.276978160
O 2.791954811 -2.086840830 0.668905903
C 0.322462696 -2.365733981 0.295724942
H -3.971912824 -0.752309778 -2.716535142
H -3.807453398 2.429285055 -1.681886543
H -4.602561845 -0.013350405 0.460895056
H 1.137604677 3.684736114 -1.265963927
H 4.249683119 1.279635396 2.062389682
H 5.108563245 0.459249444 -1.079955274
H -1.141595382 -2.219949340 3.382530980
H -0.875477988 -3.411227454 2.076090896

