12

C -2.735540685 0.075206697 -0.073230875
C -0.544626779 0.224557610 -1.691092571
C 0.666421140 2.390084066 -0.737816051
O 2.523879227 1.791750590 0.714841158
C 2.342137103 -0.904471225 0.928021218
C 1.177649069 -1.789296667 -1.280857331
H -4.101834745 1.607373244 0.011258119
H -0.242858058 -0.601356433 2.229074884
H -3.515003238 -1.783136463 0.306905507
H 0.102477164 4.356560888 -0.792401546
H 3.895977997 -1.670169070 2.017115832
H 0.580209547 -3.736745894 -1.444979232

