14

N 3.410628600 -4.581589475 -0.297929119
C 1.488000794 -3.346452745 -0.017660001
O 2.882457726 2.086081859 -2.319564949
C 1.075631241 3.254893927 -1.601023537
C -1.567531562 2.223130240 -1.419179633
C -1.779696878 -0.606752168 -1.920753028
C -0.680552512 -2.183615349 0.181031001
H 5.038067787 -3.648578057 0.118151743
H -2.707461018 3.314033888 -2.765482394
H 1.278856376 5.266979591 -1.039441965
H -2.306469638 2.724362898 0.449499950
H -0.823242991 -1.054197759 -3.691175999
H -3.770008040 -1.094773713 -2.172762860
H -1.661770975 -2.306960305 1.974618575

