14

N 3.601804387 -3.632602426 -0.233125024
C 1.620521486 -2.499971754 -0.165659931
O 2.497069569 1.108172098 -2.669127186
C 0.921581731 2.629528807 -1.628945318
C -1.537067760 1.661724072 -0.948055396
C -2.335967507 -0.780104644 -1.965094544
C -0.831523204 -1.945008418 0.168092688
H 5.210423830 -2.595368360 -0.286633356
H -0.479716274 3.776452555 -3.034409867
H 1.598596448 4.158772911 -0.378589149
H -2.772738337 2.759358264 0.271144764
H -1.530555763 -1.217181686 -3.801331574
H -4.346205680 -1.176690185 -1.872200124
H -1.666225098 -2.246145819 2.006021514

