15

N 5.591880884 -0.574894655 -0.253164946
C 3.658851496 -0.224279367 1.580396175
C 1.713034162 1.282162055 1.331495585
N -0.053574680 2.757617921 1.145289739
C -2.502443610 -0.521467997 -1.257149299
C -2.421017371 2.066071228 -0.117366600
C -4.188813453 -2.266549060 -0.657447170
H 7.321637327 -0.257263346 0.493481682
H 5.363867720 0.579263135 -1.755107062
H 3.740140843 -1.426604537 3.233936108
H -1.064399408 -0.942287479 -2.663000033
H -3.928615400 2.296553999 1.273543203
H -2.739366473 3.504645460 -1.567243965
H -4.191540857 -4.106703757 -1.553757651
H -5.636266053 -1.915793611 0.752522221

