12

O 4.468192528 0.224434325 -0.926006733
C 1.977264305 0.320992262 -0.543374892
N 0.660317173 2.324717060 -0.479920176
C -1.942340201 1.476838692 -0.084429108
C -1.734939432 -1.320056487 0.736489066
N 0.761177885 -1.960715595 -0.255549969
H 5.021559348 1.942096464 -1.164089018
H -3.001141181 1.647286357 -1.853754734
H -2.896768508 2.637854864 1.325150773
H -1.794095438 -1.506189729 2.798233086
H -3.205548397 -2.512550735 -0.074680748
H 1.750034055 -3.377516101 0.539174296

