12

O 4.571663632 0.294489420 -0.986692434
C 2.242349133 -0.077452315 -0.487186815
N 1.020686074 2.064004208 -0.396477599
C -1.666936750 1.547926201 -0.138684468
C -1.667384785 -1.259559418 0.734109126
N 0.799070030 -2.164199282 -0.161527685
H 3.404160578 2.539743723 -1.031079530
H -2.654296823 1.758085214 -1.945430734
H -2.583406639 2.771933068 1.241580488
H -1.795791637 -1.388713185 2.794941486
H -3.211660980 -2.343597181 -0.092765011
H 1.563327299 -3.780592926 0.474374037

