12

C 2.874037560 -0.827547088 0.930026256
C 0.185057837 -0.106103927 0.415600928
C -2.052511536 -2.076912549 0.566642126
N -1.735924547 -0.211773575 2.441721210
C -0.499244591 1.526730145 -1.446632610
N -1.022109019 3.172392849 -2.942968400
H 3.805317724 -1.463366438 -0.794035271
H 2.842058613 -2.388469522 2.267832052
H 3.930781857 0.749131599 1.734615571
H -3.658676772 -1.703070675 -0.714153978
H -1.732848866 2.681938944 -4.659462481
H -2.947325769 1.292635465 2.425236600

