12

C 2.758000080 -0.404737573 0.721244872
C 0.049934029 0.454621392 0.670658397
C -2.106569476 -1.011309348 -0.402513290
N -1.675196516 -1.001733312 2.317586178
C -0.452158096 2.388994545 -1.161439263
N -0.728421410 2.319281754 -3.401771246
H 3.617113682 -0.222012622 -1.142799175
H 2.805022589 -2.370951629 1.323745327
H 3.842276137 0.724145697 2.062395276
H -3.843563702 0.008186237 -0.804110024
H -1.264946952 -0.287833748 -3.165481800
H -3.012877874 0.048933834 3.206908640

