13

C -3.457853536 -1.333899695 1.842411048
C -1.050875054 -1.752370247 1.315019044
C 1.134610481 -0.434280342 2.539258971
C 2.861133943 0.877051147 0.659087736
O 1.507722127 2.878893532 -0.482706085
H 2.546928405 3.643495450 -1.751557571
H 3.502310685 -0.488790002 -0.767508240
H 4.537859587 1.593453653 1.647100068
H 2.274584969 -1.813751405 3.580926410
H 0.453638866 0.954281117 3.908166730
H -0.568875480 -3.155291263 -0.110614344
H -4.016422734 0.064096959 3.234050758
H -4.957365786 -2.357808300 0.897345823

