16

O -2.430387994 -0.116196274 -2.908466121
C -3.172509767 -0.639134137 0.298465498
C -0.962526521 -2.051633720 0.915578676
C 1.199333110 -0.748732583 2.272989209
C 2.801205455 0.978986395 0.632499800
O 1.265549907 2.978616799 -0.352169568
H -1.487183091 1.456027592 -2.823100068
H -3.388936245 1.303652927 0.929860961
H -4.945215999 -1.631796707 0.041890598
H -1.015612405 -1.517503255 -1.894856107
H -1.260058816 -4.030507958 1.358459010
H 2.477984809 -2.180185080 3.037319913
H 0.536891072 0.357190760 3.898240773
H 3.621317095 -0.105516808 -0.932490874
H 4.344048558 1.786894599 1.752759096
H 2.345583869 4.217532679 -1.110080513

