16

C -2.397881738 -2.186626552 -0.896698460
C -0.431672898 -0.195554056 -0.529700059
C -1.362396500 3.103592872 1.317638601
O -0.253109577 0.195062954 2.424200898
C 2.137261198 -1.080649125 -1.234329987
O 3.940068482 0.771880254 -0.425513959
H -1.959139299 -3.947915324 0.130196612
H -4.263927534 -1.557772053 -0.272388771
H -2.546633400 -2.632571039 -2.908313318
H -0.086060188 4.188863096 0.150710780
H -3.238582151 2.990216429 0.516902362
H -1.436560484 3.825004834 3.262489416
H 1.522086937 0.569657884 2.701686544
H 2.597969965 -2.896745699 -0.284105167
H 2.222469308 -1.372938394 -3.281843462
H 5.597256626 0.048013065 -0.522939999

