10

O 5.096748300 1.549228544 0.838449164
C 3.826801000 0.014233096 -0.240372521
C 1.043293699 -0.073623654 -0.123726133
N -0.375782509 -1.703472507 -1.262856499
C -2.797382407 -1.033201088 -0.596966202
C -2.685518444 1.006292446 0.936366306
O -0.234306972 1.636176090 1.251737672
H 4.626260560 -1.497105513 -1.436650283
H -4.432472509 -2.049577887 -1.259857995
H -4.067640699 2.151050492 1.893876511

