10

O 3.690428877 1.600442560 0.748965019
C 2.835390865 0.557037423 -0.927320319
C 2.148571077 -3.514369046 -0.227240492
N 0.276654695 -2.283668259 -0.287185799
C -1.459771574 -0.418018474 -0.577893253
C -2.098807521 1.145077259 1.553754287
O -1.019686579 1.127791990 3.576788155
H 2.451477848 0.356918072 -2.911505575
H -2.682667263 -0.558205860 -2.209603599
H -3.638715425 2.505739255 1.156987276

