15

C -3.846127532 0.425465072 -0.165233382
C -1.324298733 -0.520581280 -1.052162033
C 0.460063557 1.056858116 -2.482861493
C 1.261527908 2.820409759 0.489642495
N 1.862483663 4.734592077 1.406437002
N 0.942907574 0.205596930 0.408129159
C 2.881771264 -1.549728811 1.260434872
H -3.749798232 2.441568728 0.245549482
H -5.227027757 0.142213853 -1.670475111
H -4.492123680 -0.587625664 1.510564974
H -1.226732098 -2.553233155 -1.357946365
H 1.795050506 0.023584538 -3.667096031
H 2.912295065 -3.186221166 0.010075850
H 2.476243540 -2.144245645 3.189907833
H 4.702430809 -0.593856885 1.203431642

