11

C 4.953209824 -0.676710453 -0.969843446
C 2.837930090 -0.633648602 -0.180227791
C 0.268109505 -0.533960371 0.782263600
C -1.685693132 -2.282745940 -0.261296778
C -3.672027120 -0.582711318 -0.661949613
N -3.134983529 1.863920195 -0.157342547
N -0.858074404 1.993574701 0.616820893
H 6.829229595 -0.747498932 -1.693203622
H 0.235533631 -1.059463009 2.802467811
H -5.544841254 -0.991615869 -1.362452908
H -0.103867814 3.672515879 1.103769395

