11

C 5.183307243 -0.610195268 -0.745980726
C 2.968309609 -0.542219098 -0.309954731
C 0.302780934 -0.400415939 0.220458870
C -1.678742530 -2.197627177 -0.516259515
C -3.798498799 -0.533772608 -0.330634004
N -3.256077991 1.867419703 0.153876128
N -0.816277177 2.017062579 0.424249713
H 7.151647902 -0.701937314 -1.153757508
H -0.183133529 -1.517828571 2.037985325
H -5.754136737 -1.027943813 -0.642071678
H 0.005346451 3.669109969 0.881093083

