15

O 1.078225910 -4.917280953 0.473069333
C 0.455196227 -2.423262744 0.355802321
C -1.861027326 -1.511992908 -0.043110133
C -2.299838173 1.299564467 0.007675879
C 0.017290389 2.755099048 -0.909906965
C 2.418841030 1.707320726 0.187832749
C 2.612784378 -0.734653708 0.748543799
H -3.462184486 -2.776276982 -0.259498647
H -0.420197063 -5.915583939 0.250015547
H -3.931886251 1.792872691 -1.153908062
H -2.765126861 1.888183390 1.943860977
H 0.149303992 2.625354836 -2.977952806
H -0.173718233 4.760166950 -0.463833901
H 4.029829641 2.951786694 0.420938630
H 4.345188989 -1.558223678 1.462665122

