15

O 0.761266702 -4.896488561 0.886494128
C 0.702664594 -2.529063861 0.390531179
C -1.800774769 -1.753654203 -0.160452034
C -2.336368809 1.030192984 0.244919882
C -0.118898676 2.630574959 -0.720638743
C 2.425432584 1.595185209 0.006363142
C 2.846145675 -0.836856257 0.547068570
H -2.427931671 -2.544935576 -1.959735621
H -1.575437137 -4.392743436 0.886206304
H -4.078497005 1.610243757 -0.691099281
H -2.600482923 1.413213314 2.260989958
H -0.157579896 2.748801838 -2.793141200
H -0.273648046 4.575203599 -0.043757591
H 3.998569225 2.912315512 0.051243684
H 4.678975547 -1.558814577 1.097638103

