11

C -2.933889457 0.184766706 -0.519567442
N -1.188117850 -1.914994616 -0.203347778
C 1.275286702 -1.845775366 0.251153824
N 2.153857038 0.545394462 0.420255720
C 6.715656243 1.414578906 1.269280718
N 4.596543898 0.969455675 0.874618144
H -3.008644226 1.362370441 1.177588145
H -4.822677956 -0.551554156 -0.857730002
H -2.413594886 1.361476714 -2.137328945
H -1.922327151 -3.657689617 -0.341904690
H 1.153245921 2.166698332 0.243923070

