11

C -2.848299622 -0.006609449 -0.578351342
N -0.734784685 -1.677918213 -0.018816098
C 1.514347752 -0.949373725 0.718811453
N 2.085815691 1.511415521 1.058896771
C 5.152132053 -0.968370537 0.499279947
N 4.763957230 1.375257144 0.755622676
H -3.185001953 1.282361251 0.996467193
H -4.542372820 -1.133803096 -0.861755269
H -2.491827507 1.089206202 -2.290608637
H -1.000334234 -3.551749473 -0.185603061
H 1.166623708 3.008672666 0.284012892

