12

O 3.997751994 -2.350145177 -1.148296653
C 2.625290756 -0.567526537 -0.941416712
C 0.644659243 -0.347184244 1.151204582
C -1.678335143 3.021848404 -0.367417882
N -0.394254128 2.140454911 1.437671718
C -1.287746328 -2.456976157 0.670876075
O -3.474929158 -2.124751249 0.235015733
H 2.680978339 1.048890123 -2.273776034
H 1.619025654 -0.903492365 2.891932340
H -2.055067447 2.021328012 -2.138280592
H -2.483679480 4.903501977 -0.172807820
H -0.440139135 -4.366048882 0.759589230

