11

C 2.567139178 -0.638564158 0.018041499
C 0.113751516 0.803789225 0.433305262
O -0.327084172 2.495995770 -1.550195026
C -2.046419531 -0.988152455 0.816596390
O -4.008088720 -0.596459775 -0.614454881
H 4.117616774 0.700662070 -0.181576791
H 2.953234829 -1.891311850 1.607683159
H 2.450720559 -1.758897928 -1.708388610
H 0.235255974 1.826736243 2.246320638
H -2.069443218 2.317636993 -2.068764239
H -4.077248293 -2.226092046 0.856432024

