15

O 1.938685565 -4.430938808 1.118801996
C 1.118995901 -2.392186122 0.526369738
C -1.626153191 -1.849334495 -0.164016492
C -2.413026778 0.894409038 0.308534488
C -0.580613627 2.817204330 -0.864045618
C 2.152404953 2.264936122 -0.300131027
C 2.554099878 -0.065007032 0.267391144
H -1.797147856 -2.313979542 -2.176151346
H -2.805747393 -3.187422881 0.867358364
H -4.326351575 1.194132092 -0.408746098
H -2.494642764 1.222351883 2.348798161
H -0.724929593 2.797679151 -2.933084906
H -1.075533240 4.740318476 -0.305306987
H 4.945931374 -0.664444335 1.596612727
H 5.188815303 -0.974420023 0.113917680

