12

C -0.513607605 3.009160801 0.860873656
C 0.230817177 0.366034300 1.548741675
C -1.167419604 -1.906272189 -0.931312838
O -2.192641456 -0.919444111 -2.698813933
C 2.000925547 -1.010138284 0.209737773
C 2.240685909 -2.818778302 -1.278171785
H 0.961280417 4.370305131 1.335279591
H -0.898462803 3.121809379 -1.162865855
H -2.226324595 3.540027464 1.875083355
H -0.065605641 -0.236970522 3.488850940
H -1.749447767 -3.435360428 0.309529013
H 3.324202788 -4.068432097 -2.440488958

