13

C 0.824074282 1.281339797 -0.599119130
H 1.834193688 1.147500549 -2.374440762
H 0.862727099 3.134078955 0.270656062
C -1.437651895 -0.305062797 -0.234447360
C 0.882527082 -1.001724279 1.142718143
H 1.929260423 -2.644919379 0.514659616
H 0.963125149 -0.653587254 3.158459502
C -3.324343611 -1.580047086 -1.840539483
H -3.568411396 -3.602493193 -1.637612131
H -3.635553120 -0.865281990 -3.733421866
C -4.132592268 0.082009049 0.358096373
H -4.974218533 1.894525783 -0.085543877
H -4.911066192 -0.841551300 2.010642008

