16

C 0.728181811 2.416874147 -0.584064154
C -0.708881528 0.069709068 0.018163159
C 1.048791045 -0.969488631 1.856118404
O 4.738304217 0.034971517 1.091885985
C -2.093526851 -1.548236910 -1.836020429
C -3.527571183 -0.266012400 0.249277080
H 1.229556256 2.611966297 -2.567065365
H 0.047961041 4.138438702 0.303703158
H 3.565196915 1.488752376 0.344933165
H 1.727717126 -2.904434617 1.809750723
H 1.160033477 -0.039488152 3.673720410
H 5.375927896 -0.903625648 -0.335843223
H -1.867050167 -3.580707126 -1.703824997
H -2.296562692 -0.830173940 -3.739524434
H -4.656032212 1.377174857 -0.213899423
H -4.271123819 -1.433566704 1.758256593

