12

N 3.470339977 0.007898885 0.788886920
C 1.167015618 0.201650993 -0.161419631
C -0.472013240 2.343221296 -0.352689867
C -2.861754397 1.354556385 -0.060128629
C -2.643573629 -1.334305494 -0.127846964
N -0.247112985 -1.957477814 -0.361258395
H 3.572070473 -2.660162722 0.470560324
H 4.635765145 1.411238513 0.144958208
H 0.099367733 4.296348866 -0.226472319
H -4.616421077 2.401200323 -0.047237862
H -4.142432714 -2.676239907 -0.485414913
H 2.047541991 -3.615259578 0.281260203

