10

N 4.051988475 -0.659131956 -0.415848558
C 1.646636915 -0.569273419 -0.205222575
N -0.209314569 -2.365069988 -0.261500830
N -2.387795400 -1.061591351 0.073841067
C -2.083066442 1.371637393 0.332868492
N 0.398990538 1.778380778 0.173637825
H 1.308136057 3.438770477 0.288634614
H 4.616165019 -2.469028093 -0.675398567
H -4.037092199 -2.001277206 0.102676984
H -3.549065589 2.751851497 0.622405336

