10

N 3.790181075 -0.199206443 -0.324348680
C 1.341380213 -0.665533743 -0.178062165
N -0.389289893 -2.474755626 -0.234040426
N -2.586027519 -1.106998654 0.094744783
C -2.172809271 1.354050638 0.328130155
N 0.275720207 1.707320745 0.165455481
H 2.544916225 2.262270682 0.038969233
H 5.058937544 -1.585227354 -0.592767760
H -4.255801542 -2.006130608 0.133513573
H -3.628432443 2.752496215 0.603176768

