12

O 2.569068569 -2.829193036 -0.552168015
C 1.273269003 -0.579431226 -1.331035720
C 1.175246736 1.412106218 0.701872421
C -1.317144891 2.638727351 0.627061584
N -1.103511636 0.215702543 1.934156855
C -1.118513511 -1.664594207 -0.114100284
O 0.266221064 -3.859565242 0.536435175
H 1.682434148 -0.094755328 -3.289263094
H 2.763869267 2.111331114 1.782310312
H -2.358527473 2.738122637 -1.140710706
H -1.638220793 4.205592388 1.899478151
H -2.963898591 -2.102076180 -0.920104249

