12

O 1.967026354 -2.806892000 -1.635565217
C 1.910086544 -0.258404816 -1.678296971
C 1.112540710 1.293450012 0.452304455
C -1.433492060 2.528618263 0.567804138
N -0.948096195 0.181738061 1.856965171
C -1.693817650 -1.914317150 0.441137326
O -0.017775066 -3.718755947 0.087763568
H 3.654859299 0.362863793 -2.575188806
H 2.599684249 2.213768877 1.531720874
H -2.577021765 2.455047030 -1.130409469
H -1.608564433 4.164550220 1.783693233
H -3.644446360 -2.529784356 0.475244899

