14

O 5.233754143 -0.602775391 -2.187133490
C 3.102375813 0.158590030 -0.994706403
C 1.358340940 -1.316855555 0.042059729
C -0.974178251 -0.349038462 1.298506031
C -3.487907476 -0.233422731 -0.240348956
N -3.556627140 2.541190800 0.172128312
C -1.473552874 2.448328430 1.385202679
H 5.309552192 -2.416887299 -2.200712854
H 2.968365280 2.203056398 -0.977053262
H 1.590582800 -3.359241334 -0.035396044
H -1.230940574 -1.256113730 3.139003071
H -3.302268888 -0.725750339 -2.233167218
H -5.115973183 -1.201914381 0.575039427
H -0.486945081 4.046031114 2.229126908

