11

O -2.928996219 3.262555406 -0.073277116
C -0.799271078 2.187988572 0.162033452
C -1.785692922 -0.352059019 -0.372709739
C 0.810431121 -3.057260416 -0.285921024
C 2.757477174 -1.948329385 0.228952509
N 1.489219119 2.757217204 0.658514885
H -2.362378414 -0.704038746 -2.306120964
H -2.974849554 -1.177159971 1.076368706
H -0.249623656 -4.723452519 -0.719536258
H 4.376026862 -0.839181792 0.682273051
H 1.684878622 4.639971694 0.960144805

