16

C 3.802655932 0.630161887 0.334331990
C 1.478805916 -0.923516300 1.006096047
C -0.765946023 -0.511039807 -0.786100065
C -2.960811157 -2.292455013 -0.170429939
C -1.616179953 2.125451053 -0.741900599
C -2.335406050 4.271241681 -0.667764735
H 4.470066400 0.183916461 -1.568488104
H 3.389954826 2.650080126 0.400290424
H 5.346275806 0.252756576 1.648256788
H 1.946739993 -2.937452366 0.972383919
H 0.869867713 -0.489388573 2.933957090
H -0.123743500 -0.911943542 -2.714802452
H -3.645966229 -1.960707394 1.746935697
H -4.533982039 -2.006749739 -1.469502322
H -2.346163297 -4.257024043 -0.309870109
H -2.976168337 6.176668992 -0.613393629

