16

C 3.896424407 1.172363279 -0.031223132
C 1.472787762 0.444096789 1.288708312
C -1.232584031 -1.176387469 -1.175453699
C -3.496229527 -2.717675630 -0.562608015
C -1.061820725 1.343446081 -0.552196757
C -2.193798403 3.542001472 -0.508964170
H 4.108913168 0.159040617 -1.817269338
H 3.920718801 3.187489380 -0.449478880
H 5.528590479 0.705444249 1.145226377
H 1.566617180 -1.481933620 2.021448993
H 0.982364375 1.640099199 2.885864845
H 0.362010998 -2.111776900 -2.066173103
H -3.503001833 -3.263537685 1.432611693
H -5.181886849 -1.560766059 -0.872020659
H -3.565970512 -4.446720515 -1.681155219
H -1.648184468 4.837235990 1.003316543

