17

C 3.476007379 -1.414722695 -0.846922469
C 1.342146006 0.381761017 -0.659898523
C -0.919316970 0.255168434 -2.067578209
C -2.875979405 0.606519259 0.377894996
C -3.032725573 -1.750136534 1.579034476
O -1.513857104 2.810850920 1.481023642
C 1.089296682 2.352604334 1.317442939
H 4.649790522 -1.027884287 -2.507799699
H 2.762219441 -3.344256902 -1.080498212
H 4.684261206 -1.351105386 0.821773011
H -1.472161185 1.979183964 -3.060048594
H -1.207461086 -1.412908142 -3.231092448
H -4.700912338 1.450189944 -0.081254973
H -1.461355863 -3.058164196 1.580840072
H -4.762468183 -2.346977391 2.493872568
H 1.988333905 4.145762506 0.778541369
H 1.951261050 1.730481663 3.099312680

