10

O -3.716179456 0.217510085 0.636574068
C -1.201554351 0.095318938 0.460608516
C 0.712562205 1.746928460 1.039257490
C 3.024408340 0.448649479 0.643594514
N 2.394220658 -1.939518462 -0.266592811
N -0.182412542 -2.045611749 -0.445851777
H -4.192351058 1.822314586 1.334916329
H 0.493634787 3.655001595 1.722166528
H 3.666801631 -0.553081527 -1.570403568
H -1.087618530 -3.653729639 -0.896501777

