14

O 4.307459246 2.511357524 -0.247761217
N 3.291372652 0.980348283 -1.828595506
C 1.587410536 -0.268496124 -0.400819755
C 0.051424569 -2.594878656 -1.050464303
C -2.171977811 -1.459611590 0.462097734
C -0.977969136 1.162488798 0.277904031
O -1.169987553 2.676691136 2.399975082
H 2.997319154 1.181212375 1.365106197
H 0.801694576 -4.387611394 -0.375691764
H -0.342728591 -2.747869863 -3.069939817
H -2.156111821 -2.087105373 2.423464188
H -4.069044746 -1.646141145 -0.310862083
H -1.600471057 2.172127836 -1.418139641
H -0.746015705 4.386122422 1.969523268

