9

C 5.156975100 -0.187494884 -1.056764291
O 3.238378250 -2.037415402 -0.794784566
C 0.984057494 -1.059602017 0.048048384
C -0.981778976 -0.958656022 -1.476880776
O -2.741388367 -0.911099533 -2.777599544
H 0.772252568 -0.436184638 1.987846053
H 4.627721979 1.239086749 -2.457258728
H 6.850776763 -1.175039433 -1.681845120
H 5.536472753 0.749294266 0.749659966

