13

C 3.681295660 0.451102608 -1.173073910
O 2.647843843 -1.164633600 0.696746387
C 0.089739635 -1.056769714 0.958114219
C -3.621482276 1.106521063 1.426411256
O -4.493615997 -0.959723132 0.701987807
C -1.386826634 -1.481179015 -1.176937134
O -1.655373780 -1.441906689 -3.350554452
H 3.118243295 -0.130773016 -3.075537337
H 5.724880754 0.313952711 -0.998874610
H 3.082344584 2.403927538 -0.853951003
H -0.570449036 -1.756479797 2.750571434
H -3.286464145 2.665650770 0.101370711
H -3.580825064 1.592980995 3.442238446

