15

C -1.815897775 2.552015813 -0.718072778
C -2.267298998 -0.261171300 -0.301090441
C -0.532667269 -1.950828246 -1.854305306
C 4.038009113 -0.249766160 2.883792931
C 2.970023402 -1.122239899 0.829409092
N 2.124716497 -1.974535729 -1.115739714
H -3.099225224 3.686030142 0.429795001
H -2.118712044 3.062027137 -2.695983596
H 0.108410016 3.095499856 -0.214609204
H -2.051221930 -0.724965346 1.702575888
H -0.586055056 -1.409884713 -3.847141351
H -4.216506142 -0.732426382 -0.802586433
H -1.166474987 -3.914418227 -1.769950351
H 4.205766431 -1.437657753 4.535438470
H 4.768028173 1.656384028 2.933106619

