15

C -1.481793818 2.615859416 -0.455768361
C -1.485576256 -0.161041421 0.194710086
C -0.941509573 -2.032809403 -1.660362827
C 2.836313770 0.064441229 2.363634968
C 3.342885112 -1.424938309 0.330568355
N 3.242855653 -2.672276831 -1.507801817
H -1.508606084 3.741686866 1.262386449
H -3.124157155 3.140060524 -1.593263811
H 0.211712424 3.104102097 -1.521511288
H -2.011686970 -0.772338777 2.069848602
H -0.659648494 -1.481422109 -3.604669817
H -3.275643932 -1.190897297 -1.138684958
H -1.157058557 -4.013759807 -1.225922652
H 2.794169948 -0.819754859 4.209179069
H 3.420870613 2.024518739 2.300809058

