11

C 0.245351722 1.925235949 0.236722099
C -1.611910476 -0.049787632 1.185698320
C -1.301729432 -2.325100202 -0.459600480
N 0.938217821 -2.731212607 -1.266463873
C 2.909738625 -1.404809249 -0.689050459
C 2.391076853 1.293437540 -0.956996597
H -0.120318598 3.873523874 0.751619801
H -3.553103405 0.639935456 1.074666177
H -2.875658775 -3.410008373 -1.193112963
H -1.234588218 -0.430081351 3.193100223
H 3.807613515 2.655122898 -1.513407122

