12

C -2.884792955 0.443675777 1.864404891
N -0.373954426 1.326831439 1.154600155
C 0.466475095 1.013058856 -1.485401400
C 1.251146206 -0.818014988 0.501621148
C 3.752544439 -0.944452727 -0.516701465
N 4.537454581 -1.200814617 -2.609309833
H -2.886966102 -0.067394720 3.861578480
H -3.531714975 -1.172287765 0.736174578
H -4.199307990 2.002630231 1.585509188
H 1.770579837 2.574311935 -1.763840469
H 2.153508950 -0.505696796 -3.451698623
H 0.401003115 -2.680933307 0.578460870

