16

C 4.899265306 -0.334863721 0.378619971
C 3.042643857 -1.361641687 -1.579505641
C 0.350090681 -1.146508103 -0.732114256
C -1.406386225 0.197102951 -1.900821387
C -4.092846867 0.452706267 -1.067603798
O -4.525722821 -0.959960122 1.152276794
H -6.250428914 -0.738469480 1.651023083
H -5.337649717 -0.185933517 -2.604404955
H -4.507631944 2.464950612 -0.753594206
H -0.935653123 1.228866865 -3.616330504
H -0.168798048 -2.152257782 0.981975469
H 3.479883283 -3.351638569 -1.945271279
H 3.286868036 -0.365215954 -3.373593521
H 6.850641232 -0.560261107 -0.251795575
H 4.561835582 1.670758381 0.726060764
H 4.700539439 -1.322878755 2.180306363

