14

C 3.411451991 -1.076594812 0.025356345
N 1.888888144 -3.308274268 0.096096750
C 1.304223624 -1.414665285 -1.887748073
C -0.447735607 0.634868950 -1.730327310
C -1.963160749 0.840941335 0.566770949
N -2.886528234 3.364141923 1.073039481
H 5.314740113 -1.291271309 -0.694965509
H 3.171768257 0.360555455 1.468816181
H 0.617351472 -3.213772107 1.524286635
H 1.927135596 -2.014578667 -3.742970765
H -3.207292179 4.262119652 -0.583505079
H -1.174928298 0.041020720 2.321204078
H -3.458718369 -0.524995057 -0.036948228
H -4.490850042 3.354655668 2.107104930

