13

O 1.811857408 -3.180138308 2.488376810
C -0.076500781 0.188975088 0.038165041
C 0.027742521 -2.571982375 0.598227500
N -1.796477343 1.371764912 -1.786922567
C -1.813564304 2.170275054 0.887271221
C 0.959148806 1.652089493 -2.081607177
H 3.442512380 -2.604180512 1.945561787
H 0.406024854 -3.602454604 -1.161780661
H -1.803188328 -3.198808254 1.309966275
H -1.078308132 4.037343891 1.338502179
H -3.507792251 1.615839368 1.897478254
H 1.714298691 0.643466183 -3.698955567
H 1.783300850 3.503245740 -1.726081889

