13

O 2.003059728 -1.967696017 2.612920079
C 0.315944331 0.024142215 0.457564073
C -0.632273505 -2.376294659 -0.127536388
N -1.772951066 1.373180638 -1.778856479
C -1.741826426 1.838149829 0.998315553
C 1.031998372 1.428895735 -1.863230520
H 3.639782648 -2.299785223 1.883822129
H 0.201957488 -3.492045522 -1.626235866
H -2.218226968 -3.149484418 0.904687031
H -1.159575729 3.741115659 1.540131516
H -3.398988397 1.184042901 2.020587202
H 1.887136652 0.407419775 -3.429435835
H 1.864169695 3.294918307 -1.575263849

