12

C -2.983336806 -1.470020617 -1.130699844
C -0.854159156 -0.435071494 -0.315064116
C -0.123936441 2.326319642 -0.309436587
O 2.359238086 2.397652004 0.736650222
C 3.137179277 0.041243726 1.352093108
O 5.138488344 -0.443230141 2.266447393
N 1.228047064 -1.614779609 0.733850064
H -4.460145338 -0.296967116 -1.913972407
H -3.307976182 -3.485800450 -1.038566266
H -0.072569584 3.122673664 -2.209683195
H -1.377930181 3.458451143 0.871649762
H 1.422511787 -3.478180904 1.022224103

