15

N 3.502695017 -1.895409287 1.212626539
C 1.827946688 0.224877069 1.535584343
C 1.269342209 2.064723853 -0.507558667
N 2.169021920 3.781440335 -1.874349461
C -0.671205907 0.265754660 0.158257174
C -3.395267602 0.130412419 0.805230897
C -2.293526979 -1.628899927 -1.136987681
H 5.321958565 -1.333027699 1.395167620
H 3.316109129 -2.617800108 -0.549148327
H 1.785572716 0.941176792 3.460783235
H 0.877045781 4.352597509 -3.187162835
H -3.888964505 -0.652646113 2.629750188
H -4.602712683 1.649821897 0.157437959
H -2.750424924 -1.308865264 -3.105540670
H -2.039216878 -3.589734820 -0.607762227

