12

C 2.651942489 -2.496483603 0.208162290
C 0.642931712 -0.497612510 0.056619067
C -1.208645567 -0.529769545 2.135631555
N -3.471381802 -0.128990759 2.659301725
O -0.997574856 -1.064674854 4.529569057
C 1.033023756 1.949790824 -1.192256558
H -0.004494676 3.599906158 -0.553146685
H 2.857678220 2.298238709 -2.065048584
O -0.442269159 0.030761982 -2.322590778
H 4.021357432 -2.227155829 -1.303833717
H 3.621788109 -2.397692803 2.023856069
H 1.812499254 -4.369605403 0.020862180

