10

N -3.066515350 -0.454534937 0.646187370
C -0.734514983 0.196599018 -0.219180433
N 1.024173110 -1.823877635 0.203156065
C 3.501865560 -1.050787994 -0.342958117
N 3.316346630 -0.911587215 1.971086903
N -0.026474137 2.169771536 -1.384429686
H -4.435935300 0.849637873 0.746943560
H -3.189885855 -1.971364258 1.777741975
H 4.755535269 -0.777933349 -1.926923701
H -1.441569165 3.437240857 -1.641621827

