12

C -1.998064029 -1.866257465 -0.138631140
C -0.140514876 0.083514745 0.699018518
C -0.914413924 2.716616835 1.480616141
O -0.091510479 0.965142337 3.263406349
C 2.281424738 0.426333212 -0.280003611
O 3.075302387 -0.415839922 -2.510723653
H -1.284567827 -3.779512664 0.167594311
H -3.733222424 -1.611583308 0.932944427
H -2.468820110 -1.624226709 -2.135669917
H 0.438466841 4.299178712 1.269341359
H 1.761127824 -1.358850542 -3.343985783
H 3.688053359 1.447454963 0.788363201

