12

C -1.839659626 -2.268376444 0.027040639
C 0.025733383 -0.399532171 1.013919494
C -0.161926247 2.421091864 0.372666105
O -0.805036255 1.334833295 2.799663174
C 2.429095761 0.164741051 -0.137588446
O 2.232336854 0.291858600 -2.575161670
H -2.189203609 -3.664066876 1.506335503
H -3.623310567 -1.346362778 -0.436256353
H -1.100974226 -3.225879431 -1.635948832
H 1.319930990 3.836903344 0.614637863
H 0.142290009 1.574765056 -2.212353926
H 4.183986922 0.561992795 0.855314762

