13

O 5.472693779 0.257903755 -0.421287738
N 3.406617448 0.459826680 -1.306809223
C 1.348043576 -0.230853252 0.416881029
C -0.617656077 -2.041142944 -0.748716086
C -2.730594289 -0.343286060 0.323155186
C -0.754752022 1.780424233 0.608869644
H 2.117104869 -0.847255155 2.229727369
H -0.528753477 -1.953843134 -2.807035506
H -0.532150316 -4.007572693 -0.149271451
H -4.351915563 0.028931424 -0.888469912
H -3.410230208 -1.017184204 2.147714426
H -0.708824534 3.013378519 -1.043343059
H -0.780226022 2.930002158 2.314833263

