13

O 4.757102381 -1.404189324 -0.479119763
N 3.448443286 0.820387162 0.052125582
C 1.098720765 0.454543988 0.000922659
C -0.602132411 -1.786817422 -0.443550866
C -2.877653343 -0.041092000 0.181526959
C -1.060361158 2.251194204 0.477904254
H 6.490956109 -0.888965946 -0.369037887
H -0.537353563 -2.502020160 -2.376322306
H -0.278939506 -3.366480856 0.839900209
H -4.264641888 0.149899804 -1.325822476
H -3.859439915 -0.550632404 1.916439784
H -1.269465533 3.703958087 -0.969323186
H -1.045235185 3.160214887 2.326309079

