13

O 4.959405481 -0.929346445 -0.300525848
N 3.425059116 0.799364223 -0.988156631
C 1.282912843 0.280242000 0.317046816
C -0.499630718 -1.911067576 -0.645758213
C -2.730793013 -0.312012567 0.331211977
C -0.983352229 2.010615854 0.592996833
H 3.160060100 -1.375831035 1.332938183
H -0.441225936 -2.035021327 -2.702842603
H -0.251849923 -3.784453920 0.160815504
H -4.328943656 -0.128263838 -0.951165620
H -3.413708003 -0.980069359 2.154724895
H -1.140316623 3.333003866 -0.983841933
H -1.108256493 3.062169452 2.358808362

