10

N 3.375603868 -0.277790194 0.012937991
C 0.934417299 -1.061921259 0.128872084
C -0.993520600 1.008790229 -0.030353669
N -3.224495641 0.802778769 1.775463664
C -3.599283153 0.318488583 -0.485642625
O 0.332368735 -3.264440067 0.296024067
H 4.741424816 -1.580239328 0.214191556
H 3.837271708 1.555305582 0.135056458
H -0.332269581 2.913496553 -0.421570819
H -5.082897382 -0.280791532 -1.750399830

