15

C 4.892241061 -0.302881373 1.402066594
N 2.529722676 0.419531048 0.252031885
C 1.111522261 -1.298522547 -0.581129164
C -1.390278880 -0.788141461 -1.784249814
C -3.277050663 0.866691763 -0.511080947
N -4.748025781 0.940158551 1.581888038
C -2.190240521 1.864754754 -2.447626945
H 5.222180988 -2.354493871 1.400498424
H 6.447752151 0.622310397 0.409593621
H 4.935720768 0.374373454 3.351756734
H 1.667633359 -3.303581983 -0.464314742
H -2.075933406 -2.378589372 -2.910428621
H -5.401032397 -0.719694825 2.228988372
H -5.957769014 2.396036080 1.737712322
H -1.732922641 3.452474979 -3.621612761

