16

C 4.066541918 1.073451045 -1.413692964
O 1.397346701 1.004876833 -1.093396348
C 0.372551285 -1.275597373 -0.747037896
C -2.190669318 -1.539142055 -0.020347626
C -3.465383755 0.557046192 1.363813681
O -4.139510819 2.688057801 -0.138930832
H 4.640487438 -0.157176685 -2.970594193
H 4.550011490 3.021472367 -1.844878369
H 4.987537153 0.467138692 0.331430599
H 2.020791311 -2.003786006 1.876619646
H 1.223536212 -2.838525562 -1.778240239
H -3.253910986 -3.018233263 -0.945824045
H -0.086602161 -2.273235743 1.591213610
H -5.232160083 -0.114047938 2.182729918
H -2.251496919 1.177112425 2.940181111
H -2.639071357 3.230589271 -1.000608433

