13

O 3.195559304 2.600985571 -1.867160943
C 2.943359366 0.097451400 -0.980563126
C 0.350072558 -0.387977705 0.000029480
C -1.288333258 1.139149755 1.705872837
C -3.377329245 -0.901787965 1.512604915
C -1.447923917 -2.160792994 -0.204025207
O -1.093624646 3.126888320 2.764061452
H 2.704392102 3.732528044 -0.533879945
H 4.325931187 -0.308835937 0.513054615
H 3.366387730 -1.148948684 -2.567534584
H -5.130973356 -0.277705931 0.623708114
H -3.802505906 -1.871074566 3.283040150
H -1.525226944 -3.921898293 -1.243016340

