16

C -1.184331481 -0.618350098 2.395073151
C 0.291461550 -0.355516935 -0.083477310
C -0.772176639 -2.144916498 -2.099731068
C 0.156006529 2.375631951 -1.091263528
O 1.134040483 4.199877629 0.565661869
C 2.954375600 -1.014534392 0.380494843
N 5.018726950 -1.577588873 0.728907372
H -0.384451684 0.567035889 3.878911634
H -3.154885425 -0.081166458 2.089700174
H -1.145007641 -2.565135728 3.068094896
H -0.650120608 -4.104516588 -1.476824897
H -2.755808357 -1.698755070 -2.451772513
H 0.263405693 -1.971019780 -3.873487893
H -1.824617236 2.765791912 -1.571140693
H 1.264132518 2.510599838 -2.825083392
H -0.029474115 4.467310347 1.927403711

