16

C -1.876420827 -0.617083093 2.296087218
C -0.328450406 -0.090700504 -0.066543209
C -0.595763033 -2.173726525 -2.026865288
C -0.486404147 2.631056537 -1.092497443
O 2.152952558 3.052145097 -0.461148695
C 2.386891336 0.650348830 0.474740606
N 4.240036010 -0.454987942 1.426806983
H -1.657621742 0.885171867 3.692017966
H -3.880083510 -0.787096159 1.826921700
H -1.260679270 -2.382813307 3.163652658
H 0.063155252 -3.965907331 -1.249364384
H -2.571987950 -2.394535316 -2.583022099
H 0.516082731 -1.769859171 -3.716332619
H -1.704228737 3.923810884 -0.046788806
H -0.794140037 2.822754815 -3.121639171
H 5.796661792 0.671421317 1.483974581

