16

C -1.855142077 -0.585043183 2.340837595
C -0.171490945 -0.296169878 0.017729448
C -0.650707784 -2.327877910 -1.960561261
C -0.062624428 2.500107228 -0.886870845
O 1.909471249 3.443318689 0.617040366
C 2.544615173 -0.090734765 0.729823624
N 4.788778405 -0.230683668 0.710559586
H -1.465582028 0.903646756 3.708930524
H -3.828763707 -0.451413676 1.758215964
H -1.578154487 -2.415957913 3.248847087
H -0.462499376 -4.219592367 -1.161896766
H -2.578129201 -2.130191450 -2.668830726
H 0.646238619 -2.153293257 -3.552142271
H -1.851677793 3.464501366 -0.500224603
H 0.327298921 2.607776302 -2.925319511
H 4.284024979 2.013564866 0.509700200

