16

C 3.934310354 0.318866188 0.616003417
C 1.138272771 0.788154764 0.305844369
C -0.198901517 -0.997764150 -1.546102427
C -3.021011633 -0.894938048 -1.131227040
C -2.613619958 0.817742528 2.528779608
O -0.124518779 0.333348917 2.643777663
H 4.739904607 1.627181296 1.987766665
H 4.911070614 0.574410148 -1.182025940
H 4.265958498 -1.607022964 1.274556020
H 0.775093223 2.756771663 -0.251926627
H 0.275966495 -0.477734575 -3.487192592
H 0.503199598 -2.911475586 -1.220313454
H -3.957149244 -2.704728493 -1.449923890
H -4.004877527 0.588755361 -2.153255273
H -3.717581520 -0.877926223 1.266324827
H -2.969442651 2.612176982 1.524044580

