11

N -3.122800049 2.079723573 3.068058859
C -1.196375046 1.540512900 1.764954312
C -1.213162352 -0.717775600 -0.063227950
O -2.872344800 -2.185366823 -0.519791696
N 1.183269682 -0.701917755 -1.116009265
H 1.758111160 -1.958364322 -2.413483184
C 2.609202497 1.277607569 -0.150691221
H 4.528377641 1.539490861 -0.796971508
C 1.326825127 2.654481223 1.541848540
H 2.022886885 4.281337675 2.550359203
H -2.792232563 3.620824632 4.175600733

