12

N -1.615374155 2.439536819 2.370677939
C -0.136864038 -0.578690170 -3.715268854
C -1.126244834 0.973682973 -1.856498239
N -0.513809768 0.759657184 0.631976535
C 1.118205485 -1.035924164 1.388978805
N 2.164823856 -2.602777485 -0.185447461
C 1.535056826 -2.340086637 -2.648667292
H -0.237207343 3.417222648 3.264639887
H -2.634203403 1.447411650 3.648480358
H -2.471141979 2.491018099 -2.180159455
H 1.526451977 -1.121178875 3.397739099
H 2.493684843 -3.704992391 -3.851729058

