12

N -2.952893847 0.519687610 1.668773885
C -0.501162644 -0.085163626 -1.840384695
C 0.100801922 2.319482878 -2.336150470
N 0.781786916 1.439556720 0.102151867
C 2.494952395 -0.196589097 1.077465031
N 2.194366889 -2.538760820 0.280945904
C 0.361963584 -2.533349344 -1.488449150
H -2.566598092 1.973562067 2.871070123
H -2.828240765 -1.057645867 2.776073515
H -0.592644512 4.149396865 -2.880868844
H 3.767923238 0.355152577 2.569757317
H -0.156879526 -4.200454147 -2.535664069

