9

O 0.866680671 2.902002747 -0.231914314
C 3.063897418 1.614514216 -0.225737839
O 3.407844939 -0.468926184 0.545121302
C -2.780669707 -2.418545949 -0.755710170
C -1.860571902 -0.304355529 0.075335104
N -1.187451608 1.700061249 1.041175203
H 4.496675217 2.856432361 -1.071128326
H -4.288953385 -2.416480441 -2.134114275
H -2.013316632 -4.189236676 -0.082878777

