8

O -2.336242821 -3.000452905 -0.044207195
C -2.742944348 -0.816362895 0.340118615
C -0.687808380 1.231457056 0.290535565
O -1.275417622 3.389377798 0.697958042
C 1.864120865 0.413615450 -0.251722594
C 3.967930547 -0.285514695 -0.701107441
H -4.635181862 -0.037918640 0.769454866
H 5.845543622 -0.894201168 -1.101029859

