15

C -2.565128698 -2.559515059 -0.299036555
C -0.714087554 -0.496811323 -0.777276197
C -1.051962440 1.921471842 -2.093325841
N -0.571349642 1.974719788 0.632131436
C 1.601220522 0.188346830 0.583758547
O 2.005291721 -0.817559715 2.953019514
N 3.949241080 0.589106983 -0.602395197
H -4.479315286 -1.801588183 -0.169185309
H -2.512827013 -3.944377171 -1.825944410
H -2.113568304 -3.532765492 1.461159294
H 0.370566506 2.660295797 -3.379035648
H -2.971761043 2.456046771 -2.573115550
H 0.625756048 -0.264897613 4.000170862
H 3.819263790 0.947207608 -2.465180837
H 4.990543726 1.915012002 0.291436284

