25

C     3.34772   1.08361   0.81966
C     2.48571   0.69589  -0.35909
O     2.95374   0.33965  -1.43604
C     0.99968   0.67112  -0.18151
N     0.34837   1.53082   0.55087
N    -0.89576   1.76171   0.44736
C    -1.61744   2.03862   1.69143
C    -1.39464   0.13747  -0.95268
C    -2.29841  -0.48535   0.02022
O    -3.48854  -0.16533   0.14847
C    -1.71169  -1.52532   0.90881
C    -0.50239  -2.06969   0.67689
C     0.31118  -1.66488  -0.49492
O     1.25950  -2.34212  -0.87732
C    -0.05222  -0.33713  -1.13225
H     3.15884   2.06761   1.23431
H     4.46837   1.05211   0.51062
H     3.26504   0.34454   1.65028
H    -2.64774   1.83709   1.57701
H    -1.18464   1.44027   2.54975
H    -1.50951   3.13041   2.01729
H    -1.90960   0.73201  -1.74959
H    -2.32272  -1.82154   1.76692
H    -0.07039  -2.83134   1.31733
H     0.36799  -0.24738  -2.18565
25

C     3.35801   1.08222   0.82232
C     2.49217   0.69943  -0.35380
O     2.95238   0.34432  -1.43342
C     1.01087   0.68089  -0.16582
N     0.34136   1.52742   0.54420
N    -0.89588   1.77295   0.45113
C    -1.61304   2.04256   1.69817
C    -1.40269   0.12287  -0.96617
C    -2.30044  -0.48853   0.01805
O    -3.48817  -0.16364   0.15018
C    -1.71141  -1.52412   0.90966
C    -0.50197  -2.06766   0.67709
C     0.30812  -1.66635  -0.49833
O     1.26070  -2.34003  -0.87632
C    -0.06809  -0.35474  -1.14945
H     3.16311   2.06756   1.23503
H     4.47121   1.05040   0.51107
H     3.26735   0.34447   1.65121
H    -2.64637   1.83715   1.57983
H    -1.18194   1.44096   2.55060
H    -1.50914   3.13126   2.02046
H    -1.91169   0.72960  -1.75178
H    -2.32200  -1.82021   1.76795
H    -0.06933  -2.82962   1.31809
H     0.36627  -0.24934  -2.18790
25

C     3.36830   1.08083   0.82498
C     2.49863   0.70296  -0.34852
O     2.95103   0.34900  -1.43079
C     1.02207   0.69067  -0.15013
N     0.33435   1.52402   0.53753
N    -0.89600   1.78420   0.45489
C    -1.60864   2.04651   1.70491
C    -1.41074   0.10827  -0.97966
C    -2.30248  -0.49170   0.01588
O    -3.48780  -0.16195   0.15188
C    -1.71114  -1.52291   0.91051
C    -0.50155  -2.06564   0.67730
C     0.30506  -1.66782  -0.50173
O     1.26190  -2.33794  -0.87533
C    -0.08397  -0.37235  -1.16664
H     3.16737   2.06752   1.23574
H     4.47405   1.04870   0.51152
H     3.26966   0.34439   1.65215
H    -2.64501   1.83722   1.58266
H    -1.17923   1.44164   2.55145
H    -1.50876   3.13211   2.02362
H    -1.91378   0.72718  -1.75398
H    -2.32128  -1.81888   1.76897
H    -0.06828  -2.82790   1.31886
H     0.36455  -0.25130  -2.19016
25

C     3.37859   1.07943   0.82764
C     2.50508   0.70649  -0.34323
O     2.94967   0.35367  -1.42816
C     1.03326   0.70044  -0.13443
N     0.32734   1.52063   0.53087
N    -0.89612   1.79544   0.45865
C    -1.60424   2.05045   1.71165
C    -1.41878   0.09367  -0.99315
C    -2.30451  -0.49488   0.01370
O    -3.48743  -0.16026   0.15359
C    -1.71087  -1.52171   0.91136
C    -0.50112  -2.06362   0.67750
C     0.30200  -1.66929  -0.50513
O     1.26310  -2.33585  -0.87433
C    -0.09984  -0.38997  -1.18384
H     3.17164   2.06747   1.23646
H     4.47689   1.04699   0.51197
H     3.27197   0.34432   1.65309
H    -2.64364   1.83729   1.58549
H    -1.17653   1.44233   2.55230
H    -1.50839   3.13296   2.02678
H    -1.91587   0.72477  -1.75617
H    -2.32056  -1.81754   1.77000
H    -0.06723  -2.82618   1.31962
H     0.36283  -0.25326  -2.19241
25

C     3.38887   1.07804   0.83030
C     2.51154   0.71002  -0.33795
O     2.94832   0.35834  -1.42554
C     1.04446   0.71021  -0.11874
N     0.32033   1.51723   0.52420
N    -0.89623   1.80669   0.46241
C    -1.59983   2.05439   1.71838
C    -1.42683   0.07907  -1.00664
C    -2.30654  -0.49806   0.01153
O    -3.48706  -0.15857   0.15530
C    -1.71059  -1.52050   0.91221
C    -0.50070  -2.06160   0.67770
C     0.29894  -1.67076  -0.50853
O     1.26429  -2.33376  -0.87333
C    -0.11571  -0.40758  -1.20103
H     3.17590   2.06742   1.23718
H     4.47973   1.04529   0.51243
H     3.27428   0.34425   1.65402
H    -2.64228   1.83735   1.58831
H    -1.17383   1.44301   2.55315
H    -1.50802   3.13381   2.02995
H    -1.91796   0.72236  -1.75837
H    -2.31983  -1.81621   1.77103
H    -0.06617  -2.82446   1.32039
H     0.36111  -0.25522  -2.19466
25

C     3.39916   1.07665   0.83296
C     2.51800   0.71355  -0.33266
O     2.94696   0.36302  -1.42291
C     1.05565   0.71998  -0.10304
N     0.31332   1.51383   0.51753
N    -0.89635   1.81793   0.46617
C    -1.59543   2.05833   1.72512
C    -1.43488   0.06447  -1.02013
C    -2.30857  -0.50123   0.00935
O    -3.48669  -0.15688   0.15700
C    -1.71032  -1.51930   0.91307
C    -0.50028  -2.05958   0.67791
C     0.29588  -1.67223  -0.51194
O     1.26549  -2.33167  -0.87234
C    -0.13159  -0.42519  -1.21823
H     3.18017   2.06738   1.23789
H     4.48257   1.04358   0.51288
H     3.27659   0.34417   1.65496
H    -2.64091   1.83742   1.59114
H    -1.17112   1.44370   2.55401
H    -1.50765   3.13466   2.03311
H    -1.92005   0.71994  -1.76056
H    -2.31911  -1.81488   1.77206
H    -0.06512  -2.82273   1.32115
H     0.35939  -0.25718  -2.19691
25

C     3.40945   1.07525   0.83561
C     2.52446   0.71708  -0.32738
O     2.94560   0.36769  -1.42029
C     1.06685   0.72976  -0.08735
N     0.30631   1.51043   0.51086
N    -0.89647   1.82917   0.46993
C    -1.59103   2.06227   1.73186
C    -1.44293   0.04987  -1.03362
C    -2.31061  -0.50441   0.00718
O    -3.48631  -0.15519   0.15871
C    -1.71004  -1.51809   0.91392
C    -0.49986  -2.05756   0.67811
C     0.29283  -1.67371  -0.51534
O     1.26669  -2.32958  -0.87134
C    -0.14746  -0.44280  -1.23542
H     3.18444   2.06733   1.23861
H     4.48541   1.04188   0.51333
H     3.27890   0.34410   1.65589
H    -2.63955   1.83749   1.59397
H    -1.16842   1.44438   2.55486
H    -1.50727   3.13551   2.03627
H    -1.92214   0.71753  -1.76276
H    -2.31839  -1.81355   1.77309
H    -0.06406  -2.82101   1.32192
H     0.35767  -0.25914  -2.19916
25

C     3.41974   1.07386   0.83827
C     2.53092   0.72061  -0.32209
O     2.94425   0.37237  -1.41766
C     1.07804   0.73953  -0.07166
N     0.29930   1.50703   0.50419
N    -0.89659   1.84042   0.47369
C    -1.58663   2.06621   1.73860
C    -1.45098   0.03528  -1.04711
C    -2.31264  -0.50758   0.00501
O    -3.48594  -0.15350   0.16041
C    -1.70977  -1.51689   0.91477
C    -0.49944  -2.05554   0.67831
C     0.28977  -1.67518  -0.51874
O     1.26789  -2.32749  -0.87034
C    -0.16333  -0.46042  -1.25262
H     3.18870   2.06728   1.23933
H     4.48825   1.04017   0.51378
H     3.28121   0.34403   1.65683
H    -2.63818   1.83755   1.59679
H    -1.16572   1.44507   2.55571
H    -1.50690   3.13635   2.03944
H    -1.92424   0.71512  -1.76495
H    -2.31767  -1.81222   1.77411
H    -0.06301  -2.81929   1.32268
H     0.35594  -0.26110  -2.20141
25

C     3.43003   1.07247   0.84093
C     2.53738   0.72415  -0.31681
O     2.94289   0.37704  -1.41504
C     1.08924   0.74930  -0.05596
N     0.29229   1.50363   0.49752
N    -0.89671   1.85166   0.47745
C    -1.58222   2.07015   1.74534
C    -1.45902   0.02068  -1.06061
C    -2.31467  -0.51076   0.00283
O    -3.48557  -0.15181   0.16212
C    -1.70949  -1.51568   0.91562
C    -0.49902  -2.05351   0.67852
C     0.28671  -1.67665  -0.52214
O     1.26909  -2.32540  -0.86935
C    -0.17920  -0.47803  -1.26981
H     3.19297   2.06723   1.24004
H     4.49109   1.03846   0.51424
H     3.28352   0.34396   1.65776
H    -2.63682   1.83762   1.59962
H    -1.16302   1.44575   2.55656
H    -1.50653   3.13720   2.04260
H    -1.92633   0.71271  -1.76715
H    -2.31695  -1.81089   1.77514
H    -0.06196  -2.81757   1.32345
H     0.35422  -0.26306  -2.20366
25

C     3.44031   1.07107   0.84359
C     2.54384   0.72768  -0.31152
O     2.94153   0.38171  -1.41241
C     1.10043   0.75907  -0.04027
N     0.28528   1.50023   0.49086
N    -0.89683   1.86291   0.48121
C    -1.57782   2.07409   1.75207
C    -1.46707   0.00608  -1.07410
C    -2.31671  -0.51394   0.00066
O    -3.48520  -0.15012   0.16383
C    -1.70922  -1.51448   0.91647
C    -0.49860  -2.05149   0.67872
C     0.28365  -1.67812  -0.52555
O     1.27029  -2.32331  -0.86835
C    -0.19508  -0.49564  -1.28701
H     3.19723   2.06719   1.24076
H     4.49393   1.03676   0.51469
H     3.28583   0.34388   1.65870
H    -2.63545   1.83769   1.60245
H    -1.16031   1.44644   2.55741
H    -1.50615   3.13805   2.04576
H    -1.92842   0.71029  -1.76934
H    -2.31622  -1.80956   1.77617
H    -0.06090  -2.81585   1.32421
H     0.35250  -0.26502  -2.20591
25

C     3.45060   1.06968   0.84625
C     2.55029   0.73121  -0.30624
O     2.94018   0.38639  -1.40979
C     1.11163   0.76884  -0.02457
N     0.27827   1.49683   0.48419
N    -0.89694   1.87415   0.48497
C    -1.57342   2.07803   1.75881
C    -1.47512  -0.00852  -1.08759
C    -2.31874  -0.51711  -0.00151
O    -3.48483  -0.14843   0.16553
C    -1.70894  -1.51327   0.91732
C    -0.49817  -2.04947   0.67892
C     0.28059  -1.67959  -0.52895
O     1.27149  -2.32122  -0.86735
C    -0.21095  -0.51325  -1.30420
H     3.20150   2.06714   1.24147
H     4.49677   1.03505   0.51514
H     3.28814   0.34381   1.65964
H    -2.63409   1.83775   1.60527
H    -1.15761   1.44712   2.55826
H    -1.50578   3.13890   2.04893
H    -1.93051   0.70788  -1.77154
H    -2.31550  -1.80822   1.77720
H    -0.05985  -2.81413   1.32498
H     0.35078  -0.26698  -2.20816
25

C     3.46089   1.06829   0.84891
C     2.55675   0.73474  -0.30095
O     2.93882   0.39106  -1.40716
C     1.12282   0.77862  -0.00888
N     0.27126   1.49343   0.47752
N    -0.89706   1.88540   0.48874
C    -1.56902   2.08197   1.76555
C    -1.48317  -0.02312  -1.10108
C    -2.32077  -0.52029  -0.00369
O    -3.48446  -0.14674   0.16724
C    -1.70867  -1.51207   0.91817
C    -0.49775  -2.04745   0.67912
C     0.27754  -1.68106  -0.53235
O     1.27269  -2.31913  -0.86636
C    -0.22682  -0.53087  -1.32140
H     3.20576   2.06709   1.24219
H     4.49961   1.03335   0.51559
H     3.29045   0.34374   1.66057
H    -2.63272   1.83782   1.60810
H    -1.15491   1.44781   2.55911
H    -1.50541   3.13975   2.05209
H    -1.93260   0.70547  -1.77373
H    -2.31478  -1.80689   1.77822
H    -0.05879  -2.81241   1.32574
H     0.34906  -0.26894  -2.21041
25

C     3.47118   1.06689   0.85157
C     2.56321   0.73827  -0.29567
O     2.93746   0.39573  -1.40454
C     1.13402   0.78839   0.00681
N     0.26425   1.49004   0.47085
N    -0.89718   1.89664   0.49250
C    -1.56462   2.08591   1.77229
C    -1.49122  -0.03772  -1.11457
C    -2.32280  -0.52346  -0.00586
O    -3.48409  -0.14505   0.16894
C    -1.70840  -1.51086   0.91902
C    -0.49733  -2.04543   0.67933
C     0.27448  -1.68253  -0.53575
O     1.27389  -2.31704  -0.86536
C    -0.24270  -0.54848  -1.33859
H     3.21003   2.06705   1.24291
H     4.50245   1.03164   0.51605
H     3.29276   0.34366   1.66151
H    -2.63136   1.83788   1.61093
H    -1.15220   1.44850   2.55996
H    -1.50504   3.14060   2.05525
H    -1.93469   0.70305  -1.77593
H    -2.31406  -1.80556   1.77925
H    -0.05774  -2.81069   1.32651
H     0.34734  -0.27091  -2.21267
25

C     3.48147   1.06550   0.85422
C     2.56967   0.74180  -0.29038
O     2.93611   0.40041  -1.40191
C     1.14521   0.79816   0.02251
N     0.25724   1.48664   0.46418
N    -0.89730   1.90789   0.49626
C    -1.56021   2.08985   1.77903
C    -1.49927  -0.05232  -1.12806
C    -2.32484  -0.52664  -0.00804
O    -3.48372  -0.14336   0.17065
C    -1.70812  -1.50965   0.91987
C    -0.49691  -2.04341   0.67953
C     0.27142  -1.68400  -0.53916
O     1.27508  -2.31495  -0.86436
C    -0.25857  -0.56609  -1.35579
H     3.21429   2.06700   1.24362
H     4.50528   1.02994   0.51650
H     3.29507   0.34359   1.66244
H    -2.62999   1.83795   1.61375
H    -1.14950   1.44918   2.56081
H    -1.50466   3.14145   2.05842
H    -1.93679   0.70064  -1.77812
H    -2.31334  -1.80423   1.78028
H    -0.05669  -2.80897   1.32727
H     0.34562  -0.27287  -2.21492
25

C     3.49175   1.06411   0.85688
C     2.57613   0.74534  -0.28510
O     2.93475   0.40508  -1.39929
C     1.15641   0.80793   0.03820
N     0.25023   1.48324   0.45751
N    -0.89742   1.91913   0.50002
C    -1.55581   2.09380   1.78577
C    -1.50731  -0.06692  -1.14155
C    -2.32687  -0.52982  -0.01021
O    -3.48335  -0.14167   0.17236
C    -1.70785  -1.50845   0.92072
C    -0.49649  -2.04139   0.67973
C     0.26836  -1.68548  -0.54256
O     1.27628  -2.31286  -0.86337
C    -0.27444  -0.58370  -1.37298
H     3.21856   2.06695   1.24434
H     4.50812   1.02823   0.51695
H     3.29738   0.34352   1.66338
H    -2.62863   1.83802   1.61658
H    -1.14680   1.44987   2.56166
H    -1.50429   3.14230   2.06158
H    -1.93888   0.69823  -1.78032
H    -2.31262  -1.80290   1.78131
H    -0.05563  -2.80725   1.32804
H     0.34389  -0.27483  -2.21717
25

C     3.50204   1.06271   0.85954
C     2.58259   0.74887  -0.27981
O     2.93340   0.40976  -1.39666
C     1.16760   0.81771   0.05390
N     0.24322   1.47984   0.45085
N    -0.89754   1.93038   0.50378
C    -1.55141   2.09774   1.79250
C    -1.51536  -0.08152  -1.15504
C    -2.32890  -0.53299  -0.01238
O    -3.48298  -0.13998   0.17406
C    -1.70757  -1.50724   0.92158
C    -0.49607  -2.03936   0.67994
C     0.26530  -1.68695  -0.54596
O     1.27748  -2.31077  -0.86237
C    -0.29031  -0.60131  -1.39018
H     3.22282   2.06690   1.24506
H     4.51096   1.02652   0.51740
H     3.29969   0.34345   1.66431
H    -2.62726   1.83808   1.61941
H    -1.14409   1.45055   2.56251
H    -1.50392   3.14315   2.06474
H    -1.94097   0.69581  -1.78251
H    -2.31189  -1.80157   1.78234
H    -0.05458  -2.80553   1.32880
H     0.34217  -0.27679  -2.21942
25

C     3.51233   1.06132   0.86220
C     2.58905   0.75240  -0.27453
O     2.93204   0.41443  -1.39404
C     1.17880   0.82748   0.06959
N     0.23621   1.47644   0.44418
N    -0.89765   1.94162   0.50754
C    -1.54701   2.10168   1.79924
C    -1.52341  -0.09612  -1.16853
C    -2.33094  -0.53617  -0.01456
O    -3.48261  -0.13829   0.17577
C    -1.70730  -1.50604   0.92243
C    -0.49564  -2.03734   0.68014
C     0.26224  -1.68842  -0.54937
O     1.27868  -2.30868  -0.86137
C    -0.30619  -0.61893  -1.40737
H     3.22709   2.06686   1.24577
H     4.51380   1.02482   0.51786
H     3.30200   0.34337   1.66525
H    -2.62590   1.83815   1.62224
H    -1.14139   1.45124   2.56336
H    -1.50354   3.14400   2.06791
H    -1.94306   0.69340  -1.78471
H    -2.31117  -1.80024   1.78336
H    -0.05352  -2.80381   1.32957
H     0.34045  -0.27875  -2.22167
25

C     3.52262   1.05993   0.86486
C     2.59550   0.75593  -0.26924
O     2.93068   0.41910  -1.39141
C     1.18999   0.83725   0.08529
N     0.22920   1.47304   0.43751
N    -0.89777   1.95287   0.51130
C    -1.54261   2.10562   1.80598
C    -1.53146  -0.11071  -1.18202
C    -2.33297  -0.53935  -0.01673
O    -3.48224  -0.13660   0.17747
C    -1.70702  -1.50483   0.92328
C    -0.49522  -2.03532   0.68034
C     0.25919  -1.68989  -0.55277
O     1.27988  -2.30659  -0.86037
C    -0.32206  -0.63654  -1.42457
H     3.23135   2.06681   1.24649
H     4.51664   1.02311   0.51831
H     3.30431   0.34330   1.66619
H    -2.62453   1.83822   1.62506
H    -1.13869   1.45192   2.56421
H    -1.50317   3.14484   2.07107
H    -1.94515   0.69099  -1.78690
H    -2.31045  -1.79890   1.78439
H    -0.05247  -2.80209   1.33033
H     0.33873  -0.28071  -2.22392
25

C     3.53291   1.05853   0.86752
C     2.60196   0.75946  -0.26396
O     2.92933   0.42378  -1.38879
C     1.20119   0.84702   0.10098
N     0.22219   1.46964   0.43084
N    -0.89789   1.96411   0.51506
C    -1.53820   2.10956   1.81272
C    -1.53951  -0.12531  -1.19551
C    -2.33500  -0.54252  -0.01890
O    -3.48186  -0.13491   0.17918
C    -1.70675  -1.50363   0.92413
C    -0.49480  -2.03330   0.68055
C     0.25613  -1.69136  -0.55617
O     1.28108  -2.30450  -0.85938
C    -0.33793  -0.65415  -1.44176
H     3.23562   2.06676   1.24721
H     4.51948   1.02141   0.51876
H     3.30662   0.34323   1.66712
H    -2.62317   1.83828   1.62789
H    -1.13599   1.45261   2.56506
H    -1.50280   3.14569   2.07423
H    -1.94724   0.68858  -1.78910
H    -2.30973  -1.79757   1.78542
H    -0.05141  -2.80037   1.33110
H     0.33701  -0.28267  -2.22617
25

C     3.54320   1.05714   0.87018
C     2.60842   0.76299  -0.25867
O     2.92797   0.42845  -1.38616
C     1.21239   0.85679   0.11667
N     0.21518   1.46624   0.42417
N    -0.89801   1.97536   0.51882
C    -1.53380   2.11350   1.81946
C    -1.54755  -0.13991  -1.20901
C    -2.33703  -0.54570  -0.02108
O    -3.48149  -0.13322   0.18088
C    -1.70648  -1.50242   0.92498
C    -0.49438  -2.03128   0.68075
C     0.25307  -1.69283  -0.55957
O     1.28228  -2.30241  -0.85838
C    -0.35380  -0.67176  -1.45896
H     3.23988   2.06672   1.24792
H     4.52232   1.01970   0.51921
H     3.30893   0.34315   1.66806
H    -2.62180   1.83835   1.63072
H    -1.13328   1.45329   2.56591
H    -1.50243   3.14654   2.07739
H    -1.94934   0.68616  -1.79129
H    -2.30901  -1.79624   1.78645
H    -0.05036  -2.79865   1.33186
H     0.33529  -0.28463  -2.22842
25

C     3.55348   1.05575   0.87284
C     2.61488   0.76652  -0.25339
O     2.92661   0.43313  -1.38354
C     1.22358   0.86657   0.13237
N     0.20817   1.46285   0.41750
N    -0.89813   1.98660   0.52259
C    -1.52940   2.11744   1.82619
C    -1.55560  -0.15451  -1.22250
C    -2.33907  -0.54887  -0.02325
O    -3.48112  -0.13153   0.18259
C    -1.70620  -1.50122   0.92583
C    -0.49396  -2.02926   0.68095
C     0.25001  -1.69430  -0.56298
O     1.28348  -2.30032  -0.85738
C    -0.36968  -0.68938  -1.47615
H     3.24415   2.06667   1.24864
H     4.52516   1.01800   0.51967
H     3.31124   0.34308   1.66899
H    -2.62044   1.83841   1.63354
H    -1.13058   1.45398   2.56677
H    -1.50205   3.14739   2.08056
H    -1.95143   0.68375  -1.79349
H    -2.30828  -1.79491   1.78747
H    -0.04931  -2.79693   1.33263
H     0.33357  -0.28659  -2.23067
25

C     3.54320   1.05714   0.87018
C     2.60842   0.76299  -0.25867
O     2.92797   0.42845  -1.38616
C     1.21239   0.85679   0.11667
N     0.21518   1.46624   0.42417
N    -0.89801   1.97536   0.51882
C    -1.53380   2.11350   1.81946
C    -1.54755  -0.13991  -1.20901
C    -2.33703  -0.54570  -0.02108
O    -3.48149  -0.13322   0.18088
C    -1.70648  -1.50242   0.92498
C    -0.49438  -2.03128   0.68075
C     0.25307  -1.69283  -0.55957
O     1.28228  -2.30241  -0.85838
C    -0.35380  -0.67176  -1.45896
H     3.23988   2.06672   1.24792
H     4.52232   1.01970   0.51921
H     3.30893   0.34315   1.66806
H    -2.62180   1.83835   1.63072
H    -1.13328   1.45329   2.56591
H    -1.50243   3.14654   2.07739
H    -1.94934   0.68616  -1.79129
H    -2.30901  -1.79624   1.78645
H    -0.05036  -2.79865   1.33186
H     0.33529  -0.28463  -2.22842
25

C     3.53291   1.05853   0.86752
C     2.60196   0.75946  -0.26396
O     2.92933   0.42378  -1.38879
C     1.20119   0.84702   0.10098
N     0.22219   1.46964   0.43084
N    -0.89789   1.96411   0.51506
C    -1.53820   2.10956   1.81272
C    -1.53951  -0.12531  -1.19551
C    -2.33500  -0.54252  -0.01890
O    -3.48186  -0.13491   0.17918
C    -1.70675  -1.50363   0.92413
C    -0.49480  -2.03330   0.68055
C     0.25613  -1.69136  -0.55617
O     1.28108  -2.30450  -0.85938
C    -0.33793  -0.65415  -1.44176
H     3.23562   2.06676   1.24721
H     4.51948   1.02141   0.51876
H     3.30662   0.34323   1.66712
H    -2.62317   1.83828   1.62789
H    -1.13599   1.45261   2.56506
H    -1.50280   3.14569   2.07423
H    -1.94724   0.68858  -1.78910
H    -2.30973  -1.79757   1.78542
H    -0.05141  -2.80037   1.33110
H     0.33701  -0.28267  -2.22617
25

C     3.52262   1.05993   0.86486
C     2.59550   0.75593  -0.26924
O     2.93068   0.41910  -1.39141
C     1.18999   0.83725   0.08529
N     0.22920   1.47304   0.43751
N    -0.89777   1.95287   0.51130
C    -1.54261   2.10562   1.80598
C    -1.53146  -0.11071  -1.18202
C    -2.33297  -0.53935  -0.01673
O    -3.48224  -0.13660   0.17747
C    -1.70702  -1.50483   0.92328
C    -0.49522  -2.03532   0.68034
C     0.25919  -1.68989  -0.55277
O     1.27988  -2.30659  -0.86037
C    -0.32206  -0.63654  -1.42457
H     3.23135   2.06681   1.24649
H     4.51664   1.02311   0.51831
H     3.30431   0.34330   1.66619
H    -2.62453   1.83822   1.62506
H    -1.13869   1.45192   2.56421
H    -1.50317   3.14484   2.07107
H    -1.94515   0.69099  -1.78690
H    -2.31045  -1.79890   1.78439
H    -0.05247  -2.80209   1.33033
H     0.33873  -0.28071  -2.22392
25

C     3.51233   1.06132   0.86220
C     2.58905   0.75240  -0.27453
O     2.93204   0.41443  -1.39404
C     1.17880   0.82748   0.06959
N     0.23621   1.47644   0.44418
N    -0.89765   1.94162   0.50754
C    -1.54701   2.10168   1.79924
C    -1.52341  -0.09612  -1.16853
C    -2.33094  -0.53617  -0.01456
O    -3.48261  -0.13829   0.17577
C    -1.70730  -1.50604   0.92243
C    -0.49564  -2.03734   0.68014
C     0.26224  -1.68842  -0.54937
O     1.27868  -2.30868  -0.86137
C    -0.30619  -0.61893  -1.40737
H     3.22709   2.06686   1.24577
H     4.51380   1.02482   0.51786
H     3.30200   0.34337   1.66525
H    -2.62590   1.83815   1.62224
H    -1.14139   1.45124   2.56336
H    -1.50354   3.14400   2.06791
H    -1.94306   0.69340  -1.78471
H    -2.31117  -1.80024   1.78336
H    -0.05352  -2.80381   1.32957
H     0.34045  -0.27875  -2.22167
25

C     3.50204   1.06271   0.85954
C     2.58259   0.74887  -0.27981
O     2.93340   0.40976  -1.39666
C     1.16760   0.81771   0.05390
N     0.24322   1.47984   0.45085
N    -0.89754   1.93038   0.50378
C    -1.55141   2.09774   1.79250
C    -1.51536  -0.08152  -1.15504
C    -2.32890  -0.53299  -0.01238
O    -3.48298  -0.13998   0.17406
C    -1.70757  -1.50724   0.92158
C    -0.49607  -2.03936   0.67994
C     0.26530  -1.68695  -0.54596
O     1.27748  -2.31077  -0.86237
C    -0.29031  -0.60131  -1.39018
H     3.22282   2.06690   1.24506
H     4.51096   1.02652   0.51740
H     3.29969   0.34345   1.66431
H    -2.62726   1.83808   1.61941
H    -1.14409   1.45055   2.56251
H    -1.50392   3.14315   2.06474
H    -1.94097   0.69581  -1.78251
H    -2.31189  -1.80157   1.78234
H    -0.05458  -2.80553   1.32880
H     0.34217  -0.27679  -2.21942
25

C     3.49175   1.06411   0.85688
C     2.57613   0.74534  -0.28510
O     2.93475   0.40508  -1.39929
C     1.15641   0.80793   0.03820
N     0.25023   1.48324   0.45751
N    -0.89742   1.91913   0.50002
C    -1.55581   2.09380   1.78577
C    -1.50731  -0.06692  -1.14155
C    -2.32687  -0.52982  -0.01021
O    -3.48335  -0.14167   0.17236
C    -1.70785  -1.50845   0.92072
C    -0.49649  -2.04139   0.67973
C     0.26836  -1.68548  -0.54256
O     1.27628  -2.31286  -0.86337
C    -0.27444  -0.58370  -1.37298
H     3.21856   2.06695   1.24434
H     4.50812   1.02823   0.51695
H     3.29738   0.34352   1.66338
H    -2.62863   1.83802   1.61658
H    -1.14680   1.44987   2.56166
H    -1.50429   3.14230   2.06158
H    -1.93888   0.69823  -1.78032
H    -2.31262  -1.80290   1.78131
H    -0.05563  -2.80725   1.32804
H     0.34389  -0.27483  -2.21717
25

C     3.48147   1.06550   0.85422
C     2.56967   0.74180  -0.29038
O     2.93611   0.40041  -1.40191
C     1.14521   0.79816   0.02251
N     0.25724   1.48664   0.46418
N    -0.89730   1.90789   0.49626
C    -1.56021   2.08985   1.77903
C    -1.49927  -0.05232  -1.12806
C    -2.32484  -0.52664  -0.00804
O    -3.48372  -0.14336   0.17065
C    -1.70812  -1.50965   0.91987
C    -0.49691  -2.04341   0.67953
C     0.27142  -1.68400  -0.53916
O     1.27508  -2.31495  -0.86436
C    -0.25857  -0.56609  -1.35579
H     3.21429   2.06700   1.24362
H     4.50528   1.02994   0.51650
H     3.29507   0.34359   1.66244
H    -2.62999   1.83795   1.61375
H    -1.14950   1.44918   2.56081
H    -1.50466   3.14145   2.05842
H    -1.93679   0.70064  -1.77812
H    -2.31334  -1.80423   1.78028
H    -0.05669  -2.80897   1.32727
H     0.34562  -0.27287  -2.21492
25

C     3.47118   1.06689   0.85157
C     2.56321   0.73827  -0.29567
O     2.93746   0.39573  -1.40454
C     1.13402   0.78839   0.00681
N     0.26425   1.49004   0.47085
N    -0.89718   1.89664   0.49250
C    -1.56462   2.08591   1.77229
C    -1.49122  -0.03772  -1.11457
C    -2.32280  -0.52346  -0.00586
O    -3.48409  -0.14505   0.16894
C    -1.70840  -1.51086   0.91902
C    -0.49733  -2.04543   0.67933
C     0.27448  -1.68253  -0.53575
O     1.27389  -2.31704  -0.86536
C    -0.24270  -0.54848  -1.33859
H     3.21003   2.06705   1.24291
H     4.50245   1.03164   0.51605
H     3.29276   0.34366   1.66151
H    -2.63136   1.83788   1.61093
H    -1.15220   1.44850   2.55996
H    -1.50504   3.14060   2.05525
H    -1.93469   0.70305  -1.77593
H    -2.31406  -1.80556   1.77925
H    -0.05774  -2.81069   1.32651
H     0.34734  -0.27091  -2.21267
25

C     3.46089   1.06829   0.84891
C     2.55675   0.73474  -0.30095
O     2.93882   0.39106  -1.40716
C     1.12282   0.77862  -0.00888
N     0.27126   1.49343   0.47752
N    -0.89706   1.88540   0.48874
C    -1.56902   2.08197   1.76555
C    -1.48317  -0.02312  -1.10108
C    -2.32077  -0.52029  -0.00369
O    -3.48446  -0.14674   0.16724
C    -1.70867  -1.51207   0.91817
C    -0.49775  -2.04745   0.67912
C     0.27754  -1.68106  -0.53235
O     1.27269  -2.31913  -0.86636
C    -0.22682  -0.53087  -1.32140
H     3.20576   2.06709   1.24219
H     4.49961   1.03335   0.51559
H     3.29045   0.34374   1.66057
H    -2.63272   1.83782   1.60810
H    -1.15491   1.44781   2.55911
H    -1.50541   3.13975   2.05209
H    -1.93260   0.70547  -1.77373
H    -2.31478  -1.80689   1.77822
H    -0.05879  -2.81241   1.32574
H     0.34906  -0.26894  -2.21041
25

C     3.45060   1.06968   0.84625
C     2.55029   0.73121  -0.30624
O     2.94018   0.38639  -1.40979
C     1.11163   0.76884  -0.02457
N     0.27827   1.49683   0.48419
N    -0.89694   1.87415   0.48497
C    -1.57342   2.07803   1.75881
C    -1.47512  -0.00852  -1.08759
C    -2.31874  -0.51711  -0.00151
O    -3.48483  -0.14843   0.16553
C    -1.70894  -1.51327   0.91732
C    -0.49817  -2.04947   0.67892
C     0.28059  -1.67959  -0.52895
O     1.27149  -2.32122  -0.86735
C    -0.21095  -0.51325  -1.30420
H     3.20150   2.06714   1.24147
H     4.49677   1.03505   0.51514
H     3.28814   0.34381   1.65964
H    -2.63409   1.83775   1.60527
H    -1.15761   1.44712   2.55826
H    -1.50578   3.13890   2.04893
H    -1.93051   0.70788  -1.77154
H    -2.31550  -1.80822   1.77720
H    -0.05985  -2.81413   1.32498
H     0.35078  -0.26698  -2.20816
25

C     3.44031   1.07107   0.84359
C     2.54384   0.72768  -0.31152
O     2.94153   0.38171  -1.41241
C     1.10043   0.75907  -0.04027
N     0.28528   1.50023   0.49086
N    -0.89683   1.86291   0.48121
C    -1.57782   2.07409   1.75207
C    -1.46707   0.00608  -1.07410
C    -2.31671  -0.51394   0.00066
O    -3.48520  -0.15012   0.16383
C    -1.70922  -1.51448   0.91647
C    -0.49860  -2.05149   0.67872
C     0.28365  -1.67812  -0.52555
O     1.27029  -2.32331  -0.86835
C    -0.19508  -0.49564  -1.28701
H     3.19723   2.06719   1.24076
H     4.49393   1.03676   0.51469
H     3.28583   0.34388   1.65870
H    -2.63545   1.83769   1.60245
H    -1.16031   1.44644   2.55741
H    -1.50615   3.13805   2.04576
H    -1.92842   0.71029  -1.76934
H    -2.31622  -1.80956   1.77617
H    -0.06090  -2.81585   1.32421
H     0.35250  -0.26502  -2.20591
25

C     3.43003   1.07247   0.84093
C     2.53738   0.72415  -0.31681
O     2.94289   0.37704  -1.41504
C     1.08924   0.74930  -0.05596
N     0.29229   1.50363   0.49752
N    -0.89671   1.85166   0.47745
C    -1.58222   2.07015   1.74534
C    -1.45902   0.02068  -1.06061
C    -2.31467  -0.51076   0.00283
O    -3.48557  -0.15181   0.16212
C    -1.70949  -1.51568   0.91562
C    -0.49902  -2.05351   0.67852
C     0.28671  -1.67665  -0.52214
O     1.26909  -2.32540  -0.86935
C    -0.17920  -0.47803  -1.26981
H     3.19297   2.06723   1.24004
H     4.49109   1.03846   0.51424
H     3.28352   0.34396   1.65776
H    -2.63682   1.83762   1.59962
H    -1.16302   1.44575   2.55656
H    -1.50653   3.13720   2.04260
H    -1.92633   0.71271  -1.76715
H    -2.31695  -1.81089   1.77514
H    -0.06196  -2.81757   1.32345
H     0.35422  -0.26306  -2.20366
25

C     3.41974   1.07386   0.83827
C     2.53092   0.72061  -0.32209
O     2.94425   0.37237  -1.41766
C     1.07804   0.73953  -0.07166
N     0.29930   1.50703   0.50419
N    -0.89659   1.84042   0.47369
C    -1.58663   2.06621   1.73860
C    -1.45098   0.03528  -1.04711
C    -2.31264  -0.50758   0.00501
O    -3.48594  -0.15350   0.16041
C    -1.70977  -1.51689   0.91477
C    -0.49944  -2.05554   0.67831
C     0.28977  -1.67518  -0.51874
O     1.26789  -2.32749  -0.87034
C    -0.16333  -0.46042  -1.25262
H     3.18870   2.06728   1.23933
H     4.48825   1.04017   0.51378
H     3.28121   0.34403   1.65683
H    -2.63818   1.83755   1.59679
H    -1.16572   1.44507   2.55571
H    -1.50690   3.13635   2.03944
H    -1.92424   0.71512  -1.76495
H    -2.31767  -1.81222   1.77411
H    -0.06301  -2.81929   1.32268
H     0.35594  -0.26110  -2.20141
25

C     3.40945   1.07525   0.83561
C     2.52446   0.71708  -0.32738
O     2.94560   0.36769  -1.42029
C     1.06685   0.72976  -0.08735
N     0.30631   1.51043   0.51086
N    -0.89647   1.82917   0.46993
C    -1.59103   2.06227   1.73186
C    -1.44293   0.04987  -1.03362
C    -2.31061  -0.50441   0.00718
O    -3.48631  -0.15519   0.15871
C    -1.71004  -1.51809   0.91392
C    -0.49986  -2.05756   0.67811
C     0.29283  -1.67371  -0.51534
O     1.26669  -2.32958  -0.87134
C    -0.14746  -0.44280  -1.23542
H     3.18444   2.06733   1.23861
H     4.48541   1.04188   0.51333
H     3.27890   0.34410   1.65589
H    -2.63955   1.83749   1.59397
H    -1.16842   1.44438   2.55486
H    -1.50727   3.13551   2.03627
H    -1.92214   0.71753  -1.76276
H    -2.31839  -1.81355   1.77309
H    -0.06406  -2.82101   1.32192
H     0.35767  -0.25914  -2.19916
25

C     3.39916   1.07665   0.83296
C     2.51800   0.71355  -0.33266
O     2.94696   0.36302  -1.42291
C     1.05565   0.71998  -0.10304
N     0.31332   1.51383   0.51753
N    -0.89635   1.81793   0.46617
C    -1.59543   2.05833   1.72512
C    -1.43488   0.06447  -1.02013
C    -2.30857  -0.50123   0.00935
O    -3.48669  -0.15688   0.15700
C    -1.71032  -1.51930   0.91307
C    -0.50028  -2.05958   0.67791
C     0.29588  -1.67223  -0.51194
O     1.26549  -2.33167  -0.87234
C    -0.13159  -0.42519  -1.21823
H     3.18017   2.06738   1.23789
H     4.48257   1.04358   0.51288
H     3.27659   0.34417   1.65496
H    -2.64091   1.83742   1.59114
H    -1.17112   1.44370   2.55401
H    -1.50765   3.13466   2.03311
H    -1.92005   0.71994  -1.76056
H    -2.31911  -1.81488   1.77206
H    -0.06512  -2.82273   1.32115
H     0.35939  -0.25718  -2.19691
25

C     3.38887   1.07804   0.83030
C     2.51154   0.71002  -0.33795
O     2.94832   0.35834  -1.42554
C     1.04446   0.71021  -0.11874
N     0.32033   1.51723   0.52420
N    -0.89623   1.80669   0.46241
C    -1.59983   2.05439   1.71838
C    -1.42683   0.07907  -1.00664
C    -2.30654  -0.49806   0.01153
O    -3.48706  -0.15857   0.15530
C    -1.71059  -1.52050   0.91221
C    -0.50070  -2.06160   0.67770
C     0.29894  -1.67076  -0.50853
O     1.26429  -2.33376  -0.87333
C    -0.11571  -0.40758  -1.20103
H     3.17590   2.06742   1.23718
H     4.47973   1.04529   0.51243
H     3.27428   0.34425   1.65402
H    -2.64228   1.83735   1.58831
H    -1.17383   1.44301   2.55315
H    -1.50802   3.13381   2.02995
H    -1.91796   0.72236  -1.75837
H    -2.31983  -1.81621   1.77103
H    -0.06617  -2.82446   1.32039
H     0.36111  -0.25522  -2.19466
25

C     3.37859   1.07943   0.82764
C     2.50508   0.70649  -0.34323
O     2.94967   0.35367  -1.42816
C     1.03326   0.70044  -0.13443
N     0.32734   1.52063   0.53087
N    -0.89612   1.79544   0.45865
C    -1.60424   2.05045   1.71165
C    -1.41878   0.09367  -0.99315
C    -2.30451  -0.49488   0.01370
O    -3.48743  -0.16026   0.15359
C    -1.71087  -1.52171   0.91136
C    -0.50112  -2.06362   0.67750
C     0.30200  -1.66929  -0.50513
O     1.26310  -2.33585  -0.87433
C    -0.09984  -0.38997  -1.18384
H     3.17164   2.06747   1.23646
H     4.47689   1.04699   0.51197
H     3.27197   0.34432   1.65309
H    -2.64364   1.83729   1.58549
H    -1.17653   1.44233   2.55230
H    -1.50839   3.13296   2.02678
H    -1.91587   0.72477  -1.75617
H    -2.32056  -1.81754   1.77000
H    -0.06723  -2.82618   1.31962
H     0.36283  -0.25326  -2.19241
25

C     3.36830   1.08083   0.82498
C     2.49863   0.70296  -0.34852
O     2.95103   0.34900  -1.43079
C     1.02207   0.69067  -0.15013
N     0.33435   1.52402   0.53753
N    -0.89600   1.78420   0.45489
C    -1.60864   2.04651   1.70491
C    -1.41074   0.10827  -0.97966
C    -2.30248  -0.49170   0.01588
O    -3.48780  -0.16195   0.15188
C    -1.71114  -1.52291   0.91051
C    -0.50155  -2.06564   0.67730
C     0.30506  -1.66782  -0.50173
O     1.26190  -2.33794  -0.87533
C    -0.08397  -0.37235  -1.16664
H     3.16737   2.06752   1.23574
H     4.47405   1.04870   0.51152
H     3.26966   0.34439   1.65215
H    -2.64501   1.83722   1.58266
H    -1.17923   1.44164   2.55145
H    -1.50876   3.13211   2.02362
H    -1.91378   0.72718  -1.75398
H    -2.32128  -1.81888   1.76897
H    -0.06828  -2.82790   1.31886
H     0.36455  -0.25130  -2.19016
25

C     3.35801   1.08222   0.82232
C     2.49217   0.69943  -0.35380
O     2.95238   0.34432  -1.43342
C     1.01087   0.68089  -0.16582
N     0.34136   1.52742   0.54420
N    -0.89588   1.77295   0.45113
C    -1.61304   2.04256   1.69817
C    -1.40269   0.12287  -0.96617
C    -2.30044  -0.48853   0.01805
O    -3.48817  -0.16364   0.15018
C    -1.71141  -1.52412   0.90966
C    -0.50197  -2.06766   0.67709
C     0.30812  -1.66635  -0.49833
O     1.26070  -2.34003  -0.87632
C    -0.06809  -0.35474  -1.14945
H     3.16311   2.06756   1.23503
H     4.47121   1.05040   0.51107
H     3.26735   0.34447   1.65121
H    -2.64637   1.83715   1.57983
H    -1.18194   1.44096   2.55060
H    -1.50914   3.13126   2.02046
H    -1.91169   0.72960  -1.75178
H    -2.32200  -1.82021   1.76795
H    -0.06933  -2.82962   1.31809
H     0.36627  -0.24934  -2.18790
