16

C -4.082920098 0.145919133 2.801115807
C -1.583267122 0.113547407 1.506236330
N -1.304689366 1.084172425 -0.776871607
C 0.700924931 1.338646705 -2.283368492
C 3.201660871 0.466641429 -1.419729109
C 3.608211523 -2.367809845 -1.243983823
O 2.100931119 -3.952370618 -1.829637161
H -4.028551846 1.173226695 4.595736872
H -5.515307386 1.064483350 1.627085846
H -4.766421660 -1.762080000 3.215355584
H 0.028082351 -0.815207158 2.342087555
H -2.917164152 1.796541802 -1.519402430
H 0.370800511 2.148382218 -4.119006100
H 3.667456119 1.209623160 0.478181231
H 4.692604044 1.190583583 -2.658164715
H 5.490354819 -2.921363766 -0.483766392

