16

C -2.927487216 0.186742452 2.946807058
C -2.373433236 -0.311517837 0.226720364
N -1.874243844 1.581743852 -1.416577612
C 0.346240950 0.736371412 -2.387465643
C 2.750406631 0.578291438 -0.886119924
C 3.637676340 -2.123199198 -0.625705573
O 5.471888774 -2.997510715 -1.631302676
H -1.218181956 0.544585886 4.056580491
H -4.107503621 1.881406738 3.125098390
H -3.913458058 -1.399798129 3.815558585
H -2.686192755 -2.164117079 -0.569444609
H -2.842961165 3.196377820 -1.748659940
H 0.535296067 0.560418578 -4.430993251
H 2.424075288 1.332669237 1.010409233
H 4.261943208 1.660002097 -1.795269506
H 2.373084543 -3.322677004 0.548148832

