12

O 3.662664964 -1.760902418 2.342704758
C 2.238749242 0.185408570 1.793956297
C -0.368763820 -0.765470794 1.271714401
C -1.878653180 0.963198489 -0.477716566
C -0.807799261 0.999818320 -3.111366487
O -2.035025900 0.803346084 -5.007346339
H 5.325999385 -1.153769356 2.766064259
H 1.277467011 1.243330318 -3.210538370
H -0.396236375 -2.742621715 0.651342183
H -1.249061782 -0.724446446 3.154449352
H -1.756403414 2.900101966 0.242964280
H -3.865536361 0.427378401 -0.573683567

