12

O 3.716335208 -1.176180053 1.456909187
C 1.702004208 0.049036503 0.748471423
C -0.829987102 -0.805714043 1.633804881
C -2.246522234 0.590226362 -0.483213099
C 0.097418084 1.104528952 -2.125075848
O 0.520083338 2.795567268 -3.615980206
H 5.200319067 -0.315089211 0.835542538
H 0.931783191 -0.890227130 -2.495089155
H -1.131947196 -2.840239203 1.807804229
H -1.147233417 0.051534759 3.488207224
H -3.128720258 2.338954937 0.144923380
H -3.631881004 -0.551229463 -1.495866647

