15

C 3.506434842 0.588835996 -0.688828548
C 0.775208685 -0.042873823 -0.639221121
O -0.636652095 0.208914080 -2.796124927
C -2.631552401 2.654397281 1.592520885
C -2.453809600 -1.607525990 -1.804775717
C -0.898978471 -1.805095836 0.595208304
C -0.850155923 0.787879904 2.003433497
H 3.762360130 2.544182728 -1.285857244
H 4.357002687 0.335599410 1.166242569
H 4.460205714 -0.641902945 -2.042163093
H -2.476082762 4.052752737 3.129376050
H -4.324462794 -0.772945682 -1.646261445
H -2.433894702 -3.317833523 -2.952279818
H -0.515103569 -3.470684058 1.709612095
H 0.481741758 0.685936039 3.576191682

