12

C -4.399667299 0.743146212 -0.680303484
C -2.387841131 -0.798722566 -0.909175830
C -0.750676884 -0.873685847 1.186557163
C 1.871942063 -1.371860872 0.841280805
O 2.390126793 -3.616465147 0.632041787
C 3.795158689 0.706849959 0.972865969
H -4.894008862 1.503257139 1.154182923
H -1.892005474 -1.648111374 -2.718800338
H -5.484542909 1.353611390 -2.308609016
H 2.939052699 2.561540883 0.688371896
H 4.686586098 0.674257966 2.832212270
H 5.245040098 0.361096805 -0.448365434

