12

C -4.728987489 0.807437662 -0.770390488
C -2.546953671 -0.389405337 -0.031215158
C -0.492333862 -0.954217906 1.118228200
C 2.076093504 -1.484092217 0.455452323
O 2.705809473 -3.478187254 -0.498307664
C 3.962998343 0.539982796 1.164035539
H -4.972992063 2.831582765 -0.542866972
H -2.629165601 -0.903321855 -2.176031991
H -6.168954601 -0.226656095 -1.789413358
H 3.089291727 2.399797674 1.329576322
H 4.796745245 0.049602571 2.986292488
H 5.459797399 0.572996198 -0.248672330

