12

C -1.155051044 1.854401039 1.210526165
C -0.840109534 -2.122176913 0.468030642
N 1.439762549 -2.314979018 -0.565865676
C 2.048808504 0.414219104 0.809643407
O 3.270013947 0.391009658 2.734861612
H -2.510311598 1.257084161 2.641655935
H -2.117289193 2.353266079 -0.546181892
H -0.254241731 3.546957184 1.961431045
H -2.580527585 -2.267388817 -0.617310729
H -0.954004669 -2.531204297 2.470784480
H 1.410551824 -2.088422058 -2.469562905
H 2.366398617 1.501224568 -0.927397174

