13

C 2.897357857 -0.033306744 1.009463293
C 0.717401774 -0.200950075 -0.836456674
C -1.667792626 -1.697169420 -0.024406928
N -3.076017762 0.662372666 -0.247593561
C -1.047948945 2.110391164 -0.916215891
O -0.805381791 4.321121418 -1.349256705
H 4.229788668 1.420200312 0.409701676
H 2.230612308 0.463346522 2.898822168
H 3.910658353 -1.825810995 1.131921609
H 1.366817458 -0.709260740 -2.726616208
H -1.585585023 -2.449751110 1.896561623
H -2.277089442 -3.174612276 -1.328423325
H -4.892820829 1.113429297 0.082498923

