13

C 4.505257276 1.224328952 2.322266274
C 0.420497511 -0.956497539 -0.911242831
C -2.183874241 -2.232068871 -0.551771059
N -3.249509303 0.304031706 -0.321731183
C -1.000927797 1.542471431 -0.530260306
O -0.424954921 3.733403460 -0.409206775
H 5.440511724 1.898041505 0.572234563
H 3.427386823 2.919144037 2.905903955
H 1.821281983 -1.369596602 0.559821765
H 1.269134226 -1.162922963 -2.773265987
H -2.351168237 -3.370286840 1.158808424
H -2.879640957 -3.290973882 -2.177648803
H -4.991387281 0.934083082 0.105932944

