19

C -4.420781624 -1.793917823 0.768307991
C -1.754114672 -2.214041111 -0.230491275
C 0.031107027 0.021298574 0.253922877
C 2.737295088 -0.619518969 -0.570003344
C 4.630681158 1.477801885 -0.020301592
C -0.868217717 2.209706155 -1.301533939
O -1.462319265 4.078175412 0.211512812
H -5.598422625 -3.459193976 0.463765379
H -4.402275272 -1.392982568 2.793998852
H -5.336410378 -0.201461812 -0.173943772
H -0.929489479 -3.889243957 0.657350095
H -1.812251681 -2.581787125 -2.263694005
H 0.021917497 0.479699796 2.282451408
H 2.726792727 -1.045475086 -2.592651217
H 3.306113196 -2.351484936 0.405214332
H 6.544537441 0.905757712 -0.532897003
H 4.633363303 1.972339962 1.984945153
H 4.184009448 3.188712335 -1.086041024
H -2.041624257 5.473034005 -0.805725079

