12

O 3.929917138 2.123362660 1.253969382
C 3.913530907 0.571497551 -0.393225494
C 1.709096332 -1.158091727 -1.009817711
C -0.545013493 -0.878896068 0.619137471
C -4.517607959 1.097171152 0.765746524
O -2.415334435 0.406548138 -0.277505261
H 5.600855042 0.288159764 -1.612535692
H 2.461387288 -3.091618037 -0.956138586
H 1.208714372 -0.821838717 -2.990396785
H -0.602449734 -1.423122169 2.591743204
H -5.783181356 2.129216162 -0.443396721
H -4.876114195 0.626868699 2.721579048

