16

C 3.519155893 -0.539348887 0.638825375
C 0.858389422 0.087675147 -0.088410289
C -0.160240876 2.722599368 -0.100876207
C -1.407641324 0.780522123 1.539529789
C -3.132176114 -0.874864848 -0.066727477
C -0.825991163 -1.579938710 -1.741403921
H 4.205805681 0.735917367 2.108827661
H 4.788538088 -0.369513380 -0.982899715
H 3.661985626 -2.471123762 1.355483844
H 0.984678552 4.100521631 0.890859168
H -1.140157168 3.463256471 -1.746416023
H -1.509539363 1.002277572 3.570894855
H -3.876990028 -2.503105430 0.949734039
H -4.699921933 0.096330849 -0.995359587
H -0.917818889 -1.071785346 -3.741057946
H -0.348076403 -3.579420147 -1.591003586

