13

C -3.217654436 0.121258075 0.678574686
C -1.020248962 -0.689258801 -1.011325297
C 1.373242356 -1.127952693 0.442804235
C 3.508983724 0.175446274 0.249642289
O 3.997716599 2.148184949 -1.314454413
H -2.804205169 1.910896046 1.617302280
H -3.566643765 -1.286142914 2.146954567
H -4.957042794 0.344787108 -0.408041060
H -1.535630188 -2.425674242 -2.010181595
H -0.749466439 0.728774014 -2.495944823
H 2.531005649 2.500235522 -2.324459925
H 1.357154532 -2.641962411 1.823419868
H 5.144490322 -0.261019989 1.399969452

