13

C -3.324941577 0.175198191 0.445731685
C -0.924012807 -0.679716988 -0.891621049
C 1.425790651 -0.399932944 0.787079964
C 3.788024425 0.025351092 -0.358075416
O 3.905810355 2.227864250 -1.339325552
H -3.243912785 2.187525948 0.893637859
H -3.587329463 -0.848482513 2.219225764
H -4.987214822 -0.163647448 -0.729179398
H -1.138250699 -2.663243033 -1.450402368
H -0.681306191 0.394998095 -2.638385027
H 1.945163244 2.288957886 0.018538138
H 1.388283556 -1.653428931 2.418986898
H 5.473914844 -1.167706464 -0.401601459

