12

O -4.585139269 1.762051069 -0.777607126
C -3.215320511 0.187723919 0.568357960
C -0.616228634 0.354116629 0.749570998
N 0.646929881 1.866485347 -0.877355677
N 2.718630168 0.590166117 -1.182039243
C 2.901243096 -1.337663934 0.564929090
N 0.876311282 -1.444643976 1.900313296
H -3.462017812 2.842766523 -1.739059092
H 0.587398292 -2.538668942 -3.128685166
H -4.276302179 -1.199361078 1.629944662
H 4.054914527 1.178533575 -2.404088373
H 4.567968424 -2.500619873 0.717727998

