8

C -3.178989373 -0.242377029 -0.604167136
C -1.995753744 -2.138259730 1.117677609
N 0.298285011 -2.767439715 0.911410375
H 0.774251860 -4.076102571 2.237978877
H -3.243039013 -2.945937708 2.565802423
H -4.786367662 -1.080983607 -1.593869015
H -1.800330703 0.430439473 -1.974935916
H -3.908520392 1.355404891 0.482888179

