16

O 3.008159738 1.935720566 -0.300958538
C 3.248112852 -0.817980633 -0.426859085
C 0.583467360 -1.712034157 -0.935441795
C -1.076691264 0.125034315 0.573867324
C -3.857963189 0.002772361 -0.150253220
C -0.041659069 2.766124882 0.137256553
H 3.777372946 2.611474156 1.194908335
H 3.957384174 -1.502199024 1.385081509
H 4.606584353 -1.248924021 -1.911459657
H 0.352788132 -3.686747841 -0.376040003
H 0.149323116 -1.554673015 -2.949955795
H -0.912352176 -0.381516505 2.582548344
H -4.107945609 0.381284541 -2.166257572
H -4.658333936 -1.855231971 0.258846615
H -0.428503676 3.224998686 -1.857613933
H -4.943439600 1.408388730 0.896952628

