16

O 3.881354540 1.821679903 -0.417068697
C 3.458162242 -0.825071868 -0.418880605
C 0.730978625 -1.450393506 -1.104436657
C -1.022838529 0.013973296 0.632730101
C -3.873935003 -0.024365864 -0.113433683
C -1.004376604 2.771599853 0.433957350
H 3.486604736 2.507750717 1.217142588
H 3.940254336 -1.641361707 1.422975828
H 4.753023615 -1.625480335 -1.810400127
H 0.424758106 -3.491263554 -0.951087631
H 0.377519904 -0.898534631 -3.066290586
H -0.814938817 -0.646546777 2.581541328
H -4.096409001 -0.708036405 -2.039216973
H -4.944200366 -1.179290126 1.206985745
H -0.925204865 3.189981022 -1.612648509
H -4.714441209 1.881851088 -0.007251541

