13

C 3.585832800 -0.097049965 -0.632328402
C 1.094223160 0.549383088 0.384210121
O 0.456571721 2.689231680 1.807495958
N -1.199238246 -0.307965189 0.028309798
C -2.488487151 -2.062545831 -1.306564201
C -2.098144132 1.828462130 1.528863362
H 4.002708651 0.902737552 -2.398484447
H 5.051579669 0.373205093 0.738683662
H 3.667179236 -2.123773637 -1.009250756
H -4.355846534 -2.502531123 -0.616908671
H -1.377405404 -3.475739567 -2.268667934
H -2.958961209 1.287550250 3.318618704
H -3.256426362 3.129553892 0.437844875

