8

O 0.865886910 2.131399986 -1.419102287
C -0.718219043 1.126117977 0.554205045
C -1.496890708 -1.461499974 -0.446282427
N 0.718865991 -2.295035529 -0.919561028
C 1.789064118 0.152825062 0.080212562
H -1.491311670 2.400249205 1.947044712
H -3.286247696 -2.393374835 -0.818342232
H 3.592908048 0.310150166 1.020417847

