10

C 2.216596607 1.850778472 -0.076607551
C 2.887937913 -0.776039201 -0.186358913
N 0.775753153 -2.191087326 -0.101555280
C -1.643686637 -1.348558584 0.063737325
C -2.022067349 1.187316304 0.156271639
N -0.063234734 2.815579336 0.084235884
H 3.745785871 3.218330788 -0.132023505
H 1.019770748 -4.084165541 -0.168936470
H -3.144102893 -2.735757947 0.115775280
H -3.906021853 1.975706887 0.289121823

