17

O 2.819619495 -0.305286238 2.242085119
C 2.523931837 -0.926833752 -0.277231477
C 0.287702714 -2.629519585 -0.897261579
C -2.242710089 -1.438397694 -0.137645875
C -2.180783726 1.379665441 0.078543386
C -0.245751267 2.836342588 -0.920108406
C 2.105007750 1.741207182 -1.034926842
H 0.470562101 0.822456204 3.185920435
H 4.260927764 -1.726077165 -1.078577399
H 0.536469002 -4.436692665 0.064542084
H 0.314840693 -3.013765932 -2.928992534
H -2.953791486 -2.229772382 1.626217460
H -3.695685377 -1.863046461 -1.554151337
H -3.958009409 2.284143185 0.560508491
H -1.029906331 1.448417778 3.357431865
H -0.459688163 4.867810871 -1.033407654
H 3.765352681 2.896588455 -1.351366452

