19

C 4.579113499 1.717116292 0.353339762
C 2.953948768 -0.265629542 -0.914334064
O 0.674794630 -0.622674774 0.475026087
C -1.069438382 -2.850689918 -0.373616675
C -3.566206350 -2.117951788 0.344582167
C -4.261429278 0.464561691 -0.703744251
C -2.078709981 1.861603107 0.270922872
H 6.358169306 1.946195714 -0.665628286
H 3.627691746 3.545486543 0.399508134
H 5.001048279 1.166505147 2.293936124
H 3.948172931 -2.076671401 -0.983818954
H 2.501687134 0.267246051 -2.871322137
H -0.719617403 -2.910740595 -2.419197281
H -0.349682009 -4.547762867 0.541923129
H -4.128289002 -2.499985681 2.280590594
H -4.409872935 0.520146568 -2.762562937
H -6.025986105 1.131436705 0.127026275
H -0.857906030 2.988777440 -0.932260271
H -2.090310046 2.383203800 2.245927764

