10

O -3.738170842 -0.848567154 -0.583519270
C -2.575742420 0.351216334 1.209805405
C -0.026473135 0.861600047 1.192123370
N 1.374214412 0.080063765 -0.805414087
N 3.578030064 0.893121378 -0.132488453
H 5.062423182 0.579028695 -1.288258387
C 3.713888258 2.188014990 2.231386227
N 1.308396669 2.108284705 3.003875256
H -3.771511998 0.943453402 2.765592792
H -2.516539531 -1.297650722 -1.883416046

