12

O -4.045544131 0.910700461 -1.500486517
C -2.449576008 -0.257441094 0.077591928
C -0.214727954 0.923794789 1.159271483
N 1.072225350 2.108967293 -0.780593573
N 3.080684346 0.788383119 -0.905134084
C 3.260207383 -1.233026208 0.933103580
N 1.169233269 -0.801796414 2.353586444
H -3.181318290 2.280120412 -2.334877758
H -0.797638771 -1.976176484 -1.228405790
H -3.385324846 -1.673198112 1.228907909
H 4.372745788 1.150133844 -2.265070009
H 1.137942484 -2.539330214 -0.643604114

