11

O 1.820201456 -0.633827011 2.660667052
C 2.168568083 -1.237759538 0.298876438
C 2.585166579 1.055053560 -0.930632404
C 0.460514049 1.856085655 0.644866300
N -1.831841319 0.494281811 0.181555437
C -1.599572605 -1.985886520 -0.649730360
N 0.570734328 -3.078083951 -0.752519141
H 2.783551596 1.421987483 -2.928877563
H 0.091655780 3.754383728 1.374543130
H -3.422157838 1.025476832 1.073914084
H -3.303693931 -2.924098219 -1.293419437

