15

C -4.292801000 0.687765710 0.561325042
C -2.608391899 -1.588183434 0.063528435
C 0.156064903 -1.114329903 0.734810082
C 5.988894126 1.606946071 -1.317480393
C 1.381662787 0.901346903 -0.829130660
N 3.646948187 1.177410151 -0.996200647
H -4.283075713 1.193614496 2.564767137
H -3.636141921 2.326688933 -0.505346195
H -6.245603782 0.306189943 0.019436873
H -3.276732093 -3.213502462 1.152300000
H -2.729853346 -2.127816687 -1.927770374
H 0.294044049 -0.475379674 2.702205274
H 1.258158168 -2.863592099 0.609318473
H 6.970127915 0.708437499 -2.869789852
H 6.958624151 2.900033218 -0.065809826

