8

O 4.195043974 0.126892161 -1.141412645
C 2.397962032 0.682539086 -0.057110717
O 0.463585383 -2.641624074 1.096173169
C -1.400857888 -1.476955269 0.244990444
C -1.151383483 1.088881811 -0.247515723
O 1.058417990 2.119341984 1.237710386
H -3.168015148 -2.451197053 -0.227078373
H -2.394750990 2.552121354 -0.905756541

