16

C 3.960426237 0.943667111 0.260070950
C 1.660987967 -0.056076357 -1.143413752
C -0.472261135 -0.772733409 0.656739544
C -2.911795554 -1.523226272 -0.636828595
O -4.436779006 0.730586828 -0.203433383
C -1.649561852 1.513789149 2.006311663
H 4.753229973 -0.501841301 1.505733852
H 3.429972914 2.566148111 1.420776603
H 5.445853753 1.538734914 -1.040130014
H 2.182538658 -1.695989531 -2.297029265
H 0.967715426 1.397747418 -2.447122048
H 0.188923404 -2.239227286 1.962320086
H -3.915111436 -3.047667259 0.311878226
H -2.778584564 -1.948310356 -2.655385854
H -2.680186563 0.793788303 3.665000495
H -4.061638475 1.980063254 -1.465910444

