16

C 3.875654408 0.966379125 0.319253676
C 1.745605840 -0.267760680 -1.171342373
C -0.564392388 -0.762146615 0.468548919
C -2.981137032 -1.558678006 -0.890625201
O -4.765974229 0.134335849 0.330742077
C -1.803513927 1.625581851 1.493368561
H 4.485016231 -0.234692533 1.885164156
H 3.252477628 2.771763352 1.107684492
H 5.517847443 1.335812759 -0.870676364
H 2.397525675 -2.046692446 -2.003224455
H 1.187681342 0.966481151 -2.734311531
H -0.083247576 -2.132872763 1.944248106
H -3.599140044 -3.489548231 -0.545636176
H -2.940717245 -1.213430618 -2.928888902
H -2.079566140 1.631044331 3.538734324
H -3.960392108 1.953880550 -0.043455575

