15

C 4.296278058 -0.851245388 0.077692518
C 1.563063701 -0.184539258 -0.074513318
C -0.352150085 -1.598095690 -1.161914473
C -2.606281547 -0.347628538 -0.448762371
N -5.022661681 -0.758550957 0.051352230
C -2.014439866 2.084943299 0.662088243
N 0.664860358 1.913848781 1.062119510
H 4.789253822 -1.451031458 1.989666596
H 4.733417650 -2.387730904 -1.217243329
H 5.482683476 0.766749062 -0.404995785
H -0.118939891 -3.449443461 -1.982089494
H -4.553814413 1.350182085 1.438157491
H -6.070992219 -1.931992571 -1.041790819
H -2.516363692 3.651483284 -0.585776132
H 1.774019233 3.306212293 1.708157024

