12

C 1.945380827 1.310690437 1.566031346
C 0.779741439 -1.029770366 0.381650694
O -1.889069955 -1.240800598 1.309736749
C -3.289197180 -0.351952363 -0.489002917
O -2.231522400 -0.033442861 -2.575896622
C 0.334518808 -1.059068302 -2.455537225
H 3.912836772 1.439354066 0.959400820
H 1.901641660 1.228562902 3.628308477
H 1.704246236 -2.733952767 1.075477153
H -5.293984325 -0.069019903 -0.219086079
H 0.968611496 3.016952255 0.934823590
H 1.504999485 0.257787178 -3.519436611

