12

C -4.302692336 -0.336204973 -0.256809434
C -2.322700099 1.616464508 -0.776260016
C -0.467675261 2.364332447 0.739845031
C 0.105978846 1.446815611 3.353459963
H 0.077339971 3.017174771 4.695077979
H -1.229856533 0.026508511 4.012822503
H 1.999101281 0.623729770 3.436362021
H 0.801446002 3.814073487 0.027023329
H -2.441286328 2.508952016 -2.622892485
H -4.116860203 -1.191140221 1.606473526
H -6.191232072 0.490714669 -0.389465222
H -4.212608298 -1.850446674 -1.659081706

