18

C -3.487870173 -0.755499333 -0.267021741
C -1.395477082 0.971065702 -1.172297403
C 0.474575180 1.843465724 0.479061824
C 0.379001620 1.444751388 3.274735711
N 3.705093019 -0.413935248 -0.125303658
C 3.158781398 -2.283345154 -1.613528063
O 1.682149102 -1.996712119 -3.496294137
H -2.729779212 -2.470697326 0.602275275
H -4.734940542 0.142323230 1.117494004
H -4.654750883 -1.361648660 -1.853378565
H 0.130421093 -0.462246096 -2.647082511
H -1.885497617 2.299178904 -2.665716779
H 1.547208313 3.472794788 -0.131668690
H -1.076828571 2.701825363 4.039245806
H -0.156074162 -0.482010836 3.765239052
H 2.163786282 1.909471816 4.186459402
H 4.687958663 -0.993752053 1.412294548
H 3.876263561 -4.204691026 -1.260114903

