13

O 3.757251595 0.729294085 -0.763391926
C 1.396994059 -0.479977283 -0.626379317
C -0.003281812 -0.598511394 1.926867728
C -2.457630286 0.012689038 0.472578533
C -0.807234176 1.054956390 -1.697048251
H 5.031292250 -0.387937870 -0.122987212
H 1.478145910 -2.356334351 -1.505119615
H 0.578490652 0.986828456 3.111185225
H 0.088392469 -2.343924217 3.018793737
H -3.788764668 1.307353597 1.359017216
H -3.469064091 -1.695257036 -0.082672041
H -0.426112208 3.066100593 -1.446905166
H -1.378479694 0.704719973 -3.643938949

