9

N -3.386494662 0.049874294 0.474210954
C -0.957520958 -0.692749919 0.314938033
N 0.532049915 -2.343551809 0.708495552
N 3.762674240 -0.562598944 -0.593567171
N 2.756078361 1.547981004 -0.859432021
N 0.705895062 2.326243392 -0.898194159
H -4.693801526 -1.316342816 0.643433491
H -3.883950702 1.587713383 -0.518636960
H 5.165784568 -0.571340741 0.721110248

