16

C -2.144401377 2.947574173 -0.483224796
C -0.569866717 0.696897660 0.389589094
C -2.020919284 -1.665768068 -0.184190887
O -0.791397478 -4.019353170 1.610612896
N 1.904586950 0.839982223 -0.869070191
C 3.886058257 -0.594522938 -0.270127411
O 3.895660995 -2.257709715 1.340030268
H -1.124075088 4.716029051 -0.197604220
H -3.903280635 3.040403832 0.580752333
H -2.619775741 2.762017127 -2.484105670
H -0.194123477 0.881601910 2.423679504
H -3.883660081 -1.558053489 0.686526767
H -1.067194861 -4.145319894 -0.389228761
H 1.012851383 -3.546047357 1.798665230
H 2.095108306 2.023849776 -2.343046213
H 5.600297554 -0.152349626 -1.361097219

