9

N 2.702450787 0.837879922 0.789521906
C 0.431388399 -0.305876381 0.310098615
N 0.052966756 -2.689267037 0.079153994
O -2.616756772 -2.858352663 -0.212020222
C -3.750847427 -0.645243451 -0.184921833
N -1.817375503 0.993171964 0.146646980
H 3.014275345 2.466042364 -0.143896465
H 4.176659452 -0.362618431 0.690212187
H -2.051972681 2.865620266 0.345313491

