9

N 2.923986026 0.670445652 0.680289178
C 0.569447595 -0.244562572 0.232306791
N -0.101895696 -2.581112417 0.323412850
O -2.744507284 -2.506803813 -0.023477145
C -3.467343760 -0.174671789 -0.534377868
N -1.429902336 1.366035753 -0.415741429
H 3.340503018 2.321608423 -0.158973815
H 4.327694944 -0.607985517 0.734744301
H -3.410625784 1.801885702 0.867669130

