22

C     3.57031   0.25482   1.24632
C     2.62515  -0.39214   0.28689
O     2.73740  -1.49671  -0.21477
C     1.48083   0.45598   0.03879
N     0.87293   1.39895  -0.37928
N     0.15017   2.26025  -0.91767
C    -1.37204  -0.09683  -1.42788
C    -2.31327   0.70300  -0.59932
O    -3.14612   1.45992  -1.09865
C    -2.27307   0.49097   0.87335
C    -1.49309  -0.45785   1.42126
C    -0.64462  -1.33183   0.56980
O    -0.07227  -2.31378   1.04617
C    -0.61585  -1.03185  -0.89294
H     3.82474   1.24724   0.79804
H     3.00024   0.47142   2.16597
H     4.39438  -0.36578   1.38446
H    -0.16769   2.97454  -0.40115
H    -1.26054   0.23358  -2.46211
H    -2.97138   1.08368   1.46987
H    -1.51891  -0.69108   2.49470
H     0.22447  -1.52182  -1.43278
22

C     3.56305   0.25750   1.24172
C     2.61829  -0.39399   0.28393
O     2.73692  -1.49954  -0.21369
C     1.46575   0.44304   0.02840
N     0.87870   1.40346  -0.37435
N     0.14256   2.24323  -0.92115
C    -1.35870  -0.08083  -1.42296
C    -2.31087   0.70549  -0.59838
O    -3.14667   1.45813  -1.09895
C    -2.27395   0.48973   0.87359
C    -1.49409  -0.45908   1.42183
C    -0.64154  -1.33029   0.57205
O    -0.07415  -2.31542   1.04614
C    -0.59452  -1.01607  -0.88458
H     3.82189   1.24819   0.79661
H     2.99849   0.47183   2.16490
H     4.39277  -0.36444   1.38271
H    -0.17523   2.96948  -0.40456
H    -1.25853   0.23519  -2.46119
H    -2.97242   1.08253   1.46982
H    -1.52021  -0.69211   2.49469
H     0.22576  -1.52061  -1.43207
22

C     3.55578   0.26018   1.23712
C     2.61142  -0.39584   0.28098
O     2.73644  -1.50238  -0.21261
C     1.45066   0.43010   0.01800
N     0.88447   1.40798  -0.36942
N     0.13495   2.22622  -0.92463
C    -1.34537  -0.06484  -1.41803
C    -2.30848   0.70797  -0.59744
O    -3.14722   1.45635  -1.09925
C    -2.27483   0.48849   0.87382
C    -1.49508  -0.46030   1.42240
C    -0.63846  -1.32875   0.57430
O    -0.07604  -2.31706   1.04611
C    -0.57319  -1.00029  -0.87622
H     3.81904   1.24915   0.79518
H     2.99674   0.47223   2.16382
H     4.39115  -0.36310   1.38095
H    -0.18277   2.96443  -0.40797
H    -1.25652   0.23681  -2.46027
H    -2.97346   1.08137   1.46977
H    -1.52151  -0.69315   2.49468
H     0.22705  -1.51940  -1.43136
22

C     3.54851   0.26286   1.23252
C     2.60456  -0.39769   0.27802
O     2.73596  -1.50521  -0.21153
C     1.43558   0.41717   0.00761
N     0.89024   1.41249  -0.36448
N     0.12734   2.20920  -0.92811
C    -1.33204  -0.04885  -1.41311
C    -2.30608   0.71046  -0.59651
O    -3.14776   1.45456  -1.09955
C    -2.27571   0.48725   0.87406
C    -1.49607  -0.46153   1.42297
C    -0.63539  -1.32721   0.57655
O    -0.07792  -2.31870   1.04607
C    -0.55185  -0.98452  -0.86785
H     3.81619   1.25010   0.79375
H     2.99499   0.47264   2.16275
H     4.38953  -0.36176   1.37920
H    -0.19031   2.95937  -0.41138
H    -1.25450   0.23842  -2.45935
H    -2.97449   1.08022   1.46972
H    -1.52282  -0.69418   2.49468
H     0.22834  -1.51819  -1.43065
22

C     3.54125   0.26554   1.22792
C     2.59770  -0.39954   0.27506
O     2.73548  -1.50805  -0.21045
C     1.42050   0.40423  -0.00278
N     0.89601   1.41700  -0.35955
N     0.11973   2.19219  -0.93160
C    -1.31871  -0.03286  -1.40818
C    -2.30369   0.71294  -0.59557
O    -3.14831   1.45278  -1.09985
C    -2.27660   0.48602   0.87430
C    -1.49707  -0.46276   1.42354
C    -0.63231  -1.32567   0.57880
O    -0.07981  -2.32034   1.04604
C    -0.53052  -0.96874  -0.85949
H     3.81334   1.25105   0.79232
H     2.99324   0.47304   2.16168
H     4.38791  -0.36042   1.37744
H    -0.19785   2.95431  -0.41478
H    -1.25249   0.24003  -2.45842
H    -2.97553   1.07906   1.46967
H    -1.52412  -0.69522   2.49467
H     0.22963  -1.51699  -1.42993
22

C     3.53398   0.26822   1.22332
C     2.59084  -0.40139   0.27210
O     2.73500  -1.51088  -0.20937
C     1.40542   0.39129  -0.01318
N     0.90178   1.42152  -0.35461
N     0.11212   2.17517  -0.93508
C    -1.30537  -0.01686  -1.40326
C    -2.30129   0.71543  -0.59464
O    -3.14885   1.45099  -1.10014
C    -2.27748   0.48478   0.87453
C    -1.49806  -0.46398   1.42412
C    -0.62923  -1.32413   0.58105
O    -0.08169  -2.32199   1.04601
C    -0.50918  -0.95296  -0.85113
H     3.81049   1.25200   0.79089
H     2.99149   0.47344   2.16061
H     4.38629  -0.35908   1.37569
H    -0.20539   2.94926  -0.41819
H    -1.25048   0.24165  -2.45750
H    -2.97657   1.07790   1.46962
H    -1.52542  -0.69625   2.49467
H     0.23092  -1.51578  -1.42922
22

C     3.52672   0.27090   1.21872
C     2.58397  -0.40324   0.26914
O     2.73452  -1.51371  -0.20829
C     1.39034   0.37836  -0.02357
N     0.90755   1.42603  -0.34968
N     0.10452   2.15816  -0.93856
C    -1.29204  -0.00087  -1.39833
C    -2.29890   0.71791  -0.59370
O    -3.14940   1.44921  -1.10044
C    -2.27836   0.48354   0.87477
C    -1.49905  -0.46521   1.42469
C    -0.62615  -1.32259   0.58330
O    -0.08358  -2.32363   1.04598
C    -0.48785  -0.93718  -0.84277
H     3.80764   1.25295   0.78946
H     2.98974   0.47385   2.15954
H     4.38468  -0.35774   1.37393
H    -0.21293   2.94420  -0.42160
H    -1.24847   0.24326  -2.45658
H    -2.97761   1.07675   1.46957
H    -1.52672  -0.69729   2.49466
H     0.23221  -1.51457  -1.42851
22

C     3.51945   0.27358   1.21412
C     2.57711  -0.40509   0.26618
O     2.73404  -1.51655  -0.20720
C     1.37526   0.36542  -0.03397
N     0.91332   1.43054  -0.34475
N     0.09691   2.14114  -0.94204
C    -1.27871   0.01512  -1.39341
C    -2.29650   0.72040  -0.59276
O    -3.14995   1.44742  -1.10074
C    -2.27924   0.48230   0.87501
C    -1.50005  -0.46643   1.42526
C    -0.62307  -1.32105   0.58555
O    -0.08546  -2.32527   1.04595
C    -0.46651  -0.92141  -0.83441
H     3.80479   1.25391   0.78803
H     2.98799   0.47425   2.15847
H     4.38306  -0.35639   1.37218
H    -0.22047   2.93914  -0.42501
H    -1.24646   0.24488  -2.45566
H    -2.97865   1.07559   1.46952
H    -1.52803  -0.69832   2.49465
H     0.23350  -1.51336  -1.42780
22

C     3.51218   0.27626   1.20952
C     2.57025  -0.40694   0.26322
O     2.73356  -1.51938  -0.20612
C     1.36018   0.35249  -0.04436
N     0.91909   1.43506  -0.33981
N     0.08930   2.12413  -0.94552
C    -1.26538   0.03112  -1.38848
C    -2.29411   0.72288  -0.59183
O    -3.15049   1.44564  -1.10104
C    -2.28012   0.48106   0.87524
C    -1.50104  -0.46766   1.42583
C    -0.62000  -1.31951   0.58780
O    -0.08735  -2.32691   1.04591
C    -0.44518  -0.90563  -0.82604
H     3.80194   1.25486   0.78660
H     2.98624   0.47466   2.15740
H     4.38144  -0.35505   1.37042
H    -0.22801   2.93408  -0.42842
H    -1.24445   0.24649  -2.45474
H    -2.97969   1.07444   1.46947
H    -1.52933  -0.69936   2.49465
H     0.23479  -1.51215  -1.42709
22

C     3.50492   0.27894   1.20492
C     2.56339  -0.40879   0.26027
O     2.73308  -1.52221  -0.20504
C     1.34509   0.33955  -0.05476
N     0.92486   1.43957  -0.33488
N     0.08169   2.10711  -0.94900
C    -1.25204   0.04711  -1.38356
C    -2.29171   0.72537  -0.59089
O    -3.15104   1.44386  -1.10134
C    -2.28100   0.47983   0.87548
C    -1.50203  -0.46888   1.42640
C    -0.61692  -1.31797   0.59005
O    -0.08924  -2.32855   1.04588
C    -0.42384  -0.88985  -0.81768
H     3.79909   1.25581   0.78517
H     2.98449   0.47506   2.15633
H     4.37982  -0.35371   1.36867
H    -0.23555   2.92903  -0.43182
H    -1.24244   0.24810  -2.45382
H    -2.98073   1.07328   1.46942
H    -1.53063  -0.70039   2.49464
H     0.23608  -1.51094  -1.42638
22

C     3.49765   0.28162   1.20032
C     2.55652  -0.41064   0.25731
O     2.73260  -1.52505  -0.20396
C     1.33001   0.32661  -0.06515
N     0.93063   1.44408  -0.32994
N     0.07408   2.09010  -0.95248
C    -1.23871   0.06310  -1.37863
C    -2.28932   0.72785  -0.58995
O    -3.15159   1.44207  -1.10164
C    -2.28189   0.47859   0.87572
C    -1.50303  -0.47011   1.42698
C    -0.61384  -1.31643   0.59230
O    -0.09112  -2.33020   1.04585
C    -0.40251  -0.87407  -0.80932
H     3.79624   1.25676   0.78374
H     2.98274   0.47546   2.15526
H     4.37820  -0.35237   1.36691
H    -0.24309   2.92397  -0.43523
H    -1.24043   0.24972  -2.45290
H    -2.98176   1.07213   1.46937
H    -1.53193  -0.70143   2.49464
H     0.23737  -1.50973  -1.42566
22

C     3.49038   0.28430   1.19572
C     2.54966  -0.41249   0.25435
O     2.73212  -1.52788  -0.20288
C     1.31493   0.31368  -0.07554
N     0.93640   1.44860  -0.32501
N     0.06647   2.07308  -0.95596
C    -1.22538   0.07909  -1.37371
C    -2.28692   0.73034  -0.58902
O    -3.15213   1.44029  -1.10194
C    -2.28277   0.47735   0.87595
C    -1.50402  -0.47133   1.42755
C    -0.61076  -1.31489   0.59455
O    -0.09301  -2.33184   1.04582
C    -0.38117  -0.85830  -0.80096
H     3.79339   1.25772   0.78231
H     2.98099   0.47587   2.15419
H     4.37659  -0.35103   1.36516
H    -0.25063   2.91891  -0.43864
H    -1.23842   0.25133  -2.45198
H    -2.98280   1.07097   1.46932
H    -1.53324  -0.70246   2.49463
H     0.23866  -1.50852  -1.42495
22

C     3.48312   0.28698   1.19113
C     2.54280  -0.41434   0.25139
O     2.73164  -1.53071  -0.20180
C     1.29985   0.30074  -0.08594
N     0.94217   1.45311  -0.32008
N     0.05886   2.05607  -0.95944
C    -1.21205   0.09509  -1.36878
C    -2.28453   0.73282  -0.58808
O    -3.15268   1.43850  -1.10224
C    -2.28365   0.47611   0.87619
C    -1.50502  -0.47256   1.42812
C    -0.60769  -1.31335   0.59680
O    -0.09489  -2.33348   1.04579
C    -0.35984  -0.84252  -0.79260
H     3.79054   1.25867   0.78088
H     2.97924   0.47627   2.15312
H     4.37497  -0.34969   1.36340
H    -0.25817   2.91385  -0.44205
H    -1.23641   0.25295  -2.45106
H    -2.98384   1.06982   1.46927
H    -1.53454  -0.70350   2.49462
H     0.23995  -1.50731  -1.42424
22

C     3.47585   0.28966   1.18653
C     2.53594  -0.41619   0.24843
O     2.73116  -1.53355  -0.20072
C     1.28477   0.28780  -0.09633
N     0.94793   1.45762  -0.31514
N     0.05125   2.03905  -0.96292
C    -1.19871   0.11108  -1.36386
C    -2.28213   0.73531  -0.58715
O    -3.15322   1.43672  -1.10254
C    -2.28453   0.47487   0.87643
C    -1.50601  -0.47379   1.42869
C    -0.60461  -1.31181   0.59905
O    -0.09678  -2.33512   1.04575
C    -0.33850  -0.82674  -0.78424
H     3.78770   1.25962   0.77945
H     2.97749   0.47668   2.15205
H     4.37335  -0.34834   1.36165
H    -0.26571   2.90880  -0.44545
H    -1.23440   0.25456  -2.45014
H    -2.98488   1.06866   1.46922
H    -1.53584  -0.70453   2.49462
H     0.24124  -1.50610  -1.42353
22

C     3.46859   0.29234   1.18193
C     2.52907  -0.41804   0.24547
O     2.73068  -1.53638  -0.19964
C     1.26969   0.27487  -0.10673
N     0.95370   1.46214  -0.31021
N     0.04364   2.02204  -0.96641
C    -1.18538   0.12707  -1.35893
C    -2.27974   0.73779  -0.58621
O    -3.15377   1.43493  -1.10284
C    -2.28541   0.47363   0.87666
C    -1.50700  -0.47501   1.42926
C    -0.60153  -1.31027   0.60130
O    -0.09866  -2.33676   1.04572
C    -0.31717  -0.81096  -0.77587
H     3.78485   1.26057   0.77802
H     2.97574   0.47708   2.15098
H     4.37173  -0.34700   1.35989
H    -0.27325   2.90374  -0.44886
H    -1.23239   0.25617  -2.44922
H    -2.98592   1.06750   1.46917
H    -1.53714  -0.70557   2.49461
H     0.24253  -1.50489  -1.42282
22

C     3.46132   0.29502   1.17733
C     2.52221  -0.41989   0.24251
O     2.73020  -1.53921  -0.19856
C     1.25460   0.26193  -0.11712
N     0.95947   1.46665  -0.30528
N     0.03603   2.00502  -0.96989
C    -1.17205   0.14306  -1.35401
C    -2.27734   0.74028  -0.58527
O    -3.15432   1.43315  -1.10314
C    -2.28629   0.47240   0.87690
C    -1.50800  -0.47624   1.42984
C    -0.59845  -1.30873   0.60355
O    -0.10055  -2.33841   1.04569
C    -0.29583  -0.79519  -0.76751
H     3.78200   1.26152   0.77659
H     2.97399   0.47749   2.14991
H     4.37011  -0.34566   1.35814
H    -0.28079   2.89868  -0.45227
H    -1.23038   0.25779  -2.44830
H    -2.98696   1.06635   1.46912
H    -1.53845  -0.70660   2.49461
H     0.24382  -1.50368  -1.42210
22

C     3.45405   0.29770   1.17273
C     2.51535  -0.42174   0.23956
O     2.72972  -1.54205  -0.19747
C     1.23952   0.24899  -0.12752
N     0.96524   1.47116  -0.30034
N     0.02842   1.98801  -0.97337
C    -1.15872   0.15906  -1.34908
C    -2.27495   0.74276  -0.58434
O    -3.15486   1.43136  -1.10344
C    -2.28717   0.47116   0.87714
C    -1.50899  -0.47746   1.43041
C    -0.59537  -1.30719   0.60580
O    -0.10243  -2.34005   1.04566
C    -0.27450  -0.77941  -0.75915
H     3.77915   1.26248   0.77516
H     2.97224   0.47789   2.14883
H     4.36850  -0.34432   1.35638
H    -0.28833   2.89362  -0.45568
H    -1.22837   0.25940  -2.44738
H    -2.98800   1.06519   1.46907
H    -1.53975  -0.70764   2.49460
H     0.24511  -1.50247  -1.42139
22

C     3.44679   0.30038   1.16813
C     2.50849  -0.42359   0.23660
O     2.72924  -1.54488  -0.19639
C     1.22444   0.23606  -0.13791
N     0.97101   1.47567  -0.29541
N     0.02081   1.97099  -0.97685
C    -1.14539   0.17505  -1.34416
C    -2.27255   0.74525  -0.58340
O    -3.15541   1.42958  -1.10374
C    -2.28806   0.46992   0.87737
C    -1.50998  -0.47869   1.43098
C    -0.59230  -1.30565   0.60805
O    -0.10432  -2.34169   1.04562
C    -0.25317  -0.76363  -0.75079
H     3.77630   1.26343   0.77373
H     2.97049   0.47829   2.14776
H     4.36688  -0.34298   1.35463
H    -0.29587   2.88857  -0.45909
H    -1.22636   0.26102  -2.44645
H    -2.98903   1.06404   1.46902
H    -1.54105  -0.70867   2.49459
H     0.24640  -1.50127  -1.42068
22

C     3.43952   0.30306   1.16353
C     2.50162  -0.42544   0.23364
O     2.72876  -1.54771  -0.19531
C     1.20936   0.22312  -0.14830
N     0.97678   1.48019  -0.29047
N     0.01320   1.95398  -0.98033
C    -1.13205   0.19104  -1.33923
C    -2.27016   0.74773  -0.58247
O    -3.15595   1.42780  -1.10404
C    -2.28894   0.46868   0.87761
C    -1.51098  -0.47991   1.43155
C    -0.58922  -1.30411   0.61030
O    -0.10621  -2.34333   1.04559
C    -0.23183  -0.74785  -0.74243
H     3.77345   1.26438   0.77230
H     2.96874   0.47870   2.14669
H     4.36526  -0.34164   1.35287
H    -0.30341   2.88351  -0.46249
H    -1.22435   0.26263  -2.44553
H    -2.99007   1.06288   1.46896
H    -1.54235  -0.70970   2.49459
H     0.24769  -1.50006  -1.41997
22

C     3.43226   0.30574   1.15893
C     2.49476  -0.42729   0.23068
O     2.72828  -1.55055  -0.19423
C     1.19428   0.21018  -0.15870
N     0.98255   1.48470  -0.28554
N     0.00559   1.93697  -0.98381
C    -1.11872   0.20704  -1.33431
C    -2.26776   0.75022  -0.58153
O    -3.15650   1.42601  -1.10434
C    -2.28982   0.46744   0.87785
C    -1.51197  -0.48114   1.43212
C    -0.58614  -1.30257   0.61255
O    -0.10809  -2.34497   1.04556
C    -0.21050  -0.73208  -0.73406
H     3.77060   1.26533   0.77087
H     2.96699   0.47910   2.14562
H     4.36364  -0.34029   1.35112
H    -0.31095   2.87845  -0.46590
H    -1.22234   0.26424  -2.44461
H    -2.99111   1.06173   1.46891
H    -1.54366  -0.71074   2.49458
H     0.24898  -1.49885  -1.41926
22

C     3.42499   0.30842   1.15433
C     2.48790  -0.42914   0.22772
O     2.72780  -1.55338  -0.19315
C     1.17920   0.19725  -0.16909
N     0.98832   1.48921  -0.28061
N    -0.00202   1.91995  -0.98729
C    -1.10539   0.22303  -1.32938
C    -2.26537   0.75270  -0.58059
O    -3.15705   1.42423  -1.10464
C    -2.29070   0.46621   0.87809
C    -1.51296  -0.48236   1.43270
C    -0.58306  -1.30103   0.61480
O    -0.10998  -2.34661   1.04553
C    -0.18916  -0.71630  -0.72570
H     3.76775   1.26629   0.76944
H     2.96524   0.47951   2.14455
H     4.36202  -0.33895   1.34936
H    -0.31849   2.87339  -0.46931
H    -1.22033   0.26586  -2.44369
H    -2.99215   1.06057   1.46886
H    -1.54496  -0.71177   2.49458
H     0.25027  -1.49764  -1.41855
22

C     3.43226   0.30574   1.15893
C     2.49476  -0.42729   0.23068
O     2.72828  -1.55055  -0.19423
C     1.19428   0.21018  -0.15870
N     0.98255   1.48470  -0.28554
N     0.00559   1.93697  -0.98381
C    -1.11872   0.20704  -1.33431
C    -2.26776   0.75022  -0.58153
O    -3.15650   1.42601  -1.10434
C    -2.28982   0.46744   0.87785
C    -1.51197  -0.48114   1.43212
C    -0.58614  -1.30257   0.61255
O    -0.10809  -2.34497   1.04556
C    -0.21050  -0.73208  -0.73406
H     3.77060   1.26533   0.77087
H     2.96699   0.47910   2.14562
H     4.36364  -0.34029   1.35112
H    -0.31095   2.87845  -0.46590
H    -1.22234   0.26424  -2.44461
H    -2.99111   1.06173   1.46891
H    -1.54366  -0.71074   2.49458
H     0.24898  -1.49885  -1.41926
22

C     3.43952   0.30306   1.16353
C     2.50162  -0.42544   0.23364
O     2.72876  -1.54771  -0.19531
C     1.20936   0.22312  -0.14830
N     0.97678   1.48019  -0.29047
N     0.01320   1.95398  -0.98033
C    -1.13205   0.19104  -1.33923
C    -2.27016   0.74773  -0.58247
O    -3.15595   1.42780  -1.10404
C    -2.28894   0.46868   0.87761
C    -1.51098  -0.47991   1.43155
C    -0.58922  -1.30411   0.61030
O    -0.10621  -2.34333   1.04559
C    -0.23183  -0.74785  -0.74243
H     3.77345   1.26438   0.77230
H     2.96874   0.47870   2.14669
H     4.36526  -0.34164   1.35287
H    -0.30341   2.88351  -0.46249
H    -1.22435   0.26263  -2.44553
H    -2.99007   1.06288   1.46896
H    -1.54235  -0.70970   2.49459
H     0.24769  -1.50006  -1.41997
22

C     3.44679   0.30038   1.16813
C     2.50849  -0.42359   0.23660
O     2.72924  -1.54488  -0.19639
C     1.22444   0.23606  -0.13791
N     0.97101   1.47567  -0.29541
N     0.02081   1.97099  -0.97685
C    -1.14539   0.17505  -1.34416
C    -2.27255   0.74525  -0.58340
O    -3.15541   1.42958  -1.10374
C    -2.28806   0.46992   0.87737
C    -1.50998  -0.47869   1.43098
C    -0.59230  -1.30565   0.60805
O    -0.10432  -2.34169   1.04562
C    -0.25317  -0.76363  -0.75079
H     3.77630   1.26343   0.77373
H     2.97049   0.47829   2.14776
H     4.36688  -0.34298   1.35463
H    -0.29587   2.88857  -0.45909
H    -1.22636   0.26102  -2.44645
H    -2.98903   1.06404   1.46902
H    -1.54105  -0.70867   2.49459
H     0.24640  -1.50127  -1.42068
22

C     3.45405   0.29770   1.17273
C     2.51535  -0.42174   0.23956
O     2.72972  -1.54205  -0.19747
C     1.23952   0.24899  -0.12752
N     0.96524   1.47116  -0.30034
N     0.02842   1.98801  -0.97337
C    -1.15872   0.15906  -1.34908
C    -2.27495   0.74276  -0.58434
O    -3.15486   1.43136  -1.10344
C    -2.28717   0.47116   0.87714
C    -1.50899  -0.47746   1.43041
C    -0.59537  -1.30719   0.60580
O    -0.10243  -2.34005   1.04566
C    -0.27450  -0.77941  -0.75915
H     3.77915   1.26248   0.77516
H     2.97224   0.47789   2.14883
H     4.36850  -0.34432   1.35638
H    -0.28833   2.89362  -0.45568
H    -1.22837   0.25940  -2.44738
H    -2.98800   1.06519   1.46907
H    -1.53975  -0.70764   2.49460
H     0.24511  -1.50247  -1.42139
22

C     3.46132   0.29502   1.17733
C     2.52221  -0.41989   0.24251
O     2.73020  -1.53921  -0.19856
C     1.25460   0.26193  -0.11712
N     0.95947   1.46665  -0.30528
N     0.03603   2.00502  -0.96989
C    -1.17205   0.14306  -1.35401
C    -2.27734   0.74028  -0.58527
O    -3.15432   1.43315  -1.10314
C    -2.28629   0.47240   0.87690
C    -1.50800  -0.47624   1.42984
C    -0.59845  -1.30873   0.60355
O    -0.10055  -2.33841   1.04569
C    -0.29583  -0.79519  -0.76751
H     3.78200   1.26152   0.77659
H     2.97399   0.47749   2.14991
H     4.37011  -0.34566   1.35814
H    -0.28079   2.89868  -0.45227
H    -1.23038   0.25779  -2.44830
H    -2.98696   1.06635   1.46912
H    -1.53845  -0.70660   2.49461
H     0.24382  -1.50368  -1.42210
22

C     3.46859   0.29234   1.18193
C     2.52907  -0.41804   0.24547
O     2.73068  -1.53638  -0.19964
C     1.26969   0.27487  -0.10673
N     0.95370   1.46214  -0.31021
N     0.04364   2.02204  -0.96641
C    -1.18538   0.12707  -1.35893
C    -2.27974   0.73779  -0.58621
O    -3.15377   1.43493  -1.10284
C    -2.28541   0.47363   0.87666
C    -1.50700  -0.47501   1.42926
C    -0.60153  -1.31027   0.60130
O    -0.09866  -2.33676   1.04572
C    -0.31717  -0.81096  -0.77587
H     3.78485   1.26057   0.77802
H     2.97574   0.47708   2.15098
H     4.37173  -0.34700   1.35989
H    -0.27325   2.90374  -0.44886
H    -1.23239   0.25617  -2.44922
H    -2.98592   1.06750   1.46917
H    -1.53714  -0.70557   2.49461
H     0.24253  -1.50489  -1.42282
22

C     3.47585   0.28966   1.18653
C     2.53594  -0.41619   0.24843
O     2.73116  -1.53355  -0.20072
C     1.28477   0.28780  -0.09633
N     0.94793   1.45762  -0.31514
N     0.05125   2.03905  -0.96292
C    -1.19871   0.11108  -1.36386
C    -2.28213   0.73531  -0.58715
O    -3.15322   1.43672  -1.10254
C    -2.28453   0.47487   0.87643
C    -1.50601  -0.47379   1.42869
C    -0.60461  -1.31181   0.59905
O    -0.09678  -2.33512   1.04575
C    -0.33850  -0.82674  -0.78424
H     3.78770   1.25962   0.77945
H     2.97749   0.47668   2.15205
H     4.37335  -0.34834   1.36165
H    -0.26571   2.90880  -0.44545
H    -1.23440   0.25456  -2.45014
H    -2.98488   1.06866   1.46922
H    -1.53584  -0.70453   2.49462
H     0.24124  -1.50610  -1.42353
22

C     3.48312   0.28698   1.19113
C     2.54280  -0.41434   0.25139
O     2.73164  -1.53071  -0.20180
C     1.29985   0.30074  -0.08594
N     0.94217   1.45311  -0.32008
N     0.05886   2.05607  -0.95944
C    -1.21205   0.09509  -1.36878
C    -2.28453   0.73282  -0.58808
O    -3.15268   1.43850  -1.10224
C    -2.28365   0.47611   0.87619
C    -1.50502  -0.47256   1.42812
C    -0.60769  -1.31335   0.59680
O    -0.09489  -2.33348   1.04579
C    -0.35984  -0.84252  -0.79260
H     3.79054   1.25867   0.78088
H     2.97924   0.47627   2.15312
H     4.37497  -0.34969   1.36340
H    -0.25817   2.91385  -0.44205
H    -1.23641   0.25295  -2.45106
H    -2.98384   1.06982   1.46927
H    -1.53454  -0.70350   2.49462
H     0.23995  -1.50731  -1.42424
22

C     3.49038   0.28430   1.19572
C     2.54966  -0.41249   0.25435
O     2.73212  -1.52788  -0.20288
C     1.31493   0.31368  -0.07554
N     0.93640   1.44860  -0.32501
N     0.06647   2.07308  -0.95596
C    -1.22538   0.07909  -1.37371
C    -2.28692   0.73034  -0.58902
O    -3.15213   1.44029  -1.10194
C    -2.28277   0.47735   0.87595
C    -1.50402  -0.47133   1.42755
C    -0.61076  -1.31489   0.59455
O    -0.09301  -2.33184   1.04582
C    -0.38117  -0.85830  -0.80096
H     3.79339   1.25772   0.78231
H     2.98099   0.47587   2.15419
H     4.37659  -0.35103   1.36516
H    -0.25063   2.91891  -0.43864
H    -1.23842   0.25133  -2.45198
H    -2.98280   1.07097   1.46932
H    -1.53324  -0.70246   2.49463
H     0.23866  -1.50852  -1.42495
22

C     3.49765   0.28162   1.20032
C     2.55652  -0.41064   0.25731
O     2.73260  -1.52505  -0.20396
C     1.33001   0.32661  -0.06515
N     0.93063   1.44408  -0.32994
N     0.07408   2.09010  -0.95248
C    -1.23871   0.06310  -1.37863
C    -2.28932   0.72785  -0.58995
O    -3.15159   1.44207  -1.10164
C    -2.28189   0.47859   0.87572
C    -1.50303  -0.47011   1.42698
C    -0.61384  -1.31643   0.59230
O    -0.09112  -2.33020   1.04585
C    -0.40251  -0.87407  -0.80932
H     3.79624   1.25676   0.78374
H     2.98274   0.47546   2.15526
H     4.37820  -0.35237   1.36691
H    -0.24309   2.92397  -0.43523
H    -1.24043   0.24972  -2.45290
H    -2.98176   1.07213   1.46937
H    -1.53193  -0.70143   2.49464
H     0.23737  -1.50973  -1.42566
22

C     3.50492   0.27894   1.20492
C     2.56339  -0.40879   0.26027
O     2.73308  -1.52221  -0.20504
C     1.34509   0.33955  -0.05476
N     0.92486   1.43957  -0.33488
N     0.08169   2.10711  -0.94900
C    -1.25204   0.04711  -1.38356
C    -2.29171   0.72537  -0.59089
O    -3.15104   1.44386  -1.10134
C    -2.28100   0.47983   0.87548
C    -1.50203  -0.46888   1.42640
C    -0.61692  -1.31797   0.59005
O    -0.08924  -2.32855   1.04588
C    -0.42384  -0.88985  -0.81768
H     3.79909   1.25581   0.78517
H     2.98449   0.47506   2.15633
H     4.37982  -0.35371   1.36867
H    -0.23555   2.92903  -0.43182
H    -1.24244   0.24810  -2.45382
H    -2.98073   1.07328   1.46942
H    -1.53063  -0.70039   2.49464
H     0.23608  -1.51094  -1.42638
22

C     3.51218   0.27626   1.20952
C     2.57025  -0.40694   0.26322
O     2.73356  -1.51938  -0.20612
C     1.36018   0.35249  -0.04436
N     0.91909   1.43506  -0.33981
N     0.08930   2.12413  -0.94552
C    -1.26538   0.03112  -1.38848
C    -2.29411   0.72288  -0.59183
O    -3.15049   1.44564  -1.10104
C    -2.28012   0.48106   0.87524
C    -1.50104  -0.46766   1.42583
C    -0.62000  -1.31951   0.58780
O    -0.08735  -2.32691   1.04591
C    -0.44518  -0.90563  -0.82604
H     3.80194   1.25486   0.78660
H     2.98624   0.47466   2.15740
H     4.38144  -0.35505   1.37042
H    -0.22801   2.93408  -0.42842
H    -1.24445   0.24649  -2.45474
H    -2.97969   1.07444   1.46947
H    -1.52933  -0.69936   2.49465
H     0.23479  -1.51215  -1.42709
22

C     3.51945   0.27358   1.21412
C     2.57711  -0.40509   0.26618
O     2.73404  -1.51655  -0.20720
C     1.37526   0.36542  -0.03397
N     0.91332   1.43054  -0.34475
N     0.09691   2.14114  -0.94204
C    -1.27871   0.01512  -1.39341
C    -2.29650   0.72040  -0.59276
O    -3.14995   1.44742  -1.10074
C    -2.27924   0.48230   0.87501
C    -1.50005  -0.46643   1.42526
C    -0.62307  -1.32105   0.58555
O    -0.08546  -2.32527   1.04595
C    -0.46651  -0.92141  -0.83441
H     3.80479   1.25391   0.78803
H     2.98799   0.47425   2.15847
H     4.38306  -0.35639   1.37218
H    -0.22047   2.93914  -0.42501
H    -1.24646   0.24488  -2.45566
H    -2.97865   1.07559   1.46952
H    -1.52803  -0.69832   2.49465
H     0.23350  -1.51336  -1.42780
22

C     3.52672   0.27090   1.21872
C     2.58397  -0.40324   0.26914
O     2.73452  -1.51371  -0.20829
C     1.39034   0.37836  -0.02357
N     0.90755   1.42603  -0.34968
N     0.10452   2.15816  -0.93856
C    -1.29204  -0.00087  -1.39833
C    -2.29890   0.71791  -0.59370
O    -3.14940   1.44921  -1.10044
C    -2.27836   0.48354   0.87477
C    -1.49905  -0.46521   1.42469
C    -0.62615  -1.32259   0.58330
O    -0.08358  -2.32363   1.04598
C    -0.48785  -0.93718  -0.84277
H     3.80764   1.25295   0.78946
H     2.98974   0.47385   2.15954
H     4.38468  -0.35774   1.37393
H    -0.21293   2.94420  -0.42160
H    -1.24847   0.24326  -2.45658
H    -2.97761   1.07675   1.46957
H    -1.52672  -0.69729   2.49466
H     0.23221  -1.51457  -1.42851
22

C     3.53398   0.26822   1.22332
C     2.59084  -0.40139   0.27210
O     2.73500  -1.51088  -0.20937
C     1.40542   0.39129  -0.01318
N     0.90178   1.42152  -0.35461
N     0.11212   2.17517  -0.93508
C    -1.30537  -0.01686  -1.40326
C    -2.30129   0.71543  -0.59464
O    -3.14885   1.45099  -1.10014
C    -2.27748   0.48478   0.87453
C    -1.49806  -0.46398   1.42412
C    -0.62923  -1.32413   0.58105
O    -0.08169  -2.32199   1.04601
C    -0.50918  -0.95296  -0.85113
H     3.81049   1.25200   0.79089
H     2.99149   0.47344   2.16061
H     4.38629  -0.35908   1.37569
H    -0.20539   2.94926  -0.41819
H    -1.25048   0.24165  -2.45750
H    -2.97657   1.07790   1.46962
H    -1.52542  -0.69625   2.49467
H     0.23092  -1.51578  -1.42922
22

C     3.54125   0.26554   1.22792
C     2.59770  -0.39954   0.27506
O     2.73548  -1.50805  -0.21045
C     1.42050   0.40423  -0.00278
N     0.89601   1.41700  -0.35955
N     0.11973   2.19219  -0.93160
C    -1.31871  -0.03286  -1.40818
C    -2.30369   0.71294  -0.59557
O    -3.14831   1.45278  -1.09985
C    -2.27660   0.48602   0.87430
C    -1.49707  -0.46276   1.42354
C    -0.63231  -1.32567   0.57880
O    -0.07981  -2.32034   1.04604
C    -0.53052  -0.96874  -0.85949
H     3.81334   1.25105   0.79232
H     2.99324   0.47304   2.16168
H     4.38791  -0.36042   1.37744
H    -0.19785   2.95431  -0.41478
H    -1.25249   0.24003  -2.45842
H    -2.97553   1.07906   1.46967
H    -1.52412  -0.69522   2.49467
H     0.22963  -1.51699  -1.42993
22

C     3.54851   0.26286   1.23252
C     2.60456  -0.39769   0.27802
O     2.73596  -1.50521  -0.21153
C     1.43558   0.41717   0.00761
N     0.89024   1.41249  -0.36448
N     0.12734   2.20920  -0.92811
C    -1.33204  -0.04885  -1.41311
C    -2.30608   0.71046  -0.59651
O    -3.14776   1.45456  -1.09955
C    -2.27571   0.48725   0.87406
C    -1.49607  -0.46153   1.42297
C    -0.63539  -1.32721   0.57655
O    -0.07792  -2.31870   1.04607
C    -0.55185  -0.98452  -0.86785
H     3.81619   1.25010   0.79375
H     2.99499   0.47264   2.16275
H     4.38953  -0.36176   1.37920
H    -0.19031   2.95937  -0.41138
H    -1.25450   0.23842  -2.45935
H    -2.97449   1.08022   1.46972
H    -1.52282  -0.69418   2.49468
H     0.22834  -1.51819  -1.43065
22

C     3.55578   0.26018   1.23712
C     2.61142  -0.39584   0.28098
O     2.73644  -1.50238  -0.21261
C     1.45066   0.43010   0.01800
N     0.88447   1.40798  -0.36942
N     0.13495   2.22622  -0.92463
C    -1.34537  -0.06484  -1.41803
C    -2.30848   0.70797  -0.59744
O    -3.14722   1.45635  -1.09925
C    -2.27483   0.48849   0.87382
C    -1.49508  -0.46030   1.42240
C    -0.63846  -1.32875   0.57430
O    -0.07604  -2.31706   1.04611
C    -0.57319  -1.00029  -0.87622
H     3.81904   1.24915   0.79518
H     2.99674   0.47223   2.16382
H     4.39115  -0.36310   1.38095
H    -0.18277   2.96443  -0.40797
H    -1.25652   0.23681  -2.46027
H    -2.97346   1.08137   1.46977
H    -1.52151  -0.69315   2.49468
H     0.22705  -1.51940  -1.43136
22

C     3.56305   0.25750   1.24172
C     2.61829  -0.39399   0.28393
O     2.73692  -1.49954  -0.21369
C     1.46575   0.44304   0.02840
N     0.87870   1.40346  -0.37435
N     0.14256   2.24323  -0.92115
C    -1.35870  -0.08083  -1.42296
C    -2.31087   0.70549  -0.59838
O    -3.14667   1.45813  -1.09895
C    -2.27395   0.48973   0.87359
C    -1.49409  -0.45908   1.42183
C    -0.64154  -1.33029   0.57205
O    -0.07415  -2.31542   1.04614
C    -0.59452  -1.01607  -0.88458
H     3.82189   1.24819   0.79661
H     2.99849   0.47183   2.16490
H     4.39277  -0.36444   1.38271
H    -0.17523   2.96948  -0.40456
H    -1.25853   0.23519  -2.46119
H    -2.97242   1.08253   1.46982
H    -1.52021  -0.69211   2.49469
H     0.22576  -1.52061  -1.43207
