11

C -2.458960237 -0.468618517 -0.081033176
C 0.242287626 0.302247955 -0.414188093
C 2.396732538 -1.013698283 0.708304236
O 1.837137257 -1.079131826 -1.923823719
C 0.160771757 3.402418741 -1.659672813
N 1.005049630 3.619259863 0.401963946
H -3.532554769 -0.084775967 -1.793159268
H -2.529337115 -2.488000962 0.330380044
H -3.296264832 0.570372710 1.485099460
H 4.069851754 0.042427129 1.228001994
H 2.052908851 -2.769190660 1.714045581

