14

C -3.136403601 0.287730834 0.687482043
C -0.647094476 0.456516617 -0.748073900
C 1.462497938 2.007513226 0.495451494
C 3.830229984 0.414021741 0.638460657
N 3.123781138 -1.812044000 -0.247926984
C 0.572320810 -2.111762633 -1.055858469
O -0.295294576 -4.058733494 -1.798838103
H -4.044386485 2.135536275 0.778104917
H -2.827853636 -0.368753351 2.619749644
H -4.422526749 -1.029048131 -0.238853767
H -1.017788009 1.136086187 -2.665421377
H 1.900895653 3.770216062 -0.481853214
H 0.999901544 2.556838129 2.436201831
H 4.302785254 -3.311366786 -0.346044172

