14

C -3.189029564 0.383251538 0.557135954
C -0.711953788 0.420474135 -0.909642082
C 1.373743852 2.052791915 0.113604798
C 3.633206533 0.732108492 0.415553383
N 3.031960952 -1.753476153 -0.170315365
C 0.583318770 -2.164470666 -0.986101138
O -0.323583965 -4.158275346 -1.593628302
H -4.116621757 2.222095388 0.485320257
H -2.864020651 -0.100100380 2.535966236
H -4.455576207 -1.028344700 -0.245919377
H -1.079129351 0.969149142 -2.872759292
H 1.252049685 4.081034038 0.361491852
H 2.519546557 1.567877817 2.373255110
H 4.266792227 -3.187157847 -0.004388398

