10

N 0.468623733 0.669294903 -0.546730933
C -0.762530097 -1.351368096 0.593169478
O 0.198213732 -2.970476142 1.828486186
C 3.045627697 1.219965007 -0.484939572
O 4.625515705 0.027593516 0.586140339
C -3.637786738 -1.288819238 0.073980926
O -5.019143673 -2.871663837 0.868427155
H -0.605573924 1.885712913 -1.542420957
H 3.456144506 2.948711335 -1.582923438
H -4.344925599 0.318827090 -1.081627134

