10

N -1.750293401 2.712455998 -1.644886688
C -0.907739449 0.696158720 -0.747887630
O 1.327372599 -0.421998879 -1.488332857
C 3.064866450 -0.871752639 0.348975062
O 2.990952251 0.000398676 2.414635690
C -2.514716436 -0.814958942 1.060120558
O -2.013137524 -2.927551032 1.678669341
H -0.528523459 3.516533973 -2.895411950
H 4.549243127 -2.096510010 -0.413802381
H -4.218024159 0.207224135 1.687920873

