10

N -0.025623609 1.620778129 -0.751829258
C -0.896134093 -0.499261787 0.076245290
O 0.853507617 -1.944288092 0.857955333
C 3.089536163 0.291921604 -0.121460521
O 4.365832622 1.220952767 1.424738149
C -3.660200685 -1.253705859 0.090023151
O -4.362252460 -3.306754399 0.691447671
H -1.073335715 3.009218268 -1.533633409
H 3.541230199 -0.484717491 -1.976694118
H -4.976181827 0.258716338 -0.510824700

