12

O -3.731972748 -2.343330862 -1.747355916
C -1.855911082 -1.333885522 -0.947937458
C 0.791464393 -2.154928116 -1.325703574
C 2.357603605 -0.563708875 -0.171562301
C 1.024360533 1.566264954 1.156711093
C -1.781473485 1.057752542 0.662273323
H 1.289371360 -3.818014586 -2.402267149
H 1.491873315 1.575343444 3.168460613
H 4.398912977 -0.733092378 -0.158160004
H 1.648586148 3.387110335 0.407623223
H -2.862095209 0.730650720 2.386784888
H -2.720458781 2.582481826 -0.357807944

