11

N 3.960847249 0.619804884 -0.045327103
C 1.497158728 0.073027124 0.088003242
N 0.717734272 -2.321064654 -1.086447806
N -1.572758280 -2.512228026 -0.775655965
C -2.480099772 -0.277475876 0.745981879
O -4.541553964 0.875395445 -0.346814992
N -0.305021960 1.310238056 1.080513065
H 5.114829369 -0.556375169 -0.979235366
H 4.627027826 2.236674040 0.680454907
H -3.113083341 -1.082374634 2.545747138
H -3.949728705 1.958096454 -1.679750775

