13

C 3.244764409 0.185440544 -0.856377865
C 1.184224938 0.919140394 0.941799268
O 1.462454475 2.226788334 2.744218647
N -1.375859022 -0.045560484 0.324699470
C -1.511141681 -2.405582088 -0.548084184
C -3.206547004 1.625657629 0.671439081
H 4.824073954 1.464456545 -0.557678192
H 3.873447491 -1.738543102 -0.464679062
H 2.586275414 0.252148613 -2.804136534
H -3.339711808 -3.159357084 -1.029940989
H 0.163576130 -3.550466954 -0.571827421
H -2.720130535 3.446876438 1.424679983
H -5.125773775 1.059102071 0.291167660

