12

O 5.178173291 -0.522486502 3.079025223
C 4.156789606 0.506761864 1.349970436
C 1.453226715 0.029582188 0.625607383
O 0.658971669 1.401543405 -1.380062208
N -0.053763672 -1.472856850 1.691116457
C -2.445682606 -1.267890352 0.319622645
C -1.936451814 0.685866686 -1.783321353
H 5.129928678 1.902324229 0.136391644
H -3.930137744 -0.674120470 1.622132345
H -2.976265318 -3.118462088 -0.419014643
H -2.099762059 -0.089308249 -3.685034351
H -3.098864929 2.380290617 -1.640533969

