12

O 4.531463186 1.329764350 3.500360809
C 4.113148252 0.275107463 1.549041045
C 1.585924701 0.367898723 0.161472052
O 1.663178632 1.162498852 -2.041025611
N -0.381255987 -0.383927984 1.470717321
C -2.571551726 -1.429940300 0.037620290
C -2.682883939 0.768898606 -1.515692047
H 5.587467542 -0.764784503 0.488861396
H -4.100661830 -1.671964442 1.387066515
H -2.141620834 -3.187743378 -0.945176757
H -2.261948975 0.772122252 -3.508877672
H -3.305093424 2.523316712 -0.668467694

