8

N 3.089822967 -1.958148119 -0.125149059
C 1.480343964 -0.394171642 -0.368762649
C -0.206007190 1.558453582 -0.560135232
C -2.763522124 0.717759821 0.601452072
O -1.031873858 2.297509161 1.876567036
H -0.140259933 2.863302725 -2.130492861
H 2.819638524 -3.825707208 -0.454185016
H -2.671029441 -1.179771572 1.505864167

