8

N 2.703081577 -2.087581621 0.020263155
C 2.187650103 0.021199307 0.628956299
C 0.152196180 1.623564398 -0.282726102
C -1.631120903 -0.414897345 0.170289155
O -2.217835284 2.230961681 0.752774178
H 0.563350148 2.435472226 -2.116420600
H 0.246480909 -2.405373254 -0.944713509
H -1.598210793 -1.347190308 2.003308850

