12

C -3.098488854 2.314626111 1.634506215
N -1.348963420 0.396275871 0.721983207
C 0.391798202 1.289775950 -1.136020992
C 2.850546563 0.961757856 -0.729101390
O 3.783429102 -0.179701522 1.342588901
H 2.313759974 -0.602337900 2.355994125
H 4.294250023 1.581695324 -2.038929696
H -0.280619813 2.252575990 -2.821781625
H -2.318134161 -1.114689555 0.065795142
H -4.197918342 3.211012578 0.117903414
H -4.410319099 1.470483297 2.982306281
H -2.041800549 3.792560202 2.608633765

