16

C 3.482963593 -0.773978587 1.651418848
C 2.385245139 0.918764811 -0.315023865
C 0.284223899 0.247372784 -2.028240026
C -3.064331185 -1.544039810 -1.548375144
C 0.062832808 2.324377722 0.021625705
C -1.605931723 1.981597881 2.185324398
N -2.828120276 1.739218982 3.963595137
H 2.060853373 -1.674237404 2.878106802
H 4.637350191 -2.250907627 0.793159099
H 4.712252415 0.330791702 2.885165666
H -0.096785536 -1.767418496 -1.461600470
H 0.145891619 0.588290810 -4.035146782
H -3.134050760 -2.969480672 -3.023970094
H -3.356577822 -2.299222122 0.335804502
H -4.263125572 0.065261257 -1.942927244
H -0.118118824 4.191930140 -0.813839790

