19

C -4.808817269 -0.574278547 -0.032359973
C -2.354715102 0.918185251 0.005445057
C -0.235553889 -0.267971441 1.617316359
C 2.218137092 0.735949455 0.456232100
C 4.496874659 -1.004036378 0.663525134
C 1.357297754 1.296114696 -2.221882681
C -1.247807571 1.519746643 -2.575829253
H -4.504606549 -2.452134395 -0.838916153
H -5.571108958 -0.820540891 1.871073866
H -6.223044383 0.380716036 -1.186608658
H -2.759930133 2.822046904 0.738472202
H -0.410307560 0.141502957 3.631125888
H -0.292500276 -2.329840051 1.404914355
H 2.693412302 2.570037847 1.302709047
H 4.110592756 -2.825282323 -0.232199455
H 4.975980117 -1.364929659 2.637175489
H 6.159230902 -0.187175332 -0.246626021
H 2.709637623 1.758770088 -3.704279662
H 0.119221744 -0.433437316 -3.352030347

