16

C 2.773247543 -0.641688366 2.420742491
C 0.907647835 0.086593430 0.440180010
C 1.308823275 1.152965864 -2.143606237
C -0.293672945 2.523817036 -0.270403991
C -1.867905457 0.364253668 0.588452552
N -3.557096661 -0.970232749 -1.138431319
C -3.318387118 -3.211738743 -2.122509429
H 2.021575586 -0.286292298 4.309231545
H 4.519220009 0.436632389 2.206882016
H 3.245972454 -2.644949766 2.291478459
H 3.170896167 1.940328474 -2.494500732
H 0.440136792 0.273890612 -3.783443615
H -0.100007425 4.388820271 0.525989015
H -2.664509716 0.520961210 2.476603854
H -5.107127450 0.042908953 -1.622176489
H -1.514596743 -3.973694268 -1.374537140

