11

O 4.450762432 0.428826724 0.390827620
C 1.943927930 -0.044425023 0.059382867
C 0.931282640 -2.068669167 -1.119369387
N -1.872138784 -1.452908410 -0.834211604
C -2.202492390 0.937075690 0.521205362
C 0.114613515 1.761500516 1.045941943
H 5.340277967 -0.959176906 -0.375237058
H -2.633646293 -1.399312904 -2.600494393
H -2.696383557 -2.930004936 0.082770760
H -4.060822038 1.680667178 0.900108735
H 0.571038480 3.485813546 2.041425004

