15

O 1.090563705 -5.033199777 0.877597392
C 0.735209778 -2.783528352 0.446499027
C -1.935191801 -1.867228935 -0.219649179
C -2.326799463 0.886162500 0.608331337
C -0.458285193 2.545904684 -0.533986714
C 2.093672133 1.642497526 -0.498346007
C 2.647346146 -0.894763550 0.380093239
H -2.226081104 -2.095442939 -2.256250261
H -3.293965621 -3.084967032 0.731202954
H -4.267469070 1.552335178 0.451787010
H -1.777418718 0.888917248 2.646397447
H 2.914544973 2.051688050 -2.383625322
H -0.894739419 4.388028324 -1.312022997
H 3.103721808 3.102140599 0.624337940
H 4.595853733 -1.455957672 0.633358737

