10

C -2.620445139 0.120485971 0.228285511
N -0.762359190 2.162256436 -0.143892950
N 1.301530821 2.054501512 0.996236590
C 2.989590665 0.301819838 1.058508281
N 2.477292716 -1.712974484 -0.682520397
N 1.136948337 -1.749340109 -2.371242760
H -1.945605685 -1.392875477 1.462918932
H -3.242928597 -0.688650725 -1.560603032
H -4.253035360 1.018540914 1.112696310
H 4.637995929 0.215218546 2.238142036

