13

N 6.714702366 1.006668880 -0.002596597
C 4.707604803 0.211000621 -0.193179672
C 2.136837144 -0.758469397 -0.442212656
C -3.446917615 -1.573858989 1.669274776
C -2.491378224 0.151942503 -0.206163886
C 0.139660625 1.245706857 0.166277776
H 1.906305297 -1.463904480 -2.370797200
H -5.197010365 -2.404684128 0.889210817
H 1.913061615 -2.367287506 0.833879598
H -2.994197591 -0.124114887 -2.201378207
H -3.950480551 1.529262227 0.538966898
H 0.356545362 1.839588024 2.128673962
H 0.423861223 2.899082516 -1.035152381

