12

N -0.212875059 3.192077389 -0.709571883
C 0.723158371 0.822299904 0.058368122
C 3.035346453 -0.485753930 0.246075960
O 2.667826015 -2.881065300 0.817641182
N 0.060477094 -3.421275789 0.879142904
C -1.056771755 -1.288782767 0.427202694
N -3.555528377 -0.872476990 0.316965105
H 0.901592662 1.896140252 1.938441941
H 1.258859861 4.353386470 -1.125397613
H 4.965482632 0.171419721 0.212774280
H -4.048404534 0.810447807 -0.431792631
H -4.759449572 -2.332860154 0.224458419

