14

O 3.004466192 1.395518807 0.398880631
C 2.259180092 -0.846857009 -0.905946326
C -0.039526192 -2.133736992 0.242846021
C -2.556456140 -0.826116698 -0.027455831
C -3.105214182 1.630732148 -0.153014167
O -1.564214072 3.647782142 -0.082959903
H 0.181400045 3.116952650 0.181164850
H 3.851293873 -2.166090577 -0.956252026
H 1.867381984 -0.252211693 -2.840669211
H 0.361802372 -2.531790887 2.242175202
H -0.186930461 -3.991770141 -0.652581050
H -4.186401180 -2.063758165 -0.097254679
H 3.471965009 0.955643421 2.095460041
H -5.062607563 2.208636967 -0.347153517

