14

O 2.153297792 1.786258158 0.265833424
C 2.609013127 -0.802604763 -0.467626978
C 0.013678537 -2.133631677 -0.351408179
C -1.800736899 -0.492637371 1.167801310
C -2.882567425 1.605896083 -0.020163075
O -1.823523897 2.801833808 -1.799331227
H 0.785365585 2.476427713 -1.059814422
H 3.961838883 -1.557465123 0.889307004
H 3.442811203 -0.814790624 -2.346611219
H 0.196612189 -3.996389293 0.505849807
H -0.703709442 -2.390861065 -2.270246045
H -2.829976630 -1.340352372 2.717281660
H 0.475149883 1.288457394 1.573088358
H -4.652398496 2.381049418 0.740664719

