11

O 0.921671663 1.775994488 2.318318580
C 0.427116125 -0.237970679 -0.037250168
C -1.391357913 1.122169810 -1.467361130
C -2.226924678 -1.146401087 0.032320515
C 2.711093563 -1.570042706 -0.531917766
N 4.561156112 -2.616467228 -0.978609546
H 2.585001511 2.531955746 2.165316753
H -0.369577839 2.788290443 1.107517610
H -1.378103922 1.211933955 -3.507370181
H -3.286810135 -0.879381784 1.769453561
H -2.534338899 -2.979716279 -0.849485769

