13

C -2.277531279 1.150592821 -0.607244895
C -1.851187674 -1.348447732 0.642641053
C 0.161467365 2.475551106 -1.218508217
N 2.378672105 1.707757593 -0.805719769
C 2.774909179 -0.723901941 0.399788664
C 0.457659996 -2.191569981 1.097374940
H -3.428102973 2.391946958 0.588040931
H -3.367956184 0.931730486 -2.355835520
H -3.492946166 -2.456868461 1.170056471
H -0.016504944 4.318748281 -2.131197426
H 3.939176512 -0.391970961 2.079547791
H 3.973120737 -1.847202657 -0.861200503
H 0.738912961 -4.008371952 2.007555292

