13

C -2.012132227 1.699839376 0.482439596
C -1.787899706 -1.002742255 -0.315929176
C -0.507467583 1.038593780 -1.813448879
N 2.077950972 -0.091574030 -1.442924061
C 2.686879444 -0.289309567 1.248985928
C 0.867406458 -2.072073149 0.142636396
H -1.208628030 2.423940721 2.216694627
H -3.819435811 2.539804081 0.014021711
H -3.390566190 -2.160876312 -0.817899507
H -0.929361299 1.783458037 -3.666744108
H 2.127276075 1.166991052 2.568391707
H 4.589866929 -0.987007432 1.539075442
H 1.306110951 -4.049044263 -0.155299658

