15

C 2.774063640 1.214674908 -0.737514980
C 0.796910489 -0.274040089 0.702351107
O 1.839885864 -0.842431025 3.108034749
C -1.800750373 1.048082398 0.886316928
C -3.343756351 -0.445158191 -0.984317067
O -2.421862891 -0.957813979 -3.043144445
C -0.045533008 -2.815523986 -0.325704238
H 2.078203969 1.665324776 -2.623983897
H 3.228811341 2.969144320 0.248252036
H 4.500796087 0.101926593 -0.905438500
H 0.825727528 -2.177735598 3.822834956
H -2.566010595 0.867086697 2.789655846
H -1.774362521 3.045747184 0.359469165
H -5.306149570 -0.987867654 -0.549384108
H 0.996001092 -3.461763946 -2.001314528

