14

C -3.508984517 0.149979399 -0.916189605
C -1.266272652 -0.995016488 0.458367074
O -0.175119654 -2.798527109 -1.160797588
C 0.621471113 0.946577025 1.339055189
C 3.140953117 0.865959853 0.700109627
C 5.583026950 0.958780385 0.832993165
H -2.876454425 1.038363366 -2.667398427
H -4.878515357 -1.317086026 -1.378974330
H -4.434365561 1.573246094 0.253348060
H -1.962077899 -1.916121384 2.194701484
H 1.311074524 -3.485411393 -0.370382069
H 2.204530195 0.863473805 -1.304217426
H -0.115318609 2.522066394 2.438240883
H 6.687499418 1.744790235 -0.710769591

