14

C 3.711349127 0.622659731 -0.133379345
C -0.268170543 0.597279878 1.556921203
C -1.146422725 -2.086781606 0.918647043
C -3.328069451 -0.811184668 -0.473471315
O -5.430220030 -1.424557983 -1.001748770
C -1.857178446 1.666859384 -0.614807428
H 2.947568731 -0.118998530 -1.881714574
H 4.577602531 2.467469768 -0.411730958
H 5.000620691 -0.710392421 0.754817747
H 2.204575813 1.056493172 1.540739724
H -1.569924938 -3.359344551 2.481449546
H 0.024611396 -3.087952554 -0.463753795
H -2.855024477 3.440087125 -0.297086830
H -0.894200374 1.756729090 -2.444509407

