13

C -1.976937382 0.313593247 2.608721618
C -1.026918259 -0.840489312 0.180144662
O -1.941256632 0.718883508 -1.968224838
C -0.273493505 1.449128296 -3.593733273
C 2.238315871 0.504572825 -2.596744855
O 2.777667518 1.631213669 -0.197385541
C 1.774664329 -0.839886168 -0.222800732
H -4.025949259 0.510936099 2.549743323
H -1.486522575 -0.898906076 4.202579900
H -1.818666545 -2.722038214 -0.124442264
H -1.132318962 2.169360634 2.894109834
H 3.840969883 0.205035379 -3.831114451
H 2.970557325 -2.345818611 0.479756336

