13

C 2.451365239 -1.296185580 -0.326905631
C 0.318073580 0.554327235 0.053793983
C 0.763483615 3.250433247 0.205031637
N 0.004210140 2.631928173 -1.936542861
C -2.131086027 -0.552920069 1.015510455
O -3.181818199 -2.300627644 -0.710491858
H 1.813936523 -2.904192638 -1.449426911
H 4.038320785 -0.405674310 -1.291102236
H 3.120433564 -2.020199336 1.488350129
H -3.471145265 0.971968765 1.433214837
H 1.366653883 4.938752758 1.189612113
H -3.424120130 -1.437925414 -2.289221843
H -1.804477574 -1.606794099 2.761190769

