13

C 2.853467286 -1.425896494 -0.240490402
C 0.427721669 -0.010521560 -0.063282959
C -0.158051572 2.622810415 0.083902082
N -0.552908334 1.609121713 -2.164701893
C -2.159690679 -0.840726548 1.012177034
O -3.742269393 -1.327819879 -0.769947726
H 2.561733427 -3.203064522 -1.244360408
H 4.270626575 -0.326889927 -1.253890939
H 3.577526755 -1.859562789 1.641457043
H -2.538527042 1.359287409 1.839974908
H 0.034238889 4.484527623 0.897615393
H -2.436280557 0.717893764 -2.432755348
H -2.208903343 -1.930561330 2.772192055

