13

N -3.519372153 1.078990512 0.050618714
C -0.857035508 0.716653764 0.070626379
C 0.130338738 -1.576520800 -0.211271645
O -0.901831126 -3.878772531 -0.540145747
N 2.833948721 -1.372456003 -0.117299193
C 3.566813425 1.531896165 0.289941851
C 1.222557995 2.539489706 0.367160898
H -4.043183221 2.237356306 -1.378182252
H -4.115647585 1.886803588 1.678318702
H -2.710606146 -3.628920105 -0.535202054
H 3.622214941 -2.350708939 1.338185234
H 3.698547518 -1.941773774 -1.737465921
H 0.900522094 4.543077575 0.629552224

