11

C -0.889853740 2.172906195 1.039019592
C -2.691022744 0.472725818 0.959484610
C -1.951050950 -1.598601022 -0.852496802
N 0.346430754 -2.136102059 -1.220232593
C 2.352844953 -0.506393935 -0.156446911
C 1.436804258 2.178947385 0.162671763
H 3.921244277 -0.510636559 -1.493530926
H -4.152533281 0.124952565 2.347398668
H -3.381194264 -2.848099425 -1.638565025
H 3.025217313 -1.452900208 1.554604361
H 2.306438023 3.731399556 -0.846867629

