11

C -3.069662594 0.042049090 -2.013679308
N -2.242686033 1.267870906 0.287025512
C 0.013899238 1.270685124 0.936360807
O 1.957340771 0.253390466 -0.569617349
C 3.955884356 -0.909858116 0.356442617
O 3.654934226 -1.203253668 2.825344231
H -3.927764607 1.467564804 -3.231479956
H -4.550309972 -1.306476499 -1.525632630
H -1.574189313 -0.927958234 -3.052034851
H 0.668876215 2.172699837 2.654253152
H 5.139249487 -2.054297516 3.434558429

