10

O 3.997607997 1.413927649 -0.584004287
C 2.328563257 -0.194359031 0.007544505
N 2.042517228 -2.455483689 0.700206022
C -3.144742736 -0.620995828 -0.646715643
C -3.047571526 1.121306677 0.836822582
N 0.406475611 1.678083904 -0.326651595
H 3.749903433 -3.307625468 0.887400270
H -3.092338401 -2.199198503 -1.900571565
H -3.391386010 2.496183382 2.269989609
H 0.168904628 2.003755279 -2.208885693

