17

C 3.348117972 -0.177602584 -1.951587897
C 1.721219038 0.382202627 0.335951693
O 0.460463933 2.733368879 0.049636945
C -2.176589498 2.455063282 0.481075082
C -2.770547313 -0.266262487 -0.194185705
C -0.376108052 -1.621728737 0.605929211
O 0.051739908 -4.026440380 0.132777279
H 4.752551788 1.312376772 -2.174288681
H 2.203484647 -0.254633188 -3.664473677
H 4.296375889 -1.990265885 -1.717836976
H 2.890967919 0.422651666 2.042246071
H -3.159306628 3.833244532 -0.691008064
H -2.630969780 2.849521595 2.467216243
H -4.468165902 -1.049860006 0.658370472
H -2.879344931 -0.531014874 -2.242385605
H -0.740555190 -1.523030931 3.314260637
H -0.407399139 -3.162182130 2.545256735

