10

O 4.165441226 -1.256493678 0.235997710
C 1.798484081 -0.452953274 0.097069297
C 1.467541013 2.270035265 -0.049882137
N -0.972366968 2.737987408 -0.173426289
N -2.994988366 1.159974952 -0.180441179
C -2.376369398 -1.202281139 -0.040899078
N -0.003802582 -2.133593750 0.103718809
H 4.124225486 -3.079244564 0.322494538
H -1.534126382 4.559783018 -0.285246278
H -3.917175962 -2.551114470 -0.039004098

