17

C 2.565828161 -0.144471641 -1.665113447
N 2.665681365 1.268238061 1.496765873
C 0.479581197 0.867295115 2.936750294
C -0.272512926 0.120123181 0.338043903
C -1.961063513 1.989363560 -0.997662558
C -1.097590425 -2.619899273 0.174617327
H 3.567933050 -1.899001014 -1.332603909
H 1.273976593 -0.416493767 -3.266775126
H 3.844466292 1.351138759 -2.220452234
H -0.474587973 2.571523267 3.624591159
H 0.463830159 -0.654127829 4.350425590
H -3.829294267 1.987037987 -0.119472152
H -2.196202815 1.507263755 -2.992582555
H -1.170403444 3.885823742 -0.864628919
H -2.914676895 -2.812250035 1.135900238
H -1.326737444 -3.229033440 -1.785376620
H 0.251950608 -3.867107422 1.103193066

