12

O 1.612392753 4.266562058 0.542685464
C 1.255130789 2.162473717 0.276758857
C -2.515767634 0.822976634 -0.022911833
C -2.344064341 -1.718520453 -0.315751428
O 1.711653245 -2.752593706 -0.287105013
C 3.121375800 -0.887860173 -0.019762359
H -2.851914120 2.031746753 -1.643064085
H -2.981642477 1.622731331 1.805478241
H -2.499319004 -2.984296541 1.277079334
H -2.369689065 -2.582639410 -2.163879673
H 4.194699043 -0.143433066 -1.652390583
H 4.078693329 -0.553491295 1.808630304

