15

C 3.443367519 1.059264247 -1.068030611
N 1.503746786 0.631882256 0.351021579
C 0.236234587 0.577629901 2.505865243
H 0.284938914 1.983791343 3.983385710
C -1.228781676 0.234780122 0.143318984
C -2.652591157 2.386728801 -1.095985008
H -4.584468756 2.420617203 -0.369979084
H -2.762409340 2.165381249 -3.146147785
H -1.769117548 4.199500043 -0.671933905
C -2.121119101 -2.375416957 -0.593486574
H -4.048641506 -2.659742901 0.088381565
H -2.137719948 -2.624552496 -2.644911896
H -0.918252071 -3.811757854 0.258167882
H 5.176387066 1.734114057 -0.224746507
H 3.302759612 0.651246771 -3.061633280

