17

C 3.730740004 0.273588955 -0.844422834
N 1.586744540 1.055078466 0.184965203
C 0.525918491 0.644314538 2.447702439
C -1.064398614 0.284185178 0.148511271
C -2.872375659 2.284975231 -0.799318983
C -1.720093442 -2.376608051 -0.669264025
H 5.469177055 1.004204639 -0.049953833
H 3.636396372 -2.253946477 1.568109554
H 3.712040219 -0.208764980 -2.835261495
H 0.417713113 1.853267771 4.088480844
H 2.465013918 -1.858507698 2.684957044
H -4.752726078 1.960828620 -0.011586988
H -3.037151746 2.229887580 -2.858352701
H -2.251067668 4.166377453 -0.236829454
H -3.467552801 -2.970987767 0.253256919
H -2.033690884 -2.463486037 -2.709805204
H -0.241740248 -3.715248445 -0.168511263

