15

C -2.836188916 -0.740144364 -1.368014996
O -1.089798839 -2.818137004 -1.364681198
C 0.172710253 -1.855799853 0.843090048
C 2.895357412 -1.101689619 0.293340731
C 3.006491506 1.523715559 -0.694775932
C 0.493210563 2.622677850 -0.102887651
C -1.393411876 0.596382523 0.756163761
H -2.890948492 0.223815194 -3.196290194
H -4.743599759 -1.356933188 -0.862799740
H -0.071444838 -3.121643083 2.457692533
H 4.039321376 -0.977815237 2.032771306
H 3.912023718 -2.444212909 -0.901924800
H 0.972663428 3.956326419 1.425651057
H -0.167317183 3.857570031 -1.624238974
H -2.497181554 1.113115716 2.412467948

