15

C -2.589532262 -0.965574744 -1.391550779
O -1.209831842 -3.181356803 -0.610753947
C 0.078006723 -1.766174092 1.310738172
C 2.762982853 -1.061296648 0.586863292
C 3.133045104 1.464221387 -0.113656860
C 0.524612917 2.658886930 0.007809803
C -1.431321445 0.641762160 0.732643379
H -2.088215398 -0.385596650 -3.313923793
H -4.626063934 -1.279829490 -1.284220439
H -0.047484849 -2.672466087 3.162781079
H 4.319542287 -2.382155399 0.831597848
H 3.100712797 -0.513780307 -1.691881928
H 0.682462628 4.114134462 1.469384138
H 0.063754994 3.675706814 -1.729065899
H -2.782115971 1.246641534 2.158897051

