15

O -0.962669498 4.565142093 0.962703286
C -0.782128522 2.231065068 0.773280843
C -2.387095710 0.612765919 -1.156251757
C -1.693723618 -1.624717830 0.328700039
C 1.001405633 -1.913584881 0.571018543
C 2.677529929 -0.539198220 -1.412599304
C 1.835101909 0.843924513 0.823219181
H -1.762347793 0.657145457 -3.120438420
H -4.367384181 1.132337859 -1.017587037
H -1.675459490 0.919047419 2.602166026
H -3.020702587 -3.027974102 1.018495107
H 1.798874102 -3.388813734 1.734090908
H 1.828122300 -0.227322318 -3.242381540
H 4.635996296 -1.129651953 -1.488864153
H 3.184999175 1.342412816 2.278688850

