14

C -3.488652708 1.099915034 0.047371579
C -1.099653609 0.287263599 1.365249363
C -0.221072823 -2.251458709 0.590388859
N 0.995578115 -0.041120100 -0.587997260
C 3.583534081 0.671531488 0.002430490
H -5.102416117 0.553617567 1.212027666
H -3.577949297 3.150439863 -0.174040639
H -3.784583196 0.234885550 -1.842349746
H 0.535065464 0.148254268 -2.441723762
H -1.239675550 -3.397361948 -0.798544120
H 1.012740286 -3.352512454 1.808292440
H 3.857421366 2.663655805 -0.444751144
H 3.858238408 0.407746508 2.021023067
H 4.920977182 -0.484174384 -1.063875292

