14

C -3.712567472 0.913756318 -0.570498245
C -1.322120181 0.981669258 0.976742893
C -0.165951572 -1.573490435 1.142533045
N 1.175721946 -0.456754798 -1.007008010
C 3.805762528 0.108815268 -0.310588885
H -5.209813014 0.525796301 0.808416219
H -4.144619562 2.727273927 -1.445725391
H -3.786047544 -0.586067415 -1.997547208
H 0.423389756 1.648421761 -0.723099752
H -1.319823011 -3.184310426 0.585521303
H 1.020374137 -1.986423543 2.771885976
H 3.943562548 1.108821748 1.497144026
H 4.813579908 -1.683399023 -0.164692013
H 4.673835851 1.244838886 -1.793382973

