17

C 4.333853448 0.243046937 0.956165590
O 1.881355072 -0.686966620 1.418800384
C 0.722033096 -1.547730237 -0.780498274
C -2.073825908 -1.973106529 -0.563976327
C -3.180343853 0.358670189 0.717577689
C -1.725403326 2.234017387 -0.975372502
C -0.347346024 0.306351911 -2.689121226
H 5.103168739 0.859196032 2.762241646
H 4.306482919 1.847504352 -0.353949577
H 5.557507522 -1.230016215 0.164163230
H 1.755676531 -3.117731690 -1.634740522
H -2.812904882 -3.885998844 -0.424211276
H -5.216278579 0.499463345 0.445332367
H -2.771180882 0.452110456 2.734441979
H -2.949434722 3.485984982 -2.054739070
H -0.357129967 3.390477203 0.049227857
H -2.466791338 -1.471410945 -2.779814285

