13

N -3.786419896 1.701299586 -0.153458706
C -1.382823759 0.844364044 0.054018445
C -0.677077268 -1.619060633 -1.230111495
N 2.015516368 -1.658499633 -0.789911492
C 2.527793719 0.346338270 0.722643326
O 4.876531371 0.507546705 1.571945131
C 0.583805129 2.046707866 1.245294537
H -5.204753404 0.549817006 -0.657119832
H -4.224818858 3.242960344 0.864190333
H -1.612282525 -3.244310327 -0.356607326
H 3.037655981 -3.257938521 -0.733108063
H 4.901391134 2.027439160 2.583544476
H -1.129683739 -1.599463493 -3.245661443

