11

O 3.379490770 1.072715204 0.496238395
C 1.539331330 -0.283117596 -0.505544616
C -1.123121306 0.481849907 0.420730174
O -1.335975880 3.048749581 -0.130312906
C -3.107033534 -0.955645103 -0.872505865
N -4.562882094 -2.210549502 -1.870934593
H 2.932246888 -1.604381089 0.927572333
H 1.611232990 -0.763872181 -2.530309209
H 1.638264993 -2.728040400 0.369096696
H -1.259528011 0.108726319 2.456822409
H 0.263305368 3.785682979 0.375022669

