16

C 3.498937580 1.012914935 -0.077599714
N 1.487342999 -0.287692321 -0.777855852
C 0.162415063 -1.850459127 0.955666910
C -2.297128873 -0.467997988 1.590095912
C -2.288529863 1.905081888 -0.053326276
C -0.968185023 0.224179590 -2.067789178
C -2.088532399 -2.116101368 -0.735844216
H 4.588208562 1.934818845 -1.552764184
H 4.281929349 -1.923202358 1.793691736
H 3.745096310 1.687603645 1.839154105
H 2.757694058 -2.597738209 2.102936818
H -3.405336441 -0.811018258 3.270539385
H -1.203174829 3.558931472 0.562260759
H -4.191381345 2.475328894 -0.606331213
H -0.905223959 0.697529036 -4.067090165
H -3.125158956 -3.744721936 -1.386462880

