14

N 3.410035963 -3.292408241 0.018687710
C 1.577403435 -2.026985323 -0.046767849
O 1.852565208 0.692292114 -3.117530396
C 0.556952575 2.650303020 -1.867069329
C -1.678128124 1.323874584 -0.628192396
C -2.410061948 -0.940587368 -2.053093817
C -0.881262629 -1.213587333 0.477322388
H 5.133569349 -3.220566995 -0.762403712
H -0.113689193 4.066153787 -3.222136148
H 1.812122254 3.566438938 -0.506638125
H -2.940883333 2.425125201 0.557531492
H 0.234263338 -0.400991248 -3.637868280
H -4.337460255 -1.602508106 -1.814257304
H -1.626673017 -1.807155845 2.290365222

