14

O 4.916770595 -2.810007951 1.760600742
C 4.060806504 -0.382007210 1.872302226
C 2.286122087 0.607042524 0.474687864
C 0.499899683 1.626611393 -0.886970679
C -2.225099524 1.625011739 -0.190726751
C -3.633156153 -0.799072959 -0.083558209
N -3.044515857 0.593434361 2.214769903
H 4.029955062 -3.686669985 0.440557672
H 5.054321303 0.704709164 3.295130505
H 0.979678072 2.552051812 -2.659316919
H -3.247200965 3.302466213 -0.780116077
H -2.567703620 -2.499931559 -0.501928587
H -5.616503921 -0.856901451 -0.591975209
H -1.543800627 -0.194336184 3.114265384

