10

N 3.550679737 -1.043262708 0.217635166
C 1.065888474 -0.334231324 0.141860209
N -0.792132449 -1.957060506 0.153472142
N -2.934391444 -0.578889366 0.368196203
N -2.203884306 1.934271127 0.136931312
C 0.242008948 2.305112909 0.147377019
H 4.775172641 0.286628896 -0.359920469
H 3.945935382 -2.821397122 -0.320093036
H -4.341087017 -1.132908594 -0.805426559
H -3.552299081 3.268198014 0.301626330

