10

N 3.446928462 -0.798312288 0.360870434
C 0.937363703 -0.238037953 0.038911804
N -0.843023227 -1.964649287 0.062618551
N -2.996888750 -0.675524177 -0.043873601
N -2.649264010 1.800111343 -0.474430880
C -0.075382857 2.266331553 -0.371330843
H 4.637058587 0.506168944 -0.337150649
H 3.949095344 -2.597798302 0.012770278
H -4.652309716 -1.532998480 -0.407323455
H -1.997688578 3.161173734 1.140596699

