17

O 5.352865829 -1.143167350 -1.572642610
C 3.460255605 -2.125470233 -0.079430820
C 0.915708821 -0.217821908 -0.977062370
C -0.640505776 -1.567090330 0.740144931
C -4.156472831 1.114210434 0.573068745
C -2.884765875 3.293652266 0.240470843
O 1.593934097 2.064836916 -0.516300522
H 5.182685353 0.678567109 -1.438712428
H 3.782311783 -1.806944725 1.932246002
H 3.224597743 -4.116259081 -0.532908474
H 0.663468121 -0.814101177 -2.964701782
H -0.477431123 -1.140197041 2.734418981
H -1.456800093 -3.375626223 0.218012128
H -4.702887764 0.486845890 2.445365528
H -5.052399810 0.170380504 -1.008226335
H -2.174144646 4.376615777 1.820686341
H -2.617036375 4.116774939 -1.608946044

