14

C -1.501823517 -1.575030619 2.347301914
C -0.578158042 -0.808192079 -0.246155687
C -3.165173359 2.360764436 -1.897488723
O -1.132077908 1.852343298 -0.643447947
C 2.248905897 -1.277881315 -0.535703965
O 3.042229629 -3.423153497 -0.448610910
N 3.725727354 0.776874290 -0.854587293
H -0.616168636 -0.420644910 3.808936758
H -3.546946999 -1.347342847 2.452422144
H -1.019222633 -3.547927653 2.676975824
H -1.560996341 -1.849422594 -1.729219156
H -3.184053877 4.465100880 -1.915383333
H 2.992774627 2.522717877 -0.913035104
H 5.595088940 0.517614883 -1.054334708

