14

C -2.063076674 -2.124866712 1.893735934
C -0.675305423 -0.803354134 -0.178544593
C -1.466797972 2.634443852 0.069293120
O -2.651289249 1.351469196 -1.641214686
C 2.137811430 -0.248780857 0.360072630
O 3.102516522 -0.869302722 2.329174962
N 3.409619562 0.814240733 -1.589923002
H -1.723105419 -1.223358011 3.704452818
H -4.076420650 -2.137504916 1.475352574
H -1.396960838 -4.077393443 1.976562479
H -0.709310156 -1.851294216 -1.969319140
H -0.374584064 4.224092769 -0.834241273
H 2.541935806 1.323786523 -3.197386046
H 5.245070352 1.233642089 -1.350347833

