11

O -2.252438192 1.168315429 -1.467344047
C -1.864273347 -0.429785175 0.634876527
C 0.879983738 -0.981076319 0.972465819
C 2.841099633 0.319796330 -0.159451424
O 5.160558398 0.309780819 -0.056885707
H -4.021052317 1.501013769 -1.652219827
H -2.881203401 -2.221408719 0.395868710
H -2.591477168 0.456123648 2.367971738
H 1.606479195 0.016368675 -2.180219889
H 1.339848231 -2.397701099 2.384678845
H 1.876521210 1.929435280 -1.481230737

