10

O 5.738455318 -0.623825655 0.108999233
C 3.479154699 -0.359343441 -0.174349968
N 2.119090197 1.857485791 -0.359561308
H 2.955691019 3.553660723 -0.268264557
C -0.440664744 1.374741098 -0.673212570
H -1.820339369 2.855333391 -0.860577554
C -0.732877819 -1.141231609 -0.692984113
H -2.415542797 -2.263679492 -0.891573031
N 1.647542226 -2.202926630 -0.391131016
H 2.071650134 -4.046931304 -0.317791066

