14

C -3.415837951 0.089287896 0.770253332
C -0.829753513 -0.718703342 -0.125622738
C 0.594495140 1.175429662 -1.796071846
C 3.317846600 0.956797495 -1.241440705
C 3.295531259 -0.605853943 1.040090500
O 0.815644762 -1.009350382 1.974729143
H -4.223360368 -1.322357947 2.035318694
H -3.294621242 1.880114411 1.787643535
H -4.691046777 0.325886521 -0.834072842
H 0.299740024 3.114767673 -1.056093173
H 0.089962094 1.249059287 -3.791168513
H -0.971104309 -2.533561862 -1.136239236
H 4.552519213 -0.012598634 2.561566980
H 4.119700197 -2.376282999 0.249077374

