17

C 4.279363478 -1.884493945 -1.697649202
C 3.392676126 -3.205090894 0.681517973
O 1.679443222 -1.747886249 2.135409928
C -3.854384425 1.340076170 0.657736506
C -4.855731024 3.946488656 0.228690801
C -1.420843386 0.769522443 0.617935454
O -0.645406119 -1.688107881 0.755601265
H 5.173856250 -0.082948659 -1.242743275
H 5.654067443 -3.060694880 -2.688934785
H 2.700801056 -1.537639326 -2.975715219
H 2.530693957 -5.036414182 0.256036082
H 4.952554751 -3.520128459 1.996609280
H -5.198040700 -0.177288360 0.975124551
H -6.022441999 4.029462448 -1.473964230
H -6.042710994 4.549390167 1.806987641
H -3.328653925 5.315352857 0.013871554
H 0.090075950 2.135844792 0.373758877

