17

C 4.687841084 -1.235629457 0.336547108
C 2.128395303 -0.090793214 -0.069391424
O -3.561007808 2.151577631 -2.742462657
C -3.247588359 2.218068968 -0.100974775
C -2.712592474 -0.377479124 1.025435372
C -0.204380551 -1.521277775 0.296385137
O 0.731971695 -1.007809480 -2.187821596
H 6.046502729 -0.470856539 -1.013469513
H 4.615821732 -3.281266340 0.097303642
H 5.366086316 -0.814017632 2.239299342
H 2.035902147 1.952604531 0.138859003
H -5.013011682 2.941655967 0.683043265
H -1.760882613 3.564291642 0.439706785
H -2.790810185 -0.267467055 3.090648532
H -4.219181068 -1.663888754 0.435833753
H 0.022300375 -3.494871230 0.835782855
H -2.097585775 1.308021331 -3.425023759

