11

N -3.476302781 -0.190553047 1.142584540
C -1.244654600 0.773390259 0.355984661
N 1.477370140 -3.279825613 -2.033312410
N 2.627846138 -1.719267839 -0.847586330
C 1.486057815 0.425993723 0.604309697
C 0.140991276 2.483606272 -0.727122015
H -5.018841562 0.451374766 0.233935414
H -3.475748071 -2.074418791 1.400250492
H 4.594559686 -1.740290381 -0.701955134
H 2.547813364 0.707949837 2.355507048
H 0.357831093 4.202346764 -1.781908084

