11

N -3.304742578 -0.468588320 0.475452712
C -1.676951032 1.254718904 -0.118540876
N 0.616747685 -3.204309946 -1.293091021
N 2.118967251 -1.791475427 -0.278976356
C 1.927661658 0.848539980 0.305986608
C 0.235323739 2.532638958 -0.956899900
H -4.728351993 -0.152543908 1.693754363
H -2.732195076 -2.260464029 -0.036617318
H 3.841226980 -2.469270639 0.384142809
H 3.233780017 1.417820391 1.782066122
H 0.472303370 4.303459811 -1.957913982

