12

C 2.964262949 1.421451972 -0.350717654
N 1.997978500 -0.630529553 -1.103940132
C 0.177967131 -1.867947031 0.142831567
N 0.300903850 -4.271486684 0.580590875
H -1.331869675 -4.931265323 1.385743764
H 1.786937288 -5.356750105 0.109152905
C -2.302770537 -0.650819844 1.114997052
O -3.844801624 -2.250606707 1.895273869
N -2.182744147 1.786919562 1.013822816
H -3.753817585 2.533141795 1.829167564
H 2.646336125 2.173333765 1.535692190
H 4.184353113 2.453365382 -1.641034727

