12

O 4.830463722 0.772715740 -0.624578654
C 2.949829939 0.930466732 1.146574205
C 0.564693516 0.307473596 0.755342939
C -1.033350905 -0.690883248 -1.376426375
C -3.156584875 -0.504948502 0.598795835
O -1.411100185 0.433930648 2.474594036
H 3.603503100 1.630192310 2.951293835
H 4.143051524 0.157813807 -2.186208885
H -0.584632130 -2.599192958 -2.009585670
H -1.233355455 0.553867332 -3.005661595
H -3.996011367 -2.293355411 1.189195428
H -4.635896651 0.874414790 0.198158741

