12

N 4.820206667 -2.096910311 1.724743491
C 3.519400555 -0.937578527 0.424999538
C 1.906066133 0.579727270 -1.170698770
C -1.661097817 -2.208521372 -0.445714564
N -2.810253880 -0.261402621 0.548255677
C -2.789020237 1.933710388 1.050643071
N 1.067563546 2.793545545 -0.495873055
H 1.840655228 0.052331902 -3.148402512
H -2.118275725 -2.654367121 -2.388897299
H -1.093665483 -3.718391230 0.812741367
H -4.205266448 3.228358563 1.745088282
H 1.616480590 3.226545068 1.293055948

