14

C 1.101740339 1.141146931 1.321861497
H 3.021671128 1.053440470 0.580609187
H 1.236519821 1.202351796 3.379266100
C -0.414963505 3.436430561 0.373371200
H 0.398457182 4.292378022 -1.325661736
H -0.517519811 4.939594291 1.784115511
C -2.973302228 2.330998623 -0.189228217
H -4.587773585 3.486846036 -0.692467821
C -2.994934149 -0.170970949 -0.035698344
H -4.603863469 -1.379678064 -0.408381192
C -0.408361161 -1.220839043 0.526657449
O 0.609167994 -2.504930830 -1.605721340
H 0.341621042 -1.461346453 -3.066112857
H -0.425921233 -2.646243113 2.016743405

