17

C 5.004872234 -2.201171868 -1.128149394
C 0.882127330 0.571110573 1.480097581
C 0.047539651 2.914726538 -0.017141725
C -2.735292110 2.463250955 -0.390726747
C -3.435231606 0.156438955 0.301946506
C -1.204990156 -1.414473289 1.116756651
O -0.611342918 -3.279399290 -0.739308991
H 4.102400718 -1.945224395 -3.002379576
H 2.760296192 -0.144971984 0.910109223
H 4.409185055 -4.143015959 -0.631545734
H 1.054045787 1.034927674 3.482930995
H 1.016085933 3.085632462 -1.837106984
H 0.422433403 4.666906906 1.005061422
H -3.992845981 3.881863727 -1.165709402
H -5.327132257 -0.612904209 0.170284865
H -1.543317934 -2.488203617 2.844023229
H -0.975002796 -2.576237113 -2.372887955

