10

O 4.796578608 -2.231126692 0.413151390
C 2.663066986 -1.982360008 0.027670976
O 1.882686687 2.761755892 1.119662275
C -0.320833846 2.585067727 0.612991212
C -1.543345146 0.192556913 -0.275479078
C 0.231489901 -1.993690201 -0.490102285
H -1.594777444 4.236538316 0.784744829
H -3.101635853 -0.207608827 1.033981091
H -2.459764939 0.619812462 -2.086575796
H -0.466214389 -3.806196919 -1.132381776

