10

O 4.405072614 -1.922722632 0.728902156
C 2.402933731 -1.198726262 0.225147923
O 2.170694668 2.206375645 -0.036434033
C -0.147809823 1.882868101 0.620609284
C -1.715432168 0.447211568 -1.122255735
C -0.181897724 -1.618682933 0.156464315
H -0.872493317 2.599509770 2.415198054
H -3.699082632 0.304732076 -0.617583190
H -1.397175851 0.743843578 -3.130431216
H -0.950192449 -3.414133588 0.756920483

