13

N -3.277565840 -0.260250965 0.315873637
C -1.224126222 1.026296407 -1.042601115
C 1.128924409 0.751158103 0.519206278
N 1.465670392 -2.011141255 1.021827337
C 3.384920067 1.882833141 -0.290475226
N 5.286372150 2.807337371 -0.870259812
H -3.754034828 0.751377085 1.868857047
H -4.833920674 -0.458397990 -0.773887918
H -1.563900604 3.036611851 -1.383987717
H -1.114620543 0.113040507 -2.919228659
H 2.519547332 -2.319837749 2.592856404
H -0.369827075 -2.603510113 1.327927026
H 2.216246043 -3.048688335 -0.436329485

