11

C -2.844877309 -0.397824180 -0.177407262
C -0.337518371 0.438753494 0.916207709
C 0.839840796 2.679238468 -0.303449009
N 3.155450019 1.867423728 -1.146145974
C 3.369247661 -0.530826034 -0.541329207
O 1.536427161 -1.633639454 0.639844636
H -3.505446440 -2.120128979 0.736400419
H -4.225756710 1.097974966 0.119110099
H -2.675751583 -0.729698373 -2.204394796
H -0.464126657 0.786226601 2.952081643
H 5.005919747 -1.693353156 -0.967211644

