11

C -3.060127187 -0.522709471 -0.127393430
C -0.354773044 0.226110587 0.116587258
C 0.838920027 2.628725522 -0.073714852
N 3.459363163 1.973893392 -0.275743639
C 3.590435568 -0.435097762 -0.378511538
O 1.412195734 -1.709002866 -0.141107437
H -3.536612521 -2.073792006 1.140163612
H -4.245155826 1.105114993 0.291160006
H -3.430259339 -1.117205386 -2.064767374
H -0.045175717 1.414973726 2.102902727
H 5.271052556 -1.579750380 -0.599817667

