17

C 3.632107733 0.475544382 1.183185268
C 1.577866342 -0.580084277 -0.530852981
C -0.346012746 -2.297881853 0.854759447
C -2.815308311 -0.890870129 0.410415973
C -2.751830086 0.431741325 -2.092133669
C -2.341033220 1.894376004 0.217361326
C -0.176084964 1.467316022 -1.560254964
H 4.878224131 1.762063786 0.155284899
H 2.793421957 1.522749985 2.754581528
H 4.798015556 -1.031801122 1.976027158
H 0.088797286 -2.457584157 2.868191635
H -0.402699182 -4.203293423 0.064391284
H -4.595680804 -1.570900433 1.159196480
H -4.062530067 0.613806176 -3.634937560
H 2.454556608 -1.599485980 -2.101264524
H -3.234555201 3.545351427 0.995920684
H 0.549780214 3.026377529 -2.674197321

