17

C 3.909713187 -0.127278062 0.325100243
C 1.085565569 0.010256545 0.036313601
C -0.714163974 -1.567447280 1.655165986
C -2.901122740 -0.801069795 -0.099966588
C -1.674039852 -1.751889520 -2.556647758
C -2.685322385 2.086777448 0.032988023
C -0.225468005 2.559384989 -0.016944399
H 4.878321962 0.978023598 -1.120644423
H 4.427671452 0.644512864 2.171758810
H 4.581230163 -2.072978215 0.237190203
H -0.839865816 -0.908739455 3.605537825
H -0.314015110 -3.585882254 1.566117820
H -4.772140462 -1.597816861 0.228735134
H -1.955970115 -0.329111187 -4.051635607
H 0.699600668 -1.290078817 -1.972095375
H -4.234682756 3.418801344 0.038137035
H 0.753814094 4.350712583 -0.075469010

