13

O 4.263836392 -2.284728377 -0.069722617
C 2.713049675 -0.875131998 -0.908221311
N 0.123873607 -0.823794508 0.064901831
C -0.856141649 1.675724845 0.533035142
C -1.473071806 2.471644702 2.806154912
C -1.350487484 -2.210805068 -1.967876656
H 2.929481198 0.412074378 -2.519010971
H 0.082526740 -1.867831436 1.679097270
H -1.060922312 2.784614151 -1.172582827
H -1.284552898 1.289731560 4.467871256
H -2.229852468 4.351363612 3.063623162
H -1.343661150 -0.991459022 -3.635631449
H -0.324646029 -3.964442812 -2.321491354

