15

C -3.652057213 -0.045333547 -0.667246421
C -1.452788129 1.432256935 0.503035249
C 0.792055688 -0.227498081 0.845572694
C 3.340855678 0.407341729 0.061498245
O 4.940515306 -1.440567534 -0.087179642
H -3.160011458 -0.724016307 -2.548464507
H -4.148814584 -1.678110738 0.490262477
H -5.314018540 1.162589067 -0.816802049
H -0.960290068 3.038380370 -0.696131641
H -2.057064037 2.169532959 2.338333066
H 1.237454385 -3.059827401 -1.358508634
H 0.682175862 -1.688228955 2.285750681
H 3.411713605 1.952902390 -1.340184924
H 3.328607759 1.426517458 2.024630536
H 2.833353060 -3.059306838 -1.197355587

