12

O 3.598625509 -0.972519072 2.164577284
C 1.575760488 -0.140596871 0.844605268
C -0.478491335 -1.851325454 -0.106169047
C -2.226262140 -0.039407328 -1.414676510
C -1.279311176 2.297384042 -1.212340510
C 1.100479193 2.261006437 0.198742383
H -1.409113534 -2.848723715 1.452311653
H 0.269484696 -3.286763572 -1.398083657
H -3.952679531 -0.596939349 -2.349191149
H 3.493839307 -2.767679975 2.379547293
H -2.127501254 3.994384275 -1.975182885
H 2.265793207 3.876770707 0.639658630

