12

O 2.230979803 -0.816069024 2.680549182
C 2.065288031 -0.475852011 0.267758375
C 0.116443544 -2.216277224 -0.753533583
C -1.960535296 -0.292538089 0.076866254
C -0.894851763 2.081124484 -0.670858651
C 1.714671591 2.020689002 -0.680752577
H 0.107524547 -4.018652591 0.227203605
H 0.075940950 -2.452580408 -2.803710665
H -3.938370374 -0.675897719 -0.331192418
H -0.072581432 -0.603760750 2.730303895
H -1.987646687 3.805945472 -0.843640374
H 2.953105628 3.606144276 -0.353279405

