10

C 3.085652285 -0.647738570 0.702428151
C 2.863557422 0.497885159 -1.512013714
C 0.316953162 -0.015154186 -0.527409107
C -2.146208012 1.195894640 -0.219558926
N -1.797357313 -1.279256922 -1.505504968
H 4.192257630 -1.962648256 1.809404412
H 0.906813691 -0.847156965 1.779431579
H -2.477099321 2.865709423 -1.361546558
H -3.203530112 1.090598306 1.529871909
H -1.838709925 -1.186767508 -3.419845966

