15

O 4.132728951 0.355792740 -1.404754352
C 2.730285451 0.892546977 0.760685876
C 1.194668434 3.081843391 0.684622679
C -2.400954508 0.238429145 -0.668286186
O -4.585633092 -0.137971493 0.746608833
C -0.842165254 -1.962297844 -1.354438391
C -0.004894693 -0.362694266 0.867306982
H 4.973058733 -1.234807162 -1.169477440
H 3.712523989 0.270594419 2.472584218
H 0.616056083 3.533808432 2.626364007
H -2.405394741 1.871353206 -1.890491199
H -5.992732424 -0.220777308 -0.393319734
H -1.555732509 -3.816741875 -0.871340036
H 0.322325256 -1.824683433 -3.030185743
H -0.468391505 -1.081258184 2.722526047

