15

O 4.218224205 0.266252868 -1.095272298
C 2.328450705 0.783160785 0.724326487
C 0.802255315 3.076890494 -0.043685744
C -2.068260249 0.158769176 -0.135112905
O -4.340003297 0.105756085 1.104337825
C -0.933547685 -1.978293468 -1.589139673
C 0.216630984 -1.155043221 0.870349782
H 5.179614510 -1.165137533 -0.533393529
H 3.202542636 1.050434729 2.583819677
H -0.002762610 3.858129352 1.707621287
H -1.501799744 2.064894836 -1.122433748
H -5.678783682 0.319359709 -0.102066281
H -1.996897010 -3.722509415 -1.507740325
H 0.062032339 -1.595244679 -3.334743265
H 0.023499462 -2.388319818 2.490109991

