16

C 3.590442598 0.820884821 0.294833275
N 2.128249661 -0.723772646 -1.436104625
C -0.320694970 -2.124888878 0.788720359
C -2.240205787 -0.083553560 1.361220637
C -1.704830747 1.952895965 -0.557635389
C -0.200740901 0.055686563 -2.142892582
C -2.732925361 -2.419369360 -0.200563890
H 2.590155891 1.375314970 2.028563868
H 4.251675249 2.545869063 -0.632586425
H 5.255778145 -0.259423133 0.849742791
H 1.034729045 -3.123384957 1.952147067
H -2.843800846 0.259490464 3.294993745
H -0.556153031 3.559195977 0.048830863
H -3.390647260 2.619616078 -1.532945549
H -0.824736839 -0.466208172 -4.025814578
H -4.031224713 -3.982978833 -0.082425337

