16

C -2.880803346 -2.433996067 -0.137829991
C -0.955143418 -0.401545674 0.119428291
C -1.085542344 2.386952960 -0.532968019
C 1.568777969 2.640203038 0.698508292
C 1.176621115 -0.041200999 1.685128463
N 2.695018872 -2.051711785 1.951728965
O 4.457340285 -1.731359573 0.274754330
H -3.581033897 -2.543119738 -2.072566273
H -4.482634722 -1.995106777 1.090391684
H -2.114764066 -4.261774569 0.415009595
H 1.126532375 -1.092094648 -1.960495877
H -1.223543223 2.847911851 -2.533378899
H -2.581323575 3.362864922 0.498808820
H 1.741695959 4.059864325 2.179599227
H 3.098639617 2.858171400 -0.661913935
H 3.043225647 -1.421675508 -1.608064354

