15

C 2.197637495 2.362511620 -0.781942082
C 0.035495160 0.911645872 0.398908391
O -0.728955957 1.956438597 2.717774217
C -2.220149726 0.300772023 -1.373703298
N -1.351320021 -2.336260962 -1.365750915
C 0.396444737 -1.950112550 0.522372249
N 1.752223094 -3.253086952 1.983468842
H 3.847759272 2.282636998 0.451989192
H 1.658285168 4.335773504 -1.041004239
H 2.717643731 1.559602460 -2.609553022
H 0.259257045 1.157585261 4.018373233
H -2.203345601 1.187951100 -3.234670777
H -4.030733195 0.601781999 -0.435467865
H 1.504686962 -5.143665702 1.750167224
H -2.394316259 -3.898277132 -1.665347301

