15

C 1.164109994 2.697775453 -0.381454409
C 1.175263441 -0.078628745 0.423265714
O 1.066039407 -0.299782278 3.067877275
C -1.048540392 -1.565690459 -0.752915095
N -3.378466425 -0.788637684 0.479216007
C 3.550746841 -1.268241104 -0.436033724
N 5.360901436 -2.182563225 -1.198890536
H 2.727193349 3.685854738 0.521392861
H -0.596079940 3.576186372 0.237899039
H 1.341874452 2.890208683 -2.427092028
H -0.723941171 -0.255865894 3.453828854
H -0.737331355 -3.565938689 -0.367161975
H -1.045886744 -1.308773140 -2.805924517
H -4.635579933 -2.215872936 0.585836982
H -4.220302961 0.679968908 -0.399844448

