13

C -2.196856074 -1.457946873 0.238117567
C -0.168472183 0.558260227 0.462123434
O 1.829399963 0.086397711 -1.321190228
C 3.628963890 -1.523735912 -0.592869711
O 3.720690044 -2.597853501 1.392217342
C -0.626441999 4.823340248 -1.810407535
C -1.150215859 3.149796449 -0.110744244
H -2.965551913 -1.486747717 -1.672927068
H -3.729128918 -1.067141476 1.560602314
H -1.403972648 -3.302882067 0.693042808
H 0.645371197 0.535014631 2.358172734
H 5.029243201 -1.713143936 -2.111277105
H -2.664349864 3.945387173 1.062209499

