13

C -1.986633283 -1.852728065 0.157573396
C -0.056589568 0.245545306 0.513273445
O 1.885951812 0.065035567 -1.396536443
C 3.819691378 -1.466163421 -0.885044330
O 4.087697288 -2.696887263 0.991544041
C -1.181073820 2.758949705 0.295552391
C -2.162092918 4.790302488 0.161611192
H -2.840199028 -1.724415585 -1.712576735
H -3.471226485 -1.674522469 1.574149742
H -1.074357433 -3.685552646 0.376293434
H 0.850616090 0.060774065 2.357423571
H 5.153788133 -1.423587570 -2.473957954
H -3.025572166 6.603249871 0.040694269

