13

C -3.111644580 0.890930808 -0.611468074
N -0.702917458 -0.079211480 0.227933398
C 0.015212617 -2.474148816 0.222402189
C 3.522121081 0.222626764 -0.033944810
C 1.384554257 1.477262123 1.008650881
O 1.138577848 3.349285992 2.316300768
H -4.421925778 1.037358523 0.974130933
H -2.842370455 2.763413238 -1.417512819
H -3.907817168 -0.383670547 -2.023996570
H -0.886401947 -3.765954842 -1.104031084
H 1.043375260 -3.267385224 1.786499457
H 5.402182636 0.732267664 0.606181036
H 3.369138057 -0.471676869 -1.948254004

