11

N 5.215287758 -1.336849368 2.670484539
C 3.745376670 -1.491025735 1.084115998
C 1.843904405 -1.619634486 -0.945012729
C 0.041233314 0.542064122 -0.921282134
C -3.844042729 1.767697230 0.836329458
O -2.048700790 0.208237255 0.306923308
H 0.814163878 -3.397613905 -0.753101668
H 2.855944320 -1.698780865 -2.743023452
H 0.533757207 2.435143187 -1.521646536
H -5.429658403 0.961545961 1.820116551
H -3.697169832 3.717861766 0.241876572

