17

O 5.397630059 -1.151936114 0.700351323
C 2.791908022 -1.543690324 1.048941354
C 1.316445693 -0.801179683 -1.306881864
C -1.541109884 -1.223091521 -1.086231584
C -2.756458857 0.434434751 0.865791649
C -4.064548200 2.505235321 0.335122708
O 1.886848072 1.740743726 -1.951101009
H 5.569903974 0.472432759 -0.100384236
H 2.099973614 -0.463221932 2.684629706
H 2.520583923 -3.550292853 1.455259513
H 2.031790368 -1.927719219 -2.883902667
H -1.883492485 -3.213711503 -0.647305313
H -2.379900691 -0.844042130 -2.933590880
H 0.852832323 2.824874180 -0.915957320
H -2.489512498 -0.087904126 2.834429807
H -4.875962035 3.669206761 1.810586700
H -4.401376348 3.086398840 -1.603351245

