14

C 4.526167134 0.696729418 -0.824949546
N 2.497658086 -0.528010115 0.546428595
C 0.233323615 -0.903842815 -0.754021227
C -2.042081797 -0.528831503 0.186893914
C -4.759770164 -0.652917459 0.150683057
N -3.308087979 0.177489389 2.424174688
H 4.922320267 -0.365625023 -2.549386637
H 6.239307026 0.682219307 0.319894180
H 2.220896792 0.200990968 2.284862887
H 0.426229466 -1.656202671 -2.650780988
H 4.106936798 2.657339301 -1.365503096
H -5.736184566 -2.439787662 0.382350441
H -5.796376312 0.772840273 -0.899891719
H -3.397356449 2.081673979 2.641234356

