11

C -3.351357983 -0.617793214 -0.013059614
C -0.215114611 -0.377593604 -0.020466301
N -0.546526445 -2.664995810 0.012214358
N 4.601145363 -0.626071726 -0.024267164
N 3.742454983 1.569436330 -0.054431237
C 1.149868414 1.803291337 -0.053516496
H -3.794265680 0.413553542 1.707391950
H -3.797911151 0.367267157 -1.759478622
H -4.311746600 -2.432289436 0.011890327
H 6.526111440 -0.478173483 -0.029918144
H 0.297761500 3.648449745 -0.077983914

