8

O 0.812291140 2.574428531 0.608069950
C -1.445870786 1.415670034 0.139493006
C -1.010616007 -1.021084277 -0.323310295
N 1.596785751 -1.266139048 -0.110750291
C 2.757148891 0.918671269 0.460585688
H -3.134263203 2.545187816 0.202212298
H -2.266455424 -2.555050089 -0.770231714
H 2.568859887 -2.877768994 -0.345201619

