8

O 0.946884748 2.370031256 0.285298888
C -1.373817683 1.336116173 -0.006497615
C -1.179032973 -1.184423530 -0.028854965
N 1.351401960 -1.757101876 0.468312986
C 2.637232710 0.457108347 0.652747592
H -2.954817248 2.613837882 -0.119126653
H -2.604629133 -2.616107008 -0.263600618
H 3.165671717 -1.259540446 -0.991076428

