15

C 4.030796690 0.300568896 -0.245887082
C 1.214878602 0.045492605 -0.367570931
O -0.159883699 1.644179439 -1.988042452
C -2.269071107 1.500846321 -0.263576600
C -3.409732889 -1.150051641 -0.523961509
C -1.271620217 -2.329258242 1.050302561
C -0.570838830 0.353586221 1.829191696
H 4.535059807 2.185066356 0.417191095
H 4.791582664 -1.099952696 1.059890918
H 4.864286418 -0.000404231 -2.106205458
H -3.393542981 3.222042285 -0.260025918
H -5.044994238 -1.311893683 0.731868100
H -3.886586303 -1.880863385 -2.391675801
H 0.819893225 -2.126269002 -0.891648091
H -0.006165231 1.026286485 3.677652835

