9

C -2.504988315 0.015596590 0.121859140
C -1.074972350 -2.148860451 0.096569049
C 1.167067624 -2.869109721 0.059905584
C 2.799156614 -0.937241135 0.035980404
C 2.812074328 1.432864368 0.038866092
H -3.449344345 0.554070213 1.864426868
H -3.506594600 0.556835846 -1.587598337
H 0.082915853 1.436699567 0.081622317
H 3.919372617 3.126832951 0.024613758

