14

C -1.616945009 -1.907660627 -0.414001653
C -0.758167456 0.212209762 -2.201299576
C -1.395336354 2.029113287 -0.008459359
C -0.850031163 -0.178765710 1.790223862
O 1.821408859 -0.410353026 2.051934073
C 3.012255020 -0.033490482 -0.242363215
H -3.670364653 -2.037411490 -0.563845823
H -0.788400410 -3.787558248 -0.557823776
H 1.674759195 0.042575889 -2.251336084
H -3.417449529 2.421565486 -0.105634386
H -0.368345019 3.801540861 0.202917072
H -1.671611271 -0.326127404 3.675338299
H 4.275309562 -1.597367522 -0.710436641
H 3.956269765 1.799651800 -0.374270539

