10

O -4.091378002 -0.742005101 1.005652755
C -1.685624459 -1.266208760 0.875058734
C -0.337160116 1.204496125 0.584975682
O 2.328009076 0.969114485 0.681853286
C 3.421233573 -0.452223102 -1.112658346
O 5.637437664 -0.815025631 -1.171851522
H -5.021194347 -2.298306474 1.173830632
H 2.074996896 -1.214851843 -2.510443350
H -0.848331241 2.487652138 2.121027846
H -0.953008028 2.092475729 -1.188253627

