16

C 4.189165660 -0.065826588 1.245337056
O 2.350511311 -1.620676462 0.143433822
C -0.491301732 -0.685838435 -1.905597254
C -1.369366528 1.901760354 -1.102796829
C -3.341132391 0.579134671 0.632010436
C -2.173909923 -1.927195255 -0.228150792
H 3.388627917 1.691185772 2.010713213
H 5.635449238 0.425305825 -0.149271848
H 5.120211158 -1.064418173 2.798120402
H 0.391578314 -1.248157151 -3.662003616
H 0.032799145 3.106365856 -0.195143815
H -2.205893066 2.945068151 -2.673906001
H -5.279284562 0.906586357 0.008412097
H -3.220021412 1.016698544 2.643912079
H 0.176128711 -2.125561583 0.939705414
H -3.077876175 -3.747461019 -0.469513964

