19

C -1.900276182 -3.003449690 -1.194687067
C -1.554582535 -0.202416993 -0.837429657
C -1.777305278 0.985814089 1.716844984
C -1.490349780 3.542625044 2.043988191
O 2.292371525 3.229081213 -0.418995046
C 2.335976823 1.068765488 -1.312807554
C 3.757404021 -1.019960722 0.021242185
H -3.844305420 -3.577873311 -1.597034722
H -0.758592588 -3.617737368 -2.800645057
H -1.249286735 -4.049915276 0.460134894
H -2.159894864 1.001802041 -2.386466526
H -1.425177038 -0.281688831 3.290537601
H -3.741621576 0.483254408 0.758600563
H -1.062240642 4.313382744 3.884446793
H -1.931846438 4.852239358 0.543007435
H 2.036958485 0.797705573 -3.361109328
H 3.282039106 -1.029366531 2.029250141
H 3.393114505 -2.878417529 -0.793938403
H 5.781561407 -0.637332982 -0.129565141

