14

C -3.141804231 1.547956683 1.315523752
C -0.409283536 1.062746616 1.766808964
C -0.382712777 -4.625001870 -1.060236417
O 1.888375783 -3.952671254 -1.689008127
C 2.616580762 -1.433377486 -1.372388257
C 1.320624406 0.130291797 0.113324646
N 1.600356426 2.843350033 0.513988687
H -4.074105962 -0.289853223 1.397800160
H -3.539692246 2.350188244 -0.559762484
H -3.972451244 2.763554098 2.756353448
H -0.349459342 -6.693238932 -1.438826246
H 4.372339799 -0.988690346 -2.299836359
H 1.187270270 3.932380887 -1.012417823
H 2.989195108 3.519221901 1.631607715

