12

C -3.768702958 -0.475464598 -1.843132262
N -1.432741215 -1.269848013 -2.502238216
C -0.069273316 0.210543194 -0.923861988
N 1.965678186 -0.802269488 0.397724270
C 3.964068136 0.583126264 1.279387823
O 5.679155693 -0.272837146 2.495298121
H -2.449725693 1.332097576 -0.070828938
H -5.230572071 -0.288846414 -3.294266730
H -4.510409293 -1.003634509 -0.001734296
H 0.251763185 2.144791001 -1.528747806
H 1.935333928 -2.663566686 0.809079418
H 3.829852379 2.599820649 0.755102699

