13

O 4.383904772 2.530386045 -1.934987522
C 3.533893848 0.512968670 -1.263581587
N 1.152409320 0.148448494 -0.478909569
C -0.970712172 1.891517131 -0.349667779
C -2.655017376 -0.366783482 0.438047038
C -0.291923852 -2.082460161 0.251059867
H 4.664266259 -1.246815521 -1.230366702
H -0.729773471 3.373552514 1.064297023
H -1.424137159 2.764474244 -2.162833124
H -3.459993538 -0.224149656 2.323497865
H -4.144612759 -0.826601091 -0.900715299
H -0.381824889 -3.542210022 -1.205774298
H 0.323521018 -2.932327183 2.028503775

