13

C 3.904680129 -1.853086811 1.465809079
C 3.725316377 0.440212419 0.653327171
C 1.097140538 0.850097171 0.048142417
C -0.706074661 2.538791207 0.561561768
C -3.233635679 1.335887176 0.230992525
O -2.719995382 -1.135829789 -0.760472998
C -0.226370576 -1.497556100 -0.727366867
H 5.252013508 -3.180627142 2.232957345
H -0.449224863 4.439342382 1.259184742
H -4.275849533 1.166932225 2.009920246
H -4.444406867 2.278708200 -1.150407930
H 0.415671188 -2.773946685 -2.198710727
H 1.627506858 -2.822627712 1.248576198

