15

C 3.449591994 0.545661102 0.215048263
C 0.632689793 0.282635282 0.217607387
C -1.106383907 0.801329973 2.442185970
C -2.448200269 -1.295214563 2.094758688
O -3.145988916 1.209337169 -2.718642527
C -0.937232632 -0.084921212 -2.145774301
C -0.928724423 -2.121155554 -0.182244677
H 4.273425184 -0.385468716 1.863037315
H 4.276936768 -0.301634494 -1.474561156
H 4.015576457 2.531998265 0.266297163
H -1.344680790 2.451363595 3.628004854
H -2.715277416 2.901373677 -3.203156570
H -4.193138620 -2.007814354 2.885783814
H 0.209856581 -0.538586326 -3.800198003
H -0.202699129 -3.993945632 -0.563321651

