12

C 1.943549531 0.304532313 -1.275695072
H 1.000224252 1.218084654 -2.849622582
H 3.791669461 -0.452353059 -1.709012182
C 1.479164850 1.271889182 1.317111065
H 2.991415612 1.369730395 2.685215653
C -0.746255776 2.999428712 1.563489192
H -0.668107777 4.694644438 0.396951202
H -1.173584628 3.517189916 3.511323658
O -2.894479937 1.495333687 0.621117772
C -2.404669577 -0.860397804 0.127703780
C 0.340880156 -1.236255410 0.524819483
H 1.030746239 -3.057452790 1.135339670

