14

C 2.433998864 0.974204065 -1.328502580
C 1.237539328 0.689912552 1.212106392
C -1.378078581 1.765500291 1.452829192
O -2.773659258 0.742262936 -0.674838358
C -1.681563041 -1.297730525 -1.653367855
C 0.976658970 -1.388998666 -0.724272346
H 1.628322105 2.308231618 -2.659226628
H 4.466065925 0.779711336 -1.434502345
H 2.379039278 0.469425071 2.891208367
H -1.497300854 3.817515245 1.313226752
H -2.310053919 1.128314273 3.186710813
H -2.918393438 -3.332050689 -1.337775882
H -2.689657360 -3.763755239 0.338563597
H 1.949156707 -3.178830107 -0.600882528

