17

C -3.480706618 -0.000140577 0.743527748
C -0.840237771 -0.635322975 1.640133989
O -0.794832962 -3.269643825 2.142852029
C 3.479512197 -1.527303734 -0.359535078
C 1.665517660 -1.528024003 -2.506389245
C 1.179038188 0.095707296 -0.281816633
C 1.773599809 2.888623203 -0.488759577
H -3.665811547 2.017124430 0.360625148
H -3.909482735 -1.042736797 -0.983630548
H -4.859508378 -0.524146721 2.182165456
H -0.428482057 0.413410093 3.384746665
H 0.753641317 -3.667865925 3.004489134
H 2.270974440 -0.754631703 -4.306166579
H 0.675510722 -3.324776188 -2.654733180
H 0.259409470 3.880710824 -1.481138802
H 2.004410466 3.721415850 1.384972737
H 3.519805958 3.213649482 -1.538024018

