17

C -3.907792508 -0.257077151 0.608504851
C -1.222939606 -0.276483467 1.555145182
O -0.213658728 -2.785456213 2.000839942
C 1.967751764 -2.177417879 0.556878705
C 1.261711930 -1.703042311 -2.125663911
C 0.981063053 0.372040058 -0.190090234
C 2.193240631 2.916125162 -0.392794636
H -4.539539667 1.688246341 0.328186714
H -4.082863822 -1.272661929 -1.175654841
H -5.157954242 -1.148416877 1.985553532
H -1.070050029 0.809416319 3.313348693
H 3.790164105 -2.822014061 1.225816129
H 2.827482210 -1.427117201 -3.416893023
H -0.360576015 -2.669031566 -2.920347869
H 1.033155432 4.200171992 -1.520900019
H 2.460700146 3.765133681 1.470109358
H 4.040105348 2.787585122 -1.302038534

