17

C 4.208346002 1.015135816 -0.652936942
C 2.743686274 -0.819516130 0.987075122
O 0.761957812 0.353019435 2.449537344
C -0.897054787 -1.537721832 1.407022382
C -3.418574785 -0.572752839 0.444734420
C -3.147958974 1.397483158 -1.634650590
C 1.023598086 -2.633066733 -0.337385296
H 2.951543637 1.978739954 -1.970585521
H 5.114024686 2.430357286 0.538966180
H 5.645829692 -0.000701844 -1.722340666
H 4.037650159 -1.901915047 2.205317020
H -1.213094284 -3.071401671 2.796690200
H -4.456967385 0.210811478 2.049225699
H -4.477515549 -2.210077184 -0.235121104
H -4.994408878 2.078608597 -2.246912935
H -2.060288288 3.017724473 -0.971022654
H -2.192053543 0.599055408 -3.282075955

