17

C 3.847164103 1.374367953 -0.648546523
C 2.314288096 -0.778964743 0.401196510
O 0.845629235 -0.205497228 2.634954702
C -1.178536693 -1.764655981 1.648170371
C -3.472474347 -0.234560441 0.958000382
C -2.379733394 1.022152823 -1.387528648
C 0.125896446 -2.044002345 -0.936321028
H 2.671385995 2.996721207 -1.124707731
H 5.250684180 1.980339154 0.733912066
H 4.830809977 0.748825784 -2.349903746
H 3.598405488 -2.359973208 0.844585804
H -1.453447719 -3.455537771 2.800044483
H -4.117681346 1.075158091 2.414593379
H -5.025382169 -1.497825556 0.460253815
H -3.651127109 1.327957564 -2.980450532
H -1.240530330 2.683442995 -1.023531567
H -1.107869817 -0.755777936 -2.513220529

