9

N -3.383364557 1.658434040 -0.087717817
C 3.942158727 0.235344394 -0.072066841
C 1.681078440 -0.466022412 0.594818113
N -0.367657310 -1.226233304 1.306795598
C -2.678605108 -0.597721394 0.160589115
H -5.139866710 1.728394895 -0.860416531
H 4.686318399 2.014789711 0.597685659
H 5.064912972 -0.941977810 -1.305523473
H -3.781840844 -2.267866898 -0.340934712

