9

N -2.283107766 1.517314131 -0.293182221
C 3.011190991 1.271356960 -0.504572333
C 1.830912802 -0.808067281 0.175365715
N -0.068164689 -2.265609394 0.314856491
C -2.284830308 -0.866614001 -0.075813488
H -4.036579006 2.212926437 -0.625317688
H 3.862812812 2.546564822 0.864311143
H 3.952519037 -1.476478642 0.314564189
H -3.970495888 -2.047821746 -0.172704338

