16

C 4.620067266 -0.516228542 -1.265590479
C 2.154886164 -1.455446765 -0.242348135
C 0.014151535 -0.199592231 -0.363050706
C -1.324333315 2.072546318 -1.206750738
H -1.686630720 2.307296091 -3.212120789
H -1.048557059 3.827233577 -0.184932340
C -2.696326392 -0.087985044 0.145157895
C -4.523291689 -1.739286823 -1.291752547
H -3.862525044 -2.043999775 -3.222692729
H -6.396373918 -0.876342954 -1.378757087
H -4.710183184 -3.588444383 -0.395024589
H -3.237017023 0.317846019 2.084687336
H 2.158177897 -3.300860570 0.662305619
H 5.385615917 -1.823541944 -2.670284228
H 6.031541333 -0.348080126 0.233868971
H 4.397506000 1.330319212 -2.152743611

