11

C 2.378751946 -0.764618037 -0.138227476
C 0.171957594 0.817121223 0.825640865
O -0.462842399 2.873834055 -0.624323579
C -2.372559748 -0.311116043 0.513022206
O -3.264037442 -0.469826393 -1.720210624
H 4.057363178 0.431164448 -0.132715806
H 2.737276361 -2.420987211 1.043497960
H 2.042603872 -1.381478028 -2.079365338
H 0.465375180 1.251274576 2.843028137
H -2.060924464 0.819829768 -2.540163507
H -3.669697750 -0.865282387 2.018243431

