12

N 4.354411759 0.207046747 -1.134088879
C 1.901949591 0.089368248 -0.385058872
O 1.697362625 -0.814885375 1.979730832
N 0.096845780 0.786198350 -1.819886061
C -3.516725610 -1.642983356 -0.313613316
C -2.394516135 0.493275853 -1.054035451
H 4.698676188 1.236404944 -2.688224494
H 5.689980025 0.144755742 0.209764570
H -5.503391567 -1.650623519 0.168082900
H -2.529725095 -3.439548005 -0.302811283
H -3.510573607 2.215943385 -1.174054149
H -0.088592118 -0.952741841 2.360682044

