14

C -3.315232504 0.972936342 -0.809890508
C -0.572169764 0.143784858 -0.835283362
C 1.434434088 2.056618270 -0.607411116
C 3.446542637 0.649415003 0.660132169
O 2.848939030 -1.957324425 0.941383453
C 0.186346384 -2.093990854 0.845769396
H -4.573622654 -0.573126041 -1.340601854
H -3.608604661 2.541044762 -2.110695051
H -3.851898774 1.604948461 1.078837860
H -0.015633553 -0.362112684 -2.807604068
H 3.436894395 1.636910343 2.519697301
H 5.345850599 0.869240626 -0.108542637
H -0.643439746 -1.877480057 2.741300910
H -0.357990605 -3.935275777 0.098886477

