14

C -3.392857937 0.868301772 -0.910760611
C -0.659362030 0.306608290 -0.404072635
C 1.348281417 2.026940027 -0.629009362
C 3.509972542 0.620633359 0.517028217
O 2.774094310 -1.925302770 1.115363621
C 0.124695071 -2.031632273 1.064350823
H -4.352438451 -0.712667103 -1.824182013
H -3.576498574 2.559581218 -2.067788895
H -4.338555615 1.214927961 0.890499761
H 0.446083684 0.406487289 -2.462953474
H 3.987330683 1.670935939 2.248207681
H 5.204050993 0.552429553 -0.655331206
H -0.699646890 -1.930825268 2.972217770
H -0.488381594 -3.803171638 0.197537966

