15

C 2.989180670 -1.220801249 0.731016155
C -0.108960267 2.934243063 -0.958685691
C -1.586794391 2.121540435 1.326258852
C -2.076242433 -0.639388097 0.592178789
O -3.093929096 -0.285639341 -1.908907695
C -0.583800046 0.652662082 -2.527597943
C 0.473765923 -1.397904851 -0.616959373
H 3.167388174 -2.759195899 2.094841099
H 4.535746533 -1.403135764 -0.620239162
H 3.247975564 0.562214422 1.729042145
H -3.348213686 3.213849907 1.361728614
H -0.590457079 2.499857935 3.091231172
H -3.198646134 -1.875343136 1.793467501
H -0.146660227 0.634707491 -4.532131941
H 0.267306711 -3.206011380 -1.586829275

