9

C 0.055231309 -2.776161898 -0.486296301
O 1.203103132 -2.832993427 1.671930634
C 3.259225141 -1.094549176 1.070770865
H 3.092597860 0.610044695 2.208607109
H 5.065017663 -2.044036530 1.345676373
C 2.235425441 -0.857626766 -1.613679543
C 1.082237723 1.420792401 -2.461858453
H 0.296465847 1.022778927 -4.353309274
H 3.170140957 -2.081001765 -3.006757599

