14

O 1.865158551 -3.140533617 1.008073967
C 1.950737104 -0.887260260 2.436962993
C 0.022801020 1.100713878 1.594725779
C -0.269158870 1.531948114 -1.281361982
C -2.717834594 -0.015271198 -0.996571733
C -2.715797167 0.252165526 1.805844489
H 2.828817963 -2.916748753 -0.507994155
H 3.842732846 -0.051074989 2.365204272
H 0.363275886 2.774125415 2.765324394
H 1.190539402 0.816100734 -2.555620068
H -0.617476987 3.506618032 -1.744689210
H -4.434258319 0.308365622 -2.090318417
H -2.236066039 -2.045245104 -1.137179904
H 1.552499093 -1.410035343 4.390981947

