15

C -2.668052045 0.254472693 -1.942223321
C -3.395619715 0.073999029 0.755720828
C -0.654413423 0.451699648 0.092369265
C 1.393141853 -1.524016309 0.516335727
C 3.766846963 0.091723432 0.430298481
O 2.862052161 2.709998485 0.646427799
C 0.436335400 2.996244334 0.416621172
H -2.637308129 -1.458691425 -3.059283198
H -3.123897753 1.964695509 -2.963354917
H -4.358041205 1.662246072 1.608779521
H -3.893122205 -1.765532076 1.499909168
H 1.176240297 -2.430397896 2.355965269
H 1.409755928 -2.993498090 -0.925955540
H 4.783310690 -0.022568073 -1.358057802
H 5.083515927 -0.219549156 1.978798630

