15

C -2.856498842 0.406691871 -1.659896707
C -3.079575171 -0.062517016 1.128274948
C -0.541385578 0.210915394 -0.063429923
C 1.532778100 -1.777565928 -0.127369185
C 3.515259145 0.245194327 0.349478976
O 3.087415683 2.182335437 -1.372127682
C 1.097160664 2.557101104 0.405276164
H -3.245983585 -1.143260079 -2.937549101
H -3.374375811 2.251898486 -2.375163582
H -3.720130231 1.484771668 2.304927262
H -3.656170580 -1.924753068 1.750871562
H 1.366702316 -3.127709387 1.420623440
H 1.829968808 -2.786430065 -1.901521946
H 5.484380695 -0.008363833 0.873613452
H 2.662612960 1.389615661 2.253535253

