15

C 3.243953603 0.992750480 2.426976585
C 1.521063253 1.286907478 0.181211715
O 1.386982101 -0.994135895 -1.337481557
C -1.239670826 -1.105568736 -1.059129340
C -1.346679081 1.198043107 0.631569091
O -2.371742063 -3.404444074 -0.538174158
C -2.931299625 -2.203891184 -2.916020604
H 3.228161200 2.715236636 3.564912171
H 2.638479854 -0.588137742 3.605081758
H 5.179320525 0.640516434 1.809597579
H 2.114682448 2.869270121 -1.007789903
H -1.898402670 0.757402817 2.564964707
H -2.437944725 2.787990487 -0.079563914
H -4.856512992 -1.520719550 -3.119876208
H -2.117680178 -3.129924335 -4.556126984

