11

C 5.802133759 1.565552527 2.685117520
C 3.802146065 0.802561110 1.656367398
C 1.579794392 0.220276379 0.567869409
C -0.602358082 1.857307986 0.181904167
C -2.384397181 0.505284552 -0.964666976
C -1.421430165 -2.101908845 -1.375310113
O 1.072607037 -2.064132634 -0.345992866
H -1.297137227 -2.624490835 -3.370170338
H -0.642253017 3.807846594 0.768709218
H -4.244554818 1.124146180 -1.536624846
H -2.515925313 -3.544994647 -0.381681402

