13

N 4.736248157 -1.804061230 2.449621683
C 3.167546363 -0.497595181 1.721372616
C 1.169615315 1.121200645 0.713739825
C 0.506954276 0.874598340 -2.101067028
C -2.306749487 0.396352480 -1.488985455
C -2.244710686 -1.757474171 0.309905163
N -1.386649056 0.447691652 1.758660428
H 1.586391388 3.066247935 1.242244614
H 1.407820640 -0.701667423 -3.076447996
H 0.851732710 2.601604399 -3.157987165
H -2.706605652 1.880294199 0.558786592
H -0.811206796 -3.207691989 0.081642877
H -4.033167653 -2.468573954 1.009242233

