16

C -2.689667356 -0.601283622 -1.565743087
C -1.518052693 0.101578543 0.719611185
O -0.918529729 -3.297197128 1.683045833
C 1.163075237 1.105084796 0.891590984
C 3.019026116 -0.037108023 -1.004348731
C 0.995853221 3.860731807 0.586673582
N 0.844549105 6.009113402 0.342319881
H -1.655223339 -0.393207995 -3.318143230
H -4.721205030 -0.391552273 -1.691263856
H -2.093014055 -2.867670865 -0.344667507
H -2.702195693 0.634372726 2.306633099
H -1.930834320 -3.916907261 3.066014497
H 1.851351532 0.754484815 2.803713613
H 4.900764180 0.736962046 -0.692423374
H 2.472938825 0.383317811 -2.943952079
H 3.079975888 -2.077387192 -0.744846588

