17

C -3.854888434 -1.074653799 0.386055022
C -1.581211478 0.077854203 -0.893758840
O -1.045897610 2.435627581 0.280558718
C 0.890871981 3.650542389 -0.791257562
C 3.167192909 0.062555037 -0.658611469
C 2.327530522 -1.091142321 1.758545872
C 0.846688011 -1.491318189 -0.620848164
H -5.495281732 0.160534200 0.214161226
H -3.469248963 -1.394441380 2.385898512
H -4.309626176 -2.886136191 -0.487125909
H -1.938709337 0.403424157 -2.906572464
H 2.385869523 2.232683127 -1.807093938
H 1.749298195 4.874709845 0.647423912
H 4.897710647 -0.473850300 -1.606990480
H 1.480435086 0.112682422 3.186914544
H 3.430899050 -2.648490262 2.496975687
H 0.800084398 -3.330432459 -1.517408599

