13

C 3.204717276 -0.512327920 -0.134461648
C 0.797346033 0.981437011 -0.311338653
C -1.997892782 -1.407442053 -0.245046815
C -3.006117454 0.826259107 0.717482522
O 0.286157372 2.582348204 1.477660024
H 4.747271156 0.858384471 -0.294662803
H 3.350651697 -1.427852399 1.702823991
H 3.378624293 -1.903655995 -1.645618277
H 0.364632218 1.538296157 -2.272732886
H -2.285757295 -1.893286992 -2.208437714
H -1.617673933 -2.948262241 1.046149076
H -3.428338905 1.062265586 2.700020297
H -3.812928899 2.234745574 -0.529507080

