18

C -3.568696990 -1.234453708 -1.829765285
C -1.915330364 -1.893157111 0.435064521
N -0.070913315 0.023240740 1.022545829
C 0.630838542 3.241490307 3.216166390
C 2.086952777 0.370960608 -0.052721828
O 3.327894274 2.240185680 0.773898992
C 3.175780165 -1.197121620 -2.150236965
H -4.503092160 0.581299201 -1.542125404
H -5.019397747 -2.672215547 -2.128590889
H -2.441083598 -1.099516680 -3.553021334
H -0.996365696 -3.728504231 0.132837769
H -3.106932831 -2.131773661 2.107506308
H -0.614827421 2.276874183 4.517147433
H 2.285540411 4.003402880 4.144437581
H -0.327359732 4.575184437 2.004074378
H 5.162021103 -1.571574896 -1.766410440
H 3.068823896 -0.128290181 -3.909764418
H 2.172535885 -2.978039336 -2.396150767

