17

C 3.513711478 2.281456486 -0.493975959
C 0.284633629 -2.868989175 0.458675837
C -2.022056370 -2.948502067 1.883526462
C -1.850246911 -0.493800365 0.023161353
C -0.514366406 -2.293495629 -2.068830795
C -1.091040502 2.081879826 0.856892173
C 1.112378515 3.264874251 0.628221309
H 3.619428956 2.727092740 -2.510941123
H 5.142425437 3.172721643 0.401657395
H 3.657369044 0.240058354 -0.252588863
H -1.906486011 -2.655898442 3.911411579
H -3.689132713 -4.023996529 1.290500566
H -3.775965194 -0.469713255 -0.688824183
H 0.859720526 -1.480090325 -3.358474993
H -2.050431892 -3.292428782 -3.032979552
H -2.631020103 3.121950825 1.733349379
H 1.171810061 5.189583344 1.341839984

