17

C 3.544550807 0.860235590 0.368648472
C 1.095774436 -1.521915028 -0.639233064
C -0.744301232 -2.141768535 1.533479585
C -2.780815405 -0.636193496 0.118573851
C -1.272625873 -1.304453774 -2.322471725
C -2.012179036 2.064093554 0.422264669
C 0.418042983 2.516143179 0.107346138
H 4.607710328 1.041500047 -1.375288703
H 3.917740971 2.572001972 1.506124326
H 4.342589009 -0.631616617 1.529644216
H -0.274915864 -1.608511010 3.466410499
H -1.087583343 -4.177767456 1.441906254
H -4.793687951 -1.047132546 0.324760886
H -1.339780787 -0.011407559 -3.917471364
H -1.636205570 -3.236881643 -2.971416734
H -3.374069089 3.587481907 0.577805419
H 1.190977213 4.388988570 -0.115337677

