15

C -3.532376662 -0.426557579 0.251866723
C -1.117243048 1.018543956 -0.247886374
O -0.079636328 1.836037361 2.149608329
C 2.021011219 0.447095349 2.553555354
C 2.716253328 -1.045684033 0.657050498
C 0.966561181 -0.579889050 -1.524890969
O 2.158740147 0.649388471 -3.588660322
H -3.137238633 -2.131600864 1.346335566
H -4.866313509 0.733214417 1.309011775
H -4.407961363 -0.981343186 -1.531669266
H -1.479237189 2.714662386 -1.364321243
H 2.892005548 0.718527352 4.382827004
H 4.333383000 -2.285012157 0.625782806
H 0.163435307 -2.301499507 -2.330363656
H 3.321054448 1.868178579 -2.911781929

