16

C 4.645511068 -0.580994294 0.006348346
C 1.867633072 -0.153817395 0.074739745
C 0.003909806 -1.668309655 -0.748323023
C -2.422057004 -0.462877756 -0.265363109
C -4.742173015 -1.390017512 -0.567678282
C -1.779269686 2.151918387 0.728450077
N 0.940712090 2.023033547 1.219537570
H 5.416529436 -0.617975100 1.920514128
H 5.086760549 -2.362473240 -0.922024834
H 5.599826502 0.938605952 -1.018868309
H 0.252180984 -3.533888632 -1.535044184
H -2.831172335 2.621648630 2.438543220
H -6.405301910 -0.291257592 -0.101127220
H -5.039173296 -3.280028078 -1.293307470
H -2.204641991 3.582979597 -0.705722076
H 1.940575518 3.618046035 0.939557637

