14

C 3.017647467 -0.110530478 0.837963334
C 0.892837504 0.520462076 -1.076552048
C -0.185962978 -2.029978215 -1.559058616
C -2.509081160 -1.969524761 -0.071606655
O -2.740840913 0.264826200 1.391239069
C -1.221059801 2.082670110 0.147400698
H 2.257946309 -1.028605444 2.521658648
H 3.907064094 1.652039547 1.428600315
H 4.440015937 -1.336758737 -0.000310010
H 1.742268376 1.381966428 -2.744043243
H -2.325858417 3.087234949 -1.296036140
H -2.926226636 -3.634365465 1.068517235
H -3.887794651 -1.987619664 -1.669037388
H -0.564472456 3.447207896 1.546370579

