14

C 2.920627000 -0.468912597 0.951273731
C 1.175294641 0.804806294 -0.918684762
C -0.920806471 -0.619494610 -2.272581198
C -2.420182037 -1.749190254 -0.055203209
O -2.403555017 0.331723166 1.692970127
C -1.195109893 2.020722601 0.046257926
H 1.894205097 -1.321398929 2.518523667
H 4.246034133 0.899911202 1.739711067
H 4.022233131 -1.941757900 0.016199639
H 2.194155825 2.008398714 -2.241902099
H -2.373222286 1.833491692 -1.926139163
H -1.510740341 -3.449613990 0.700876611
H -4.375570229 -2.192389064 -0.538314244
H -1.324432393 4.018049807 0.517467786

