17

C -4.024696673 -0.854309994 0.999402845
C -1.351440605 -0.590040545 1.930726246
O -0.480925056 -2.868508675 3.256543242
C 1.404471781 -2.997254393 1.456012342
C 1.706575116 0.383442382 -2.190510411
C 0.800354232 -0.979529313 0.084797718
C 2.604415386 3.069096092 -1.616717467
H -4.548308507 0.798795321 -0.121521427
H -4.205533825 -2.535122984 -0.180588276
H -5.339077159 -1.003885389 2.581281548
H -1.121210679 1.024405433 3.198452248
H 2.799199076 -4.492465815 1.495465023
H 3.237301295 -0.701809512 -3.053771056
H 0.188428579 0.460716439 -3.597173727
H 3.233855001 4.025582576 -3.332259050
H 1.087968790 4.195727469 -0.785232568
H 4.173452738 3.043402601 -0.278343487

