10

C -2.215683623 1.343891565 -0.009246846
C 0.821869085 -2.005056752 0.229926946
C 2.404472687 0.061952951 0.015200144
O 1.565756145 2.175165968 -0.643709391
H -1.983348977 2.157563698 1.845909801
H -3.473508216 -0.260204875 -0.099004547
H -2.423108372 2.668094470 -1.547465694
H 1.370069034 -3.687461969 1.264448934
H -0.352935096 -2.325374137 -1.417959777
H 4.443296709 -0.075174817 0.374552127

