13

N -2.791613168 1.111426376 -0.675925744
C -0.354153271 0.727616481 0.101311430
C 0.455413338 -1.973535459 -0.047086476
O -1.376934239 -3.578779756 0.790010419
N 2.540567077 -2.772661520 -0.859881304
C 3.299575991 2.822670042 -0.037649051
C 1.044061665 2.705477599 1.166706913
H -3.463975417 0.089417513 -2.134924061
H -3.436666040 2.898135328 -0.607167870
H -2.747783257 -2.636491824 1.526790408
H 2.647958833 -4.679992730 -0.627952533
H 4.117093905 1.033759030 -0.681919237
H 0.098060251 4.296781670 2.074319183

