13

C 1.619649150 4.482468559 -1.034692705
C 0.669537657 2.434732417 -0.888065529
C -0.473535169 -0.034390993 -0.728518901
C -3.177430614 -1.181840066 1.775797825
C -0.531248539 -1.234157682 2.101903251
O 0.865412683 -3.378486872 1.280963855
C 1.100480799 -2.437166347 -1.227772543
H 2.467704378 6.302138284 -1.165790773
H -2.299295028 -0.087448645 -1.710609946
H -3.763502072 0.718735789 2.404656935
H 0.491647476 -0.132197643 3.512391372
H 3.062590861 -2.021576946 -1.713711818
H 0.260536881 -3.707431744 -2.617371651

