11

C -2.629977919 -1.142273510 -0.480533108
C -2.329518042 1.680270922 -0.901207195
C 0.279479080 2.676131569 -0.432323247
N 2.081925199 1.276940609 0.269367307
H 3.698844829 2.292938178 0.488871260
H 0.510418163 4.715397203 -0.740930792
H -2.853272456 2.198339811 -2.837828896
H -3.627940434 2.751286318 0.307131934
H -1.374772789 -2.211751254 -1.715434246
H -4.571753715 -1.725096416 -0.856128062
H -2.154172603 -1.653458826 1.457683748

