14

C -2.659192594 -1.642184456 0.327516390
C -1.550823719 0.416597872 -1.208717414
C 0.350930116 2.119263504 -0.437454515
N 2.069590900 1.233249272 1.241183438
C 3.308922293 -1.254206996 0.368357473
O 5.262869739 -1.701555380 1.474634553
O 2.076335408 -2.297179763 -1.330563024
H -1.753360048 -1.788181899 2.166396882
H -2.340509161 -3.411981965 -0.678815324
H -4.697172476 -1.363789587 0.517183250
H -2.515245975 0.908573253 -2.957386444
H -1.741652174 2.753469102 0.373629034
H 0.786748770 3.667089946 -1.727477717
H 3.367795520 2.458704104 1.903249477

