9

O -2.897848052 -1.871052002 -1.604971553
C -0.677178859 -1.552412430 -0.556674331
N 0.691176363 -2.291218622 1.211766185
C 1.676403408 -0.236229825 -0.570590936
N 1.942645731 2.292828933 0.444782230
N -0.014904213 3.085417260 1.414220859
H -3.856497082 -3.065266902 -0.612289009
H 3.239678003 -0.740970514 -1.792486884
H 0.374084968 4.849449668 2.120990694

