13

O 3.169172964 1.666359042 0.523115233
C 1.997201936 0.358613705 -1.292156117
C 0.680661322 -2.217147462 -0.460170572
C -1.723251590 -0.700064784 0.117944233
N -1.345992392 0.657819976 2.504704970
C -0.629914466 1.453866936 -1.256908227
H 0.521561047 1.207445666 2.700285028
H 2.935228630 0.251322898 -3.151504063
H 1.541949300 -3.206907809 1.122681566
H 0.398042500 -3.475940747 -2.066717930
H -3.623767767 -1.442257724 -0.105256592
H -2.594702704 2.063720220 2.837095531
H -1.310226283 3.379432188 -1.470841589

