13

N 4.042722676 2.391438527 2.505944460
C 3.302979482 1.084402556 0.800365797
C 2.328224921 -0.445129486 -1.177894979
C -0.089078099 0.250459085 0.401996355
C -2.163387078 -1.622117246 0.738508503
C -2.554361152 0.698263365 -0.880107742
H 2.907083106 -2.419505968 -1.125539494
H 2.444977870 0.382116398 -3.058785841
H 1.690632630 2.042378163 2.555785060
H -3.102171515 -1.725078690 2.555779561
H -2.063535197 -3.419213947 -0.247700501
H -2.703053609 0.386250307 -2.903338500
H -3.764423484 2.196582460 -0.183703943

