13

C -2.238950441 -2.353994625 1.792957105
C -0.365616293 -0.481704417 0.803856499
O 1.356580736 -1.759448972 -0.929734954
C 3.373915076 -0.704331805 -1.576131876
O 4.061713025 1.502182943 -0.811955374
C -1.142104738 1.870043342 -0.134555587
C -1.608180856 3.991941936 -0.868330666
H -3.489725071 -1.366710971 3.099007887
H -1.321146972 -3.870315950 2.848910514
H -3.422600317 -3.208846895 0.318297645
H 2.729124082 2.182611866 0.297109166
H 4.668953706 -1.737339857 -2.777976054
H -2.166903518 5.770961083 -1.618415537

