15

C 5.755045507 -1.830146386 -3.473201136
C 3.582257986 -1.136771629 -1.930751228
C 1.783925234 -0.567424303 -0.668854162
C -0.317656291 0.113953887 0.878352923
C -2.646385750 0.470591391 0.001634670
C -4.870418296 1.199354010 1.595820214
O -4.286856790 1.770394304 4.127228280
H 5.621894875 -0.983670743 -5.348831510
H 7.508191279 -1.182753957 -2.602220356
H 5.870453273 -3.876871807 -3.701457847
H -3.214736888 3.232921703 4.153054052
H 0.042414034 0.317197938 2.888135068
H -3.022947412 0.227270577 -2.001849528
H -5.863418125 2.778434199 0.682718837
H -6.211354726 -0.372974981 1.659060995

