15

C 5.565967977 -1.483092249 -3.236587885
C 3.329735717 -1.136501001 -1.664852741
C 1.492349224 -0.848429280 -0.364943191
C -0.678634043 -0.493747963 1.216209366
C -3.010755995 0.350825690 0.205082017
C -4.835077073 1.324573367 2.039604234
O -3.187026511 3.426023821 1.874110883
H 6.730968807 0.218601534 -3.256725657
H 6.717398249 -3.039470912 -2.526320318
H 5.038546719 -1.922373373 -5.181430839
H -1.116662335 1.927436290 2.061402395
H -0.801456830 -1.664359163 2.902226491
H -3.267209140 0.805397759 -1.773035291
H -6.729993368 1.738815998 1.353834945
H -4.877976747 0.380516254 3.875670811

