14

C -1.086538683 0.363989730 2.527459086
H -3.002826968 -0.352355744 2.422440826
H -0.320712205 0.564994077 4.415689493
C 0.580583203 -0.483046179 0.339356942
C 0.022967146 -2.628263049 -1.407132875
H 0.725945018 -4.397404692 -0.615360192
H -2.007206902 -2.822677714 -1.709425957
H 0.933498401 -2.345271063 -3.234591881
C -0.347353261 2.192760848 0.546902463
H -1.542779306 3.335119925 -0.648344095
O 2.163433697 3.116599536 1.090611572
C 3.109264753 0.697480943 0.753246912
N 5.335092691 -0.073821338 0.696468560
H 6.586064305 1.355134906 0.993415758

