16

C -1.842866964 -0.246331129 2.170799925
C 0.010449278 -0.314735549 0.195116225
C -0.029512420 -2.597290608 -1.533486275
C -0.428384812 2.249797583 -1.050782230
O 2.224018770 2.845550581 -1.149864181
C 2.651891864 0.837684033 0.424944112
N 4.570464450 0.213039597 1.645032159
H -3.090785726 -1.834087051 2.496410036
H -1.652782380 1.105022718 3.691661980
H -3.945967961 0.761560082 -0.237019712
H 0.685565086 -4.244643276 -0.521148860
H -1.963260754 -2.969965670 -2.147728486
H 1.138884229 -2.291284082 -3.202471204
H -1.440832965 3.763840995 -0.083380254
H -3.421472850 1.278727950 -1.696914571
H 6.016364130 1.447443190 1.354884083

