12

O 4.342443255 -0.668203756 0.852800443
C 2.207051373 -0.206286812 0.263355918
C 0.106015790 -2.080224577 -0.314747322
C -2.286203364 -0.533157899 0.186459863
C -1.754509096 2.230494049 0.230817385
C 1.016745126 2.411411534 0.011287032
H 0.302655966 -3.794627544 0.805085558
H 0.267013898 -2.615858452 -2.305451057
H -3.955063270 -1.012681327 -0.925218206
H -2.924816088 -0.762801972 2.162220437
H 1.142954321 2.921939642 -2.017133425
H 1.955919149 3.945717535 1.013038749

