12

O 4.516910575 -0.883197557 0.248410093
C 2.318663322 -0.353009268 0.130062385
C 0.073485874 -2.107654954 -0.160101622
C -2.244001755 -0.393092173 0.196809855
C -1.418255633 2.346215000 0.432450633
C 1.217728913 2.293634183 0.293741334
H 0.225231090 -3.663223831 1.181844602
H 0.154451681 -2.938916317 -2.049292066
H -3.673379749 -0.611145233 -1.271619480
H -3.229418075 -0.791171807 1.970303725
H -0.061179014 3.055535852 -1.560285161
H 2.436152074 3.924991018 0.563884033

