15

C -4.622863380 -0.717897638 0.844734147
C -2.605703612 0.858989788 -0.490354941
C -0.276157130 1.196150244 1.076710445
O -0.732141355 2.498271246 3.240827278
C 1.978469440 0.330939969 0.466627086
C 4.130157790 -0.501691181 -0.154035356
C 6.358773244 -1.365384648 -0.800871280
H -3.927067374 -2.619302743 1.237690393
H -6.303601442 -0.880931190 -0.337551441
H -5.176607275 0.146489415 2.630611866
H -3.355806851 2.739332515 -0.914732324
H -2.063050633 -0.010674723 -2.276108769
H 7.991499129 -1.076694268 0.398301922
H 0.812658201 2.635938361 4.186326800
H 6.617745602 -2.388313544 -2.554339193

