15

C -4.521075871 -0.124549808 1.610177805
C -2.818800072 -0.297138797 -0.690544703
C -0.072549553 0.142411915 -0.252303930
O 0.654576544 0.804343746 1.902462557
C 1.706968311 -0.217203080 -2.375068321
C 3.862336714 -0.109320789 -1.358893590
C 5.511580922 0.293021065 0.569821704
H -3.987328057 -1.507506793 3.041308180
H -6.478589496 -0.482119231 1.074271054
H -4.422941222 1.740981000 2.478371749
H -3.351769149 1.055890368 -2.164012785
H -2.935411688 -2.134379839 -1.636548328
H 6.439084299 2.122235797 0.677254864
H 2.948948080 0.689926763 1.782547038
H 6.565812091 -1.284514159 1.351031895

