12

C -3.209674425 -0.596421829 1.044578656
C -0.625912328 -0.513792326 2.306229019
C 1.507866162 0.432662755 0.751251191
O 1.040955862 0.958729608 -1.558809191
C 3.915688615 1.020435629 -1.651166021
O 5.049965465 -0.626258847 -2.662308752
H -3.812039480 1.283449601 0.451269036
H -3.185913878 -1.799895461 -0.627184737
H -4.619935212 -1.334510605 2.352680169
H -0.007546206 -2.388672951 2.940861375
H -0.622842506 0.618634388 4.038745464
H 4.494186259 2.944555317 -1.219794138

