12

N -3.874258656 -0.905354199 1.245162502
C -1.430438791 -0.068600668 0.687715027
N 0.671963820 -1.520382272 0.812827388
C 2.370067067 -0.241244308 -0.513341796
O 4.760166213 -1.016047836 -0.770019686
C 1.364634540 1.989300046 -1.498684096
N -1.077758184 2.127782200 -0.796448905
H -3.824411649 -2.577170127 2.156572877
H -4.972184243 -1.009298226 -0.309894789
H 4.911384233 -2.615806561 0.081934046
H 2.301227670 3.508695559 -2.477675026
H -1.134041825 2.111323800 1.700619020

