10

O -4.016040820 0.031956233 -1.242891013
C -1.724548301 0.911969941 -0.431809336
C 0.226136722 -0.681660855 -0.363087253
O 0.043456841 -3.138193021 -1.106265024
C 2.654762773 0.088390768 0.512845195
C 4.698869015 0.733394640 1.243297550
H -1.662028999 -3.420698988 -1.675426514
H -1.562775310 2.857321723 0.168519993
H -5.155900034 1.408049335 -1.516955896
H 6.514624003 1.304990230 1.891850876

