10

O -4.133662174 -0.563169414 -0.958909000
C -1.717570412 1.003434689 -0.353712587
C 0.299921532 -0.758524766 -0.438490368
O -0.080307559 -2.940485489 -1.196199623
C 2.780990545 0.107339203 0.326069862
C 4.818539513 0.836814343 0.983349848
H -3.248326675 -2.210837496 -1.290199343
H -2.047991273 2.323821821 1.163649185
H -3.295013209 0.831647888 -2.320439457
H 6.639975622 1.465481079 1.564963821

