13

C -0.942646338 -1.817963038 1.677494347
C -0.042853565 0.456818992 0.172796595
O 0.577852152 -0.319714543 -2.407327099
C 2.778172302 -1.209609667 -3.056865841
O 4.302909239 -1.296772529 -1.051007656
C -1.980304761 2.409858954 -0.040803722
C -3.579286675 4.002791081 -0.153538925
H -2.565249773 -2.681195601 0.748773703
H -1.507500897 -1.219915175 3.566408097
H 0.568434173 -3.205228183 1.841665873
H 1.641116382 1.273379609 1.032098962
H 5.890559468 -1.941083306 -1.648582898
H -4.998175914 5.423297320 -0.277896774

