12

N 4.003791067 -0.441005461 0.131899028
C 1.775275674 0.064340091 1.271226228
C -1.367557040 2.502440057 0.041081588
C -2.844732216 1.200941002 -1.420086229
C -2.369222170 -0.961675143 0.235319487
N 0.004786771 -1.781078230 0.816392866
H 4.202278753 -1.584417134 -1.385819976
H 5.489843478 0.657600012 0.549697349
H -1.137021980 4.425995416 0.676745299
H -4.287990513 1.498467344 -2.847093353
H -3.945699223 -1.946022370 1.123880220
H 0.449201638 -3.635402319 0.817071618

