16

O -3.606398614 0.126117865 1.707404743
C -1.208730321 -0.250273986 0.634773367
C -0.780599469 -2.558611259 -0.935056763
C 0.418317069 -2.319520219 1.657210121
C 2.447104681 2.318923349 -1.290461543
C -0.161972754 2.304872592 -0.084707635
H -4.301477828 -1.471080508 2.204612833
H 2.489246178 1.251808064 -3.055710444
H -2.349005653 -3.859118548 -1.139388087
H 0.433114097 -2.455113756 -2.577316316
H 2.442560589 -2.051281362 1.767109469
H -0.355055445 -3.461790554 3.170510266
H 3.884755726 1.536777195 -0.034308620
H 3.008419840 4.252320950 -1.732829515
H -0.146315938 3.457486136 1.631042706
H -1.528354402 3.183221604 -1.362932294

