16

O -4.222486105 0.562202517 -0.915751075
C -1.691976301 0.228753861 -0.577615785
C -0.702707793 -2.446789494 0.152093171
C 1.947431803 -2.191068863 0.780004432
C 2.090598342 1.941991471 -0.554763572
C -0.391768798 2.298977630 0.863603970
H -4.841991826 -0.720066118 -2.042829279
H 0.917393210 0.480855779 -2.050711043
H -1.783083437 -2.934544606 1.850827076
H -1.158733138 -3.813217403 -1.326968179
H 3.378260521 -3.203729271 -0.273342780
H 2.453412209 -1.666994103 2.690927860
H 3.881559859 1.882298688 0.447948428
H 2.260598483 3.405432609 -2.010071953
H -0.302381143 2.076088572 2.915453591
H -1.293405301 4.107327952 0.452614502

