18

C -4.636408427 0.177809169 -1.021340505
C -1.907753186 -0.486820605 -0.478998821
C -1.235364159 -0.759901658 2.317932471
N 1.515155535 -0.845833250 2.218879830
C 2.445894387 0.727366508 0.474175106
O 1.816175603 3.170712240 0.357932591
C 4.950074372 0.180193455 -0.679986690
H -4.942159254 0.406411606 -3.051078290
H -6.010743763 -1.248611403 -0.372784307
H -5.190032343 1.964504288 -0.126428423
H -1.395341702 -2.252501365 -1.435271218
H -0.001140639 3.106795316 0.074978285
H -1.855013915 0.872202772 3.431434428
H -1.905565261 -2.445849468 3.345654052
H 2.317510703 -2.569619575 2.261349214
H 4.737808693 0.239507725 -2.728667751
H 5.690511530 -1.657337224 -0.125497865
H 6.277297494 1.667310519 -0.149027601

