16

C 2.719887838 -1.873792200 0.144311846
C 0.826210107 -0.094314719 1.343011670
C 0.577059147 2.661080430 0.334216301
C -2.224489804 2.082811972 -0.098495039
C -1.979133527 -0.405233418 0.873044815
O -2.560668302 -1.885171242 -2.369484162
H 2.380969898 -3.826827702 0.718005976
H 2.624431460 -1.777883100 -1.914293622
H 4.640837756 -1.365319150 0.698254162
H 1.087411283 -0.081071122 3.396527010
H 0.989380304 4.087509638 1.765239811
H 1.693755195 3.083303658 -1.350581668
H -3.836691657 3.333384930 0.054226712
H -2.378353761 0.486954946 -2.176306984
H -3.280693564 -1.669814973 1.816488466
H -1.267513880 -2.856958272 -3.208795721

