12

O 2.413776715 -1.558388292 -2.599852132
C 0.495957072 -1.459430270 -0.779778610
C 1.233259760 -0.322055781 1.781514227
C -3.305508559 0.693244819 1.014406666
O -0.355042387 1.920926315 1.367345636
C -1.383234888 0.727220697 -0.981116249
H 3.195444371 0.072014704 -2.756251214
H -0.383279884 -3.314386511 -0.722756049
H 0.602407177 -1.309399395 3.467489703
H 3.203261148 0.267450671 1.916471324
H -4.317107640 2.501688060 0.853298367
H -1.364438141 1.926621988 -2.658151147

