17

C -3.372393998 -1.134814874 0.910029438
C -1.668366857 0.703244910 -0.493808774
O -1.811810694 3.164298075 0.526805944
C 1.070946874 -0.209930412 -0.646331329
C 2.781013032 1.522787572 -2.134773487
C 2.679672425 -2.401418039 3.045517034
O 2.027546988 -0.336430040 1.940390495
H -5.309048523 -0.435816519 0.889679809
H -3.340740159 -3.000613173 0.027669068
H -2.785631712 -1.343983179 2.879046279
H -2.332636486 0.883371185 -2.443688094
H -1.218961279 3.101831629 2.243194332
H 1.116911760 -2.142492830 -1.389972612
H 4.716981417 0.818251488 -2.124920644
H 2.133518558 1.627089512 -4.089701021
H 2.746972961 3.420586682 -1.338971682
H 2.430437807 -3.967908116 1.625294254

