17

C -3.984339549 -1.025116216 0.666542725
C -1.942269563 0.534439757 -0.618877274
O -1.885103552 3.042366105 0.295400684
C 0.649691432 -0.678295706 -0.346705784
C 2.839207640 0.779411039 -1.571347316
C 4.055192109 -0.452559946 1.882242356
O 1.429184316 -0.610140523 2.214608482
H -5.798634402 -0.063161847 0.514306823
H -4.150049898 -2.888997690 -0.204119618
H -3.543546002 -1.285616002 2.665631949
H -2.346872795 0.688374938 -2.643685803
H -1.245476008 2.972999758 1.997680962
H 0.605381928 -2.638077947 -1.035664743
H 3.751758086 -0.085149661 -3.192209897
H 2.400353669 2.770701723 -1.889590083
H 4.407658837 1.265555954 0.176272916
H 4.691838611 -2.220393180 0.953472258

