10

C -3.167602450 0.656771102 -0.618143910
O -2.315406549 0.221643010 1.548469838
C 0.993703431 -0.452159154 1.549903857
O 1.863896384 -0.882376622 3.482744328
C 1.564252320 -0.211577743 -1.193556028
C 3.735768357 -0.523697099 -2.175776274
H -3.404208350 2.604086498 -1.276231433
H -0.310846644 0.292394092 -2.169889682
H -4.078487254 -0.850444484 -1.704522873
H 5.595306145 -0.986582187 -1.486159483

