11

O -2.475913632 2.192280386 4.575586514
C -0.743686126 1.971698494 3.261597277
C -1.817931177 -1.912101654 -2.540527015
N -0.843390646 -1.637276553 -0.392982135
C 1.488807575 -0.217064015 -0.206045853
C 1.242664927 1.794978356 1.792774104
H -3.570163588 -2.973486608 -2.717532445
H -0.990203715 -1.127100596 -4.272117399
H 2.037686710 0.638171454 -2.019571096
H 2.979090591 -1.549408767 0.328555286
H 2.739613290 3.147071181 2.119500097

