11

O -3.334842286 1.367869563 2.712512898
C -1.529900520 0.934488730 1.445062947
C -1.872918239 -0.996561642 -1.259546568
N 0.242374289 -2.105408995 -0.357767334
C 2.247995880 -0.279958655 -0.595255074
C 1.089907593 1.183233097 1.512518516
H -3.625275239 -2.035735095 -1.043405647
H -1.739140350 0.237295177 -2.912512856
H 2.368171955 0.654509516 -2.442409354
H 4.070605906 -1.071556311 -0.055138051
H 2.085882058 2.178110539 2.999313703

