14

O 3.976997056 -2.660130011 1.687811515
C 2.390182785 -1.357513920 0.151978124
C -2.215348348 -1.315925016 -1.162279133
C -2.842290388 1.070478865 0.078933369
C -0.334602032 2.258371384 -0.441114385
C 1.945337363 1.194622155 0.332747020
H 4.125241838 -1.795420854 3.275086992
H 1.933211841 -2.404162394 -1.530299479
H -2.296545571 -1.393423875 -3.202875266
H -2.219976287 -3.095734333 -0.166461987
H -4.352738199 2.129404379 -0.845404225
H -3.269632846 0.912382204 2.090251502
H -0.310660884 4.101056008 -1.362889246
H 3.433624431 2.420512531 1.064738822

