14

C -3.574618655 -2.382415954 1.371932663
N -1.649102648 -0.987984609 0.028552099
C -1.624729868 1.360309279 0.267071478
O 0.020535238 2.917189324 -0.919472608
C 2.327877136 2.135932891 -1.882569108
O 3.121047347 3.234298784 -3.673785643
C 3.720455793 0.104085321 -0.479002657
H -4.851175291 -1.178896345 2.477293566
H -4.690500609 -3.467973832 0.020184108
H -2.674842701 -3.731878961 2.646011622
H -2.963527884 2.474720156 1.377349978
H 3.360555015 0.186294852 1.545193109
H 5.723799074 0.336970841 -0.872214129
H 3.087424943 -1.734160242 -1.151547832

