14

C -2.957909388 -2.364675602 0.322778941
N -1.287242186 -0.239499127 0.074251006
C -1.440626437 1.930471851 1.126773069
O 0.315882140 3.426414087 0.400970498
C 1.479214720 1.110473803 -1.607516806
O 1.187639182 1.505420762 -3.780001026
C 3.752189019 0.061522434 -0.291634422
H -4.539634928 -1.927655366 1.580380434
H -3.716338307 -2.886456651 -1.523146412
H -1.951353873 -3.996148202 1.085910482
H -2.856187093 2.531192013 2.502806645
H 5.338252653 1.316921960 -0.682484587
H 4.158124924 -1.791583425 -1.094467313
H 3.469442149 -0.095112316 1.734781546

