13

O 4.993980004 -1.946611586 -0.810037472
N 3.641156819 -0.055370393 -0.247312634
C 1.221141929 0.021439453 -0.083330043
C -0.723753597 -1.975389545 -0.471816520
C -2.740383826 0.068528990 0.163679101
C -0.626190533 2.083389888 0.555183753
H 4.575127424 1.603899152 0.119100896
H -0.786413363 -2.745483347 -2.384665277
H -0.591919235 -3.556060997 0.847400607
H -4.027613824 0.498000641 -1.381543016
H -3.844738167 -0.326197872 1.853045879
H -0.681035223 3.667024146 -0.765932473
H -0.488337620 2.832069653 2.472942888

