10

N 4.113222442 1.193006439 0.147976403
C 2.060575262 0.423495108 0.719336740
C -0.220660069 -0.515709415 1.316808199
C -1.702054494 -1.638142426 -0.983138936
C -2.371958380 0.925034242 -0.308582034
H -0.583282015 -1.101240412 3.241283968
H -2.878867813 -3.164377500 -0.268334779
H -0.579663568 -2.178908948 -2.626432793
H 4.485069559 3.062288732 -0.043745346
H -1.494331282 2.313049022 -1.572925785

