10

N 3.806533517 2.021446801 0.383147169
C 2.829947509 0.001671444 0.219120812
C 0.505740222 -1.151038740 0.765138392
C -2.007957633 -1.353914880 -0.666601231
C -0.889272498 1.196019626 -0.300349423
H 0.359003442 -1.520119675 2.771764354
H -3.450841537 -2.073849738 0.599117863
H -2.068207582 -2.167079281 -2.547178794
H 1.406748448 2.908962212 0.687910935
H -0.135438958 1.684572033 -2.150171770

