13

C 2.717748328 1.166340514 -0.082016287
C 0.871270456 -0.963507856 -0.416522699
C -1.035525224 -1.562463279 1.564460228
C -1.886160155 -0.451910145 -0.917762027
C -2.500489293 2.545781833 -1.706602271
N -3.812041786 2.298757363 0.091502070
H 3.310575709 1.913939299 -1.909797756
H 4.391029360 0.511172958 0.929672196
H 1.884782374 2.716457871 0.991464956
H 1.572441165 -2.549662310 -1.512104496
H -1.104340697 -0.353750381 3.209650368
H -1.564402402 -3.507811262 1.906946518
H -2.923912402 -1.643035229 -2.203963126

