21

C -3.375437704 -2.274498023 -0.215711084
C -1.304570975 -0.828458654 -1.081092549
C -0.533935918 1.842550246 -0.630549754
C -1.835144938 3.370333724 1.387066742
C 1.305894010 -0.311610981 -0.108473303
C 1.796628729 -1.158811864 2.571246705
C 3.570709001 -0.506444542 -1.828572357
H -2.241014967 -1.950910638 -2.944610195
H -5.230037997 -1.427036850 -0.101530846
H -3.104951151 -4.215857342 0.358284684
H -0.744203779 -1.049703291 -3.882682072
H -0.036420578 2.905560421 -2.310090221
H -3.496204432 4.317532356 0.611746525
H -0.566705281 4.819001834 2.128677023
H -2.461422947 2.191014080 2.951774014
H 3.090303279 0.142689591 3.517972527
H 2.664525609 -3.032105629 2.574400998
H 0.055299811 -1.270832976 3.661852003
H 3.104318641 0.036770272 -3.762243326
H 5.084424678 0.728989518 -1.162194417
H 4.293881923 -2.440853751 -1.867128666

