16

N 4.492381816 0.558480796 -2.886609284
C 3.253759127 -0.811724714 -1.511616078
C 1.874351974 -2.369371704 -0.176403345
C -0.983862077 -2.272431475 -0.061515007
C -2.158365112 0.298990861 -0.662827939
C -1.918099210 2.247897388 1.442795351
O 0.584627614 3.046697206 1.941537464
H 5.120154655 2.182561638 -2.072403417
H 2.861753660 -3.884619117 0.784807700
H 1.576671884 1.576735020 2.331938176
H -1.584526946 -2.865627315 1.827963979
H -1.742505896 -3.689632111 -1.362847370
H -1.351694584 1.065470599 -2.406026136
H -4.176450524 0.025453666 -1.019002668
H -2.792012523 1.498927058 3.172899617
H -2.954939910 3.953478678 0.922883469

