16

C -4.347219707 0.613714958 1.643217588
O -2.370547189 -0.816140871 0.604822833
C -1.071639516 0.480285951 -1.293021952
C 1.081752234 -1.013801670 -2.281492013
N 3.037784445 -1.541605861 1.241813114
C 4.659474802 0.112750282 0.519314559
O 4.398540946 1.061745590 -1.641204727
H -3.644062745 2.374341892 2.484672814
H -5.779090439 1.090242887 0.217992626
H -5.226873631 -0.526447954 3.112775070
H -0.410416483 2.336433513 -0.647366464
H -2.341185230 0.826065278 -2.916257972
H 1.739934111 -0.411010387 -4.115446971
H 0.894352837 -3.038362210 -2.110481134
H 3.141717624 -2.280483674 3.002235673
H 6.237476051 0.732272275 1.709432779

