12

N 3.002944245 0.153874011 -0.990689374
C 0.906316788 0.141463499 0.494555443
O 1.249194308 -0.094408620 2.840238088
C -1.611830673 0.368684849 -0.560694251
C -2.193006040 -0.265416796 -2.919428498
N -0.895090926 -0.672216287 4.352275254
H 4.676661143 0.159523650 -0.087870847
H 2.916370165 1.154979726 -2.601675718
H -2.990022033 1.055927822 0.792546734
H -0.830639795 -1.139324611 -4.177124042
H -4.085630570 0.006142971 -3.645292409
H -0.124145123 -0.288245255 6.075542944

