12

N 3.389341478 1.044339814 -0.895902583
C 1.599290658 0.368318374 0.646811036
O 1.807531920 -0.471610766 2.880505355
C -1.229515645 0.266498797 0.175593918
C -2.344573981 -0.751177908 -2.032280601
N -1.215983751 -1.354295660 2.632446525
H 5.240436082 0.899807135 -0.493144744
H 2.793791757 1.410681780 -2.682945903
H -1.956625321 2.159004274 0.600854597
H -1.893254111 -2.668913080 -2.587673490
H -4.068856208 0.073232084 -2.745982763
H -2.100461409 -0.394896087 4.074101975

