14

C 3.753554705 0.612722304 0.175723365
O 1.704623085 -0.730392035 1.207473842
C -0.454121257 -0.775092033 -0.350344490
C -2.332702192 -2.600570360 0.823630744
C -1.564059682 1.762577112 -0.667406500
C -2.478120510 3.816613921 -0.923659636
H 4.339669685 -0.191872813 -1.644618782
H 5.310305115 0.450961389 1.510882656
H 3.295536361 2.613099944 -0.097763431
H 0.082483616 -1.457788098 -2.240726463
H -4.035061990 -2.721168978 -0.329451678
H -1.475229798 -4.467447258 0.969999387
H -2.852562183 -1.953806643 2.708840102
H -3.294314993 5.642163586 -1.142579097

