13

C -2.796448164 -0.608448953 1.906036143
C -1.143666748 -1.198849850 -0.306846377
C 1.783861135 0.686269670 -3.205212101
N 0.932217639 0.170341878 -0.903299916
C 2.551264458 0.877614550 1.199671409
O 4.412422969 2.099805636 0.952020627
H -1.774412429 -0.012127790 3.595001430
H -3.896452393 -2.275182784 2.417004330
H -4.151091590 0.908362379 1.484840189
H -1.993905894 -2.131728742 -1.918558848
H 3.727017716 1.247920274 -3.412941511
H 0.555850845 0.314084028 -4.785725307
H 1.905149994 0.051909416 2.981908399

