13

C -4.149130338 1.337032388 -0.130513103
O -2.622751606 -0.837131930 0.220168155
C -0.113331940 -0.484588857 -0.029642868
N 0.821036906 1.661130188 -0.539230024
N 3.380358513 1.868340396 -0.908426025
C 1.339343221 -2.744220669 0.353218669
C 2.690967337 -4.533313776 0.663201802
H -6.086787514 0.699822143 0.120281068
H -3.687244631 2.792052340 1.258000999
H -3.887971132 2.124175733 -2.019678830
H 3.920862288 3.646841701 -0.501147998
H 4.420437562 0.578892937 0.058444165
H 3.854655922 -6.152949811 0.931376654

