12

O -2.797715981 -2.529381202 3.134260519
C -1.716885065 -1.663620507 1.393762477
C -1.090273444 0.979100648 0.693052578
C 1.658051125 1.694810361 0.818364172
C 0.439737361 1.252708349 -1.679411474
C 1.051105544 -1.240892704 -2.873722543
N 0.415154632 -3.200979757 -1.846656091
H -0.704361266 -4.380196014 -0.840568227
H -2.545106199 2.342262695 1.131249566
H 2.955669552 0.260278555 1.495657832
H 2.117838896 3.609287778 1.367763984
H 0.128222831 2.839352657 -2.923499478

