14

C 2.885308094 -1.835729468 -1.413247084
N 0.724770194 -0.412917612 -0.588906275
C 0.153970633 1.948110347 -1.398515667
C -2.375172653 2.567784519 -0.201136118
O -2.901231626 0.546511819 1.464838421
C -1.266309993 -1.478160461 0.931001222
O 1.386612433 3.267611727 -2.798384850
H 4.033259626 -0.603186123 -2.594766614
H 4.009835167 -2.470102024 0.197905102
H 2.315437541 -3.485651237 -2.520472051
H -3.816700282 2.740555753 -1.677840451
H -2.282285887 4.338356986 0.849085128
H -2.261667463 -2.989944063 -0.095914013
H -0.535291778 -2.248118523 2.707780533

