12

O 2.419250817 -0.097406972 0.537393059
C 0.850649236 -1.950575514 -0.886672159
C -1.803266373 -1.101624272 -0.353652796
C -1.598821401 1.758476123 0.225677840
O -3.473865412 3.091108982 0.424340307
C 0.960974451 2.441769909 0.401016702
H 3.975296246 0.171326104 -0.364619160
H 1.389409190 -3.801481335 -0.173958682
H -2.609200588 -2.027633292 1.302347882
H -3.055022338 -1.411643405 -1.955461930
H 1.348955634 -1.746127953 -2.875055404
H 1.711255854 3.632425094 1.881335419

