12

O 2.584946615 -1.810742432 1.336573222
C 1.071337462 -1.416285877 -0.793329647
C -1.655978700 -1.051311581 0.028584715
C -1.928988681 1.770286287 0.293085448
O -3.573250739 2.975095294 1.345516975
C -0.047449001 3.159544375 -1.085762516
H 4.303870921 -2.068063906 0.824424637
H 1.302243040 -2.905556718 -2.209825227
H -2.050019592 -2.021694846 1.800776187
H -2.986516912 -1.725305854 -1.395977406
H 1.656170337 0.373940555 -1.832791039
H 1.454296603 3.912045922 0.131769866

