18

C -2.984628037 1.834875539 0.892802884
C -1.298138347 -0.322581503 0.133678054
C -2.389280233 -2.784342711 0.038933347
C 1.418458684 -0.152505415 0.922762677
C 3.544135540 -0.959286756 -0.748520008
C 3.228607591 1.777982726 -0.061255831
H -2.140791623 3.655432226 0.435617493
H -4.827994304 1.686418938 -0.011318420
H -3.261517511 1.694855809 2.936064097
H -0.828180184 0.709427867 -2.712990545
H -1.659086846 -1.173965634 -2.133508032
H -1.180443275 -4.428243416 0.028378905
H -4.418418011 -3.002325076 0.061879233
H 1.581915212 -0.651122314 2.906439201
H 5.085275111 -2.014429152 0.081435347
H 3.069744211 -1.486725569 -2.669544835
H 2.571836659 3.033521355 -1.536133933
H 4.543713713 2.608097291 1.265590536

