14

C -1.975684002 -0.618968624 1.487286364
C -2.023025724 -0.897741022 -1.359215165
O -0.495920789 0.943856764 -2.562540038
C 1.555687477 1.784072841 -1.061316698
C 2.430859651 -0.237133039 0.763885106
O 0.493199111 -0.936349695 2.474981845
H -3.174550936 -2.053579571 2.360585271
H -3.947384178 -0.656347690 -2.064236663
H -2.719684258 1.242957589 2.020328461
H -1.386915111 -2.801728796 -1.883413060
H 3.087885072 2.290323799 -2.347320320
H 1.015808767 3.488376525 -0.008558834
H 4.018567686 0.458183185 1.883809468
H 3.077345824 -1.900176971 -0.294552480

