12

C -2.014161717 0.918383710 -0.560344822
C 0.235816599 1.589282499 1.187505768
C 2.472285168 0.510325000 -0.305498776
C 1.599186761 -1.759628912 -0.917610755
O -0.480395593 -0.564152393 2.742540268
C -1.029896751 -1.700159099 0.298942730
H -3.836170640 1.394631921 0.273602164
H -1.902944740 1.412851299 -2.554334337
H 0.417806390 3.366161643 2.201661364
H 4.256960964 1.412288161 -0.705347703
H 2.450923666 -3.284962871 -1.969549630
H -2.180593488 -3.400322166 0.372111829

