12

C -2.072195604 0.928756322 -0.361539832
C 0.390959296 1.998090372 0.615626813
C 2.454336776 0.692861262 -0.429039697
C 1.558184844 -1.708185351 -0.813979157
O -0.421682180 -1.480732586 2.693891953
C -1.110966549 -1.709695167 0.139014830
H -3.687509099 1.347777333 0.836258461
H -2.442510946 1.496545758 -2.318437179
H 0.558340730 3.762767139 1.644626568
H 4.404196424 1.284135401 -0.347109014
H 2.648584389 -3.382139297 -1.248425303
H -2.290917740 -3.335482374 -0.347210322

