16

C -3.644278779 0.414891109 0.145121877
C -2.216534340 -2.079373766 0.014933920
C 0.574402154 -1.846793890 0.749996621
C 2.077044641 -0.222762749 -1.015808124
C 3.232433360 1.883263091 -0.322082332
O 4.582391191 3.328924061 -1.975226537
H -2.837940559 1.805320260 -1.148016369
H -3.562276646 1.215571413 2.048614467
H -5.632250876 0.165914231 -0.345497342
H -3.117680119 -3.461321561 1.260806883
H -2.347394511 -2.856530060 -1.898536425
H 0.713699687 -1.089623472 2.671816777
H 1.404075732 -3.741688661 0.810118257
H 2.208601024 -0.801036309 -2.982877054
H 3.161104287 2.563311197 1.616852053
H 5.264548591 4.762579336 -1.110726365

