12

N -0.860634360 3.552069026 -4.068217821
C 0.417051822 2.025780207 -3.183046804
C -2.476030719 -0.213068529 2.747133096
C -0.099328673 -0.420398867 2.003201514
C 0.679011742 -1.600957680 -0.452935000
N 1.852020022 0.181461518 -2.227899002
H -2.972611193 0.673593350 4.523181763
H -4.019781627 -0.916754766 1.595999625
H 1.412865056 0.323021960 3.179558162
H -0.952594291 -2.437924240 -1.394603745
H 2.055592697 -3.106305461 -0.146376976
H 3.637772414 0.706954971 -1.828232037

