12

N -1.506182964 3.404795733 -2.834943586
C -0.895083386 1.860432138 -1.315875090
C -2.070905828 0.662258319 1.351201743
C 0.201444521 -0.781087699 1.854156830
C 0.956091324 -2.231232460 -0.383437355
N 1.491804813 0.394745022 -1.098362681
H -2.534402866 2.146275324 2.686915915
H -3.709162525 -0.482474367 0.861556262
H 1.488352737 -0.539365045 3.421136573
H -0.513456314 -3.157356034 -1.487157371
H 2.671305568 -3.345875471 -0.231699074
H 3.093522182 0.836356028 -2.075731319

