19

C 1.636496418 2.556257662 -0.349439670
C 0.906809005 -1.793596928 1.204626308
C 2.163585046 -3.476524484 -0.735813943
O 0.971846858 -2.346959099 3.414461739
C -0.426121506 0.613853249 0.286781416
C -2.109305252 1.646709254 2.389092867
C -2.016339665 0.060591876 -2.069889741
H 2.799152627 2.969237332 1.304147695
H 0.763572073 4.319679689 -0.972828874
H 2.878697417 1.908336185 -1.864296061
H 3.101511415 -2.407132457 -2.225860611
H 0.723115097 -4.651511666 -1.635692982
H 3.511382599 -4.704514024 0.212694722
H -3.019321405 3.391424277 1.765639035
H -3.578148909 0.291372544 2.896129384
H -1.018626141 2.041855219 4.089669935
H -3.447865162 -1.377417555 -1.688132560
H -0.867482633 -0.579674396 -3.658273108
H -2.996271433 1.775982791 -2.666762591

