19

C 2.977641114 1.738818284 0.142597392
C 1.229891474 -0.587554100 0.834120311
C 2.036667241 -2.829464080 -0.863559882
O 1.281464292 -1.166379820 3.266706832
C -1.322909104 0.368060181 0.198495906
C -2.696597436 1.681264162 2.203440806
C -2.622986726 -0.167941983 -2.207791938
H 4.851148891 1.141625863 0.766672112
H 2.439275565 3.391431269 1.248815853
H 3.036175211 2.218332452 -1.866260885
H 2.026733328 -2.411973010 -2.885719563
H 0.816027526 -4.446257665 -0.481245686
H 3.949176527 -3.342964613 -0.306879882
H -3.930759748 3.159940972 1.464208689
H -3.904782476 0.269531826 3.128998974
H -1.381661426 2.275737948 3.676706347
H -3.051312049 -2.196645861 -2.244743321
H -1.365468911 0.161426604 -3.809118776
H -4.379114580 0.878858274 -2.434466079

