13

O 3.690573195 1.642559793 0.174756675
C 1.651172087 0.422591006 -1.006037635
C 0.948326458 -2.121271489 0.225980669
C -2.573481892 -0.811656306 -1.082062754
N -1.689800055 -0.156243444 1.593059702
C -0.959491054 1.435210312 -0.580811085
H 3.181950593 2.111782588 1.853970957
H 2.149696787 0.207597564 -2.994469844
H 1.833315173 -2.466317281 2.053739593
H 0.803932352 -3.815196816 -0.908232517
H -4.566419944 -0.399577184 -1.421737018
H -2.896357663 0.584419404 2.892481117
H -1.532153886 3.403053557 -0.635696895

