14

O 1.738147583 -1.099436026 -3.705978318
C 0.594733415 0.405002021 -2.053521765
C -1.991000233 -0.286028134 -1.031053962
C -1.937425703 0.057458483 1.819264795
O 0.371319051 -1.008894259 2.661420146
C 2.300661413 -0.034269125 1.197972639
H 2.482964011 -0.949598432 -1.286361404
H 0.898237094 2.455421800 -2.256702283
H -2.355450092 -2.252675617 -1.525058474
H -3.412190969 0.914522753 -1.921492345
H -3.466342110 -0.927555382 2.780300095
H -2.013960877 2.068074886 2.335340666
H 2.769551579 1.937112689 1.612361799
H 4.000590589 -1.207547126 1.416427871

