12

C -3.565651073 0.402125386 -0.934693615
C -1.124558008 0.733715421 0.276268813
C 0.952438596 -0.986247894 -0.294749239
O 0.929225673 -1.497540415 -2.737272279
C 3.396231797 -0.213817938 0.820725611
C 5.380860591 0.402449549 1.713104554
H -5.115312100 0.928406156 0.323442443
H -3.731888353 -1.475582137 -1.765895055
H -3.625333122 1.735457010 -2.528665412
H 0.299722412 -2.606060411 1.010522258
H -0.838486448 2.399015328 1.461292728
H 7.159897936 0.946697684 2.477882443

