13

C -2.836164519 -2.012769008 0.353390161
C -0.420366005 -0.767181998 0.982799995
O 2.408842319 -1.984351704 -1.233690315
C 3.713328068 -0.066676397 -1.042081043
O 2.960297170 1.953824936 0.094053994
C 0.073530113 1.778559225 0.367495021
C -1.557638279 3.608686486 -0.080852707
H -3.831501864 -1.000025415 -1.128685264
H -4.002426628 -2.036453626 2.059949838
H -2.487377428 -3.976361277 -0.170152244
H 0.671613200 -1.638884351 2.486449781
H 5.608808994 0.032266960 -1.860582882
H -0.718924175 5.478320457 -0.344384898

