25

C     5.12628  -0.13023  -0.85068
N     3.74470   0.23181  -0.63587
C     2.81685  -0.70287  -0.35534
O     3.06572  -1.91471  -0.27674
C     1.52367  -0.17477   0.01033
C     0.53668   0.21854   0.55226
Br   -0.53491   0.79110   1.88704
C    -1.30379   0.40896  -1.47171
C    -1.53660   1.89235  -1.39288
C    -2.13062  -0.62781  -0.87411
O    -1.97458  -1.83560  -1.01153
O    -3.11795  -0.07923  -0.14820
C    -4.03634  -0.98196   0.47677
N    -0.24116  -0.04975  -2.07735
N     0.70508  -0.46471  -2.60898
H     5.56008  -0.59716   0.04814
H     5.68587   0.77306  -1.09163
H     5.20554  -0.84502  -1.67907
H     3.45680   1.21254  -0.66392
H    -0.63689   2.46550  -1.63905
H    -2.33331   2.08020  -2.08366
H    -1.86243   2.18108  -0.37058
H    -4.54772  -1.59075  -0.28858
H    -4.76717  -0.35007   0.99975
H    -3.52281  -1.63951   1.18554
25

C     5.12470  -0.13026  -0.84996
N     3.74305   0.23256  -0.63365
C     2.81394  -0.70146  -0.35350
O     3.06362  -1.91315  -0.27454
C     1.51565  -0.17524  -0.00542
C     0.51972   0.21998   0.52966
Br   -0.53094   0.78969   1.88525
C    -1.28742   0.40921  -1.45174
C    -1.53439   1.88955  -1.38934
C    -2.12897  -0.62799  -0.86987
O    -1.97489  -1.83419  -1.01281
O    -3.11708  -0.07932  -0.14753
C    -4.03714  -0.98188   0.47637
N    -0.24457  -0.05097  -2.08860
N     0.71233  -0.46280  -2.58935
H     5.55983  -0.59727   0.04818
H     5.68544   0.77303  -1.09147
H     5.20487  -0.84495  -1.67896
H     3.45651   1.21274  -0.66409
H    -0.63737   2.46585  -1.63905
H    -2.33256   2.07511  -2.08366
H    -1.86330   2.18192  -0.37066
H    -4.54785  -1.59045  -0.28895
H    -4.76730  -0.34993   0.99961
H    -3.52307  -1.63960   1.18532
25

C     5.12312  -0.13029  -0.84924
N     3.74141   0.23331  -0.63143
C     2.81103  -0.70004  -0.35167
O     3.06151  -1.91158  -0.27233
C     1.50763  -0.17572  -0.02117
C     0.50277   0.22143   0.50705
Br   -0.52697   0.78829   1.88345
C    -1.27105   0.40947  -1.43178
C    -1.53217   1.88676  -1.38581
C    -2.12733  -0.62816  -0.86563
O    -1.97520  -1.83279  -1.01409
O    -3.11621  -0.07940  -0.14686
C    -4.03794  -0.98179   0.47597
N    -0.24798  -0.05220  -2.09985
N     0.71959  -0.46088  -2.56973
H     5.55959  -0.59737   0.04822
H     5.68500   0.77300  -1.09131
H     5.20419  -0.84488  -1.67886
H     3.45622   1.21294  -0.66425
H    -0.63784   2.46619  -1.63905
H    -2.33180   2.07001  -2.08365
H    -1.86417   2.18276  -0.37075
H    -4.54798  -1.59016  -0.28932
H    -4.76742  -0.34979   0.99946
H    -3.52332  -1.63968   1.18510
25

C     5.12153  -0.13032  -0.84852
N     3.73976   0.23406  -0.62921
C     2.80812  -0.69863  -0.34983
O     3.05940  -1.91001  -0.27013
C     1.49961  -0.17619  -0.03692
C     0.48582   0.22287   0.48445
Br   -0.52300   0.78688   1.88165
C    -1.25468   0.40972  -1.41181
C    -1.52996   1.88396  -1.38227
C    -2.12568  -0.62834  -0.86140
O    -1.97550  -1.83138  -1.01538
O    -3.11534  -0.07949  -0.14618
C    -4.03875  -0.98171   0.47558
N    -0.25138  -0.05342  -2.11109
N     0.72684  -0.45897  -2.55010
H     5.55934  -0.59748   0.04827
H     5.68456   0.77298  -1.09115
H     5.20352  -0.84481  -1.67875
H     3.45593   1.21314  -0.66442
H    -0.63832   2.46654  -1.63904
H    -2.33104   2.06492  -2.08365
H    -1.86503   2.18361  -0.37083
H    -4.54810  -1.58986  -0.28968
H    -4.76755  -0.34965   0.99932
H    -3.52358  -1.63977   1.18488
25

C     5.11995  -0.13035  -0.84780
N     3.73812   0.23482  -0.62699
C     2.80521  -0.69721  -0.34800
O     3.05729  -1.90844  -0.26792
C     1.49159  -0.17667  -0.05267
C     0.46886   0.22431   0.46185
Br   -0.51903   0.78547   1.87985
C    -1.23831   0.40998  -1.39184
C    -1.52774   1.88116  -1.37874
C    -2.12404  -0.62852  -0.85716
O    -1.97581  -1.82997  -1.01666
O    -3.11448  -0.07958  -0.14551
C    -4.03955  -0.98163   0.47518
N    -0.25479  -0.05464  -2.12234
N     0.73409  -0.45705  -2.53047
H     5.55909  -0.59759   0.04831
H     5.68412   0.77295  -1.09099
H     5.20284  -0.84474  -1.67865
H     3.45564   1.21334  -0.66459
H    -0.63880   2.46688  -1.63904
H    -2.33029   2.05982  -2.08365
H    -1.86590   2.18445  -0.37092
H    -4.54823  -1.58956  -0.29005
H    -4.76767  -0.34951   0.99917
H    -3.52383  -1.63986   1.18466
25

C     5.11837  -0.13038  -0.84708
N     3.73648   0.23557  -0.62477
C     2.80230  -0.69579  -0.34616
O     3.05518  -1.90687  -0.26572
C     1.48357  -0.17714  -0.06842
C     0.45191   0.22576   0.43924
Br   -0.51506   0.78407   1.87805
C    -1.22194   0.41024  -1.37187
C    -1.52553   1.87837  -1.37520
C    -2.12239  -0.62869  -0.85292
O    -1.97612  -1.82857  -1.01794
O    -3.11361  -0.07966  -0.14484
C    -4.04035  -0.98154   0.47478
N    -0.25819  -0.05586  -2.13359
N     0.74135  -0.45514  -2.51085
H     5.55885  -0.59769   0.04835
H     5.68368   0.77292  -1.09083
H     5.20217  -0.84467  -1.67855
H     3.45534   1.21354  -0.66475
H    -0.63927   2.46723  -1.63904
H    -2.32953   2.05472  -2.08365
H    -1.86677   2.18529  -0.37100
H    -4.54836  -1.58927  -0.29042
H    -4.76780  -0.34937   0.99903
H    -3.52409  -1.63994   1.18444
25

C     5.11679  -0.13041  -0.84636
N     3.73483   0.23632  -0.62255
C     2.79938  -0.69438  -0.34433
O     3.05307  -1.90530  -0.26351
C     1.47555  -0.17762  -0.08417
C     0.43496   0.22720   0.41664
Br   -0.51108   0.78266   1.87625
C    -1.20557   0.41049  -1.35191
C    -1.52332   1.87557  -1.37167
C    -2.12075  -0.62887  -0.84868
O    -1.97643  -1.82716  -1.01922
O    -3.11274  -0.07975  -0.14417
C    -4.04116  -0.98146   0.47438
N    -0.26160  -0.05708  -2.14483
N     0.74860  -0.45322  -2.49122
H     5.55860  -0.59780   0.04840
H     5.68325   0.77290  -1.09067
H     5.20149  -0.84460  -1.67844
H     3.45505   1.21374  -0.66492
H    -0.63975   2.46757  -1.63903
H    -2.32877   2.04963  -2.08364
H    -1.86764   2.18613  -0.37108
H    -4.54848  -1.58897  -0.29078
H    -4.76792  -0.34923   0.99889
H    -3.52434  -1.64003   1.18422
25

C     5.11520  -0.13044  -0.84564
N     3.73319   0.23707  -0.62033
C     2.79647  -0.69296  -0.34249
O     3.05097  -1.90373  -0.26131
C     1.46753  -0.17809  -0.09992
C     0.41800   0.22865   0.39404
Br   -0.50711   0.78125   1.87445
C    -1.18920   0.41075  -1.33194
C    -1.52110   1.87278  -1.36813
C    -2.11910  -0.62905  -0.84444
O    -1.97673  -1.82575  -1.02050
O    -3.11187  -0.07984  -0.14349
C    -4.04196  -0.98138   0.47398
N    -0.26500  -0.05830  -2.15608
N     0.75585  -0.45131  -2.47160
H     5.55836  -0.59791   0.04844
H     5.68281   0.77287  -1.09051
H     5.20082  -0.84453  -1.67834
H     3.45476   1.21394  -0.66509
H    -0.64023   2.46792  -1.63903
H    -2.32802   2.04453  -2.08364
H    -1.86850   2.18698  -0.37117
H    -4.54861  -1.58867  -0.29115
H    -4.76805  -0.34909   0.99874
H    -3.52460  -1.64012   1.18400
25

C     5.11362  -0.13047  -0.84492
N     3.73154   0.23783  -0.61811
C     2.79356  -0.69154  -0.34066
O     3.04886  -1.90216  -0.25910
C     1.45950  -0.17857  -0.11567
C     0.40105   0.23009   0.37143
Br   -0.50314   0.77985   1.87265
C    -1.17283   0.41101  -1.31197
C    -1.51889   1.86998  -1.36459
C    -2.11746  -0.62922  -0.84020
O    -1.97704  -1.82435  -1.02179
O    -3.11100  -0.07992  -0.14282
C    -4.04276  -0.98129   0.47358
N    -0.26841  -0.05952  -2.16733
N     0.76310  -0.44939  -2.45197
H     5.55811  -0.59801   0.04848
H     5.68237   0.77284  -1.09035
H     5.20014  -0.84446  -1.67823
H     3.45447   1.21414  -0.66525
H    -0.64070   2.46826  -1.63903
H    -2.32726   2.03944  -2.08364
H    -1.86937   2.18782  -0.37125
H    -4.54874  -1.58838  -0.29152
H    -4.76817  -0.34895   0.99860
H    -3.52486  -1.64020   1.18379
25

C     5.11204  -0.13050  -0.84420
N     3.72990   0.23858  -0.61589
C     2.79065  -0.69013  -0.33882
O     3.04675  -1.90059  -0.25689
C     1.45148  -0.17904  -0.13142
C     0.38410   0.23153   0.34883
Br   -0.49917   0.77844   1.87085
C    -1.15646   0.41126  -1.29200
C    -1.51667   1.86719  -1.36106
C    -2.11581  -0.62940  -0.83596
O    -1.97735  -1.82294  -1.02307
O    -3.11014  -0.08001  -0.14215
C    -4.04357  -0.98121   0.47318
N    -0.27181  -0.06074  -2.17857
N     0.77036  -0.44748  -2.43234
H     5.55786  -0.59812   0.04853
H     5.68193   0.77282  -1.09019
H     5.19947  -0.84439  -1.67813
H     3.45418   1.21434  -0.66542
H    -0.64118   2.46861  -1.63902
H    -2.32651   2.03434  -2.08363
H    -1.87024   2.18866  -0.37134
H    -4.54886  -1.58808  -0.29188
H    -4.76830  -0.34881   0.99846
H    -3.52511  -1.64029   1.18357
25

C     5.11046  -0.13054  -0.84348
N     3.72826   0.23933  -0.61367
C     2.78774  -0.68871  -0.33699
O     3.04464  -1.89902  -0.25469
C     1.44346  -0.17952  -0.14717
C     0.36714   0.23298   0.32623
Br   -0.49520   0.77703   1.86905
C    -1.14009   0.41152  -1.27203
C    -1.51446   1.86439  -1.35752
C    -2.11416  -0.62958  -0.83173
O    -1.97765  -1.82154  -1.02435
O    -3.10927  -0.08009  -0.14148
C    -4.04437  -0.98113   0.47279
N    -0.27522  -0.06196  -2.18982
N     0.77761  -0.44556  -2.41272
H     5.55762  -0.59823   0.04857
H     5.68149   0.77279  -1.09003
H     5.19879  -0.84432  -1.67803
H     3.45389   1.21454  -0.66559
H    -0.64166   2.46895  -1.63902
H    -2.32575   2.02925  -2.08363
H    -1.87111   2.18951  -0.37142
H    -4.54899  -1.58778  -0.29225
H    -4.76842  -0.34867   0.99831
H    -3.52537  -1.64038   1.18335
25

C     5.10887  -0.13057  -0.84276
N     3.72661   0.24008  -0.61145
C     2.78483  -0.68730  -0.33515
O     3.04253  -1.89746  -0.25248
C     1.43544  -0.17999  -0.16292
C     0.35019   0.23442   0.30362
Br   -0.49123   0.77563   1.86726
C    -1.12371   0.41177  -1.25207
C    -1.51225   1.86160  -1.35399
C    -2.11252  -0.62975  -0.82749
O    -1.97796  -1.82013  -1.02563
O    -3.10840  -0.08018  -0.14080
C    -4.04517  -0.98104   0.47239
N    -0.27862  -0.06318  -2.20107
N     0.78486  -0.44365  -2.39309
H     5.55737  -0.59834   0.04861
H     5.68105   0.77276  -1.08987
H     5.19812  -0.84425  -1.67792
H     3.45360   1.21474  -0.66576
H    -0.64213   2.46930  -1.63902
H    -2.32499   2.02415  -2.08363
H    -1.87197   2.19035  -0.37151
H    -4.54912  -1.58749  -0.29262
H    -4.76855  -0.34853   0.99817
H    -3.52562  -1.64046   1.18313
25

C     5.10729  -0.13060  -0.84204
N     3.72497   0.24084  -0.60923
C     2.78192  -0.68588  -0.33332
O     3.04042  -1.89589  -0.25028
C     1.42742  -0.18047  -0.17866
C     0.33324   0.23587   0.28102
Br   -0.48726   0.77422   1.86546
C    -1.10734   0.41203  -1.23210
C    -1.51003   1.85880  -1.35045
C    -2.11087  -0.62993  -0.82325
O    -1.97827  -1.81872  -1.02691
O    -3.10753  -0.08027  -0.14013
C    -4.04598  -0.98096   0.47199
N    -0.28203  -0.06441  -2.21231
N     0.79212  -0.44173  -2.37346
H     5.55713  -0.59844   0.04866
H     5.68062   0.77274  -1.08971
H     5.19744  -0.84418  -1.67782
H     3.45331   1.21494  -0.66592
H    -0.64261   2.46964  -1.63901
H    -2.32424   2.01906  -2.08362
H    -1.87284   2.19119  -0.37159
H    -4.54924  -1.58719  -0.29299
H    -4.76867  -0.34839   0.99802
H    -3.52588  -1.64055   1.18291
25

C     5.10571  -0.13063  -0.84132
N     3.72333   0.24159  -0.60701
C     2.77901  -0.68446  -0.33149
O     3.03832  -1.89432  -0.24807
C     1.41940  -0.18094  -0.19441
C     0.31628   0.23731   0.25842
Br   -0.48329   0.77281   1.86366
C    -1.09097   0.41229  -1.21213
C    -1.50782   1.85600  -1.34692
C    -2.10923  -0.63010  -0.81901
O    -1.97857  -1.81732  -1.02820
O    -3.10666  -0.08035  -0.13946
C    -4.04678  -0.98088   0.47159
N    -0.28543  -0.06563  -2.22356
N     0.79937  -0.43982  -2.35384
H     5.55688  -0.59855   0.04870
H     5.68018   0.77271  -1.08954
H     5.19677  -0.84411  -1.67771
H     3.45302   1.21514  -0.66609
H    -0.64308   2.46999  -1.63901
H    -2.32348   2.01396  -2.08362
H    -1.87371   2.19203  -0.37168
H    -4.54937  -1.58689  -0.29335
H    -4.76880  -0.34825   0.99788
H    -3.52614  -1.64064   1.18269
25

C     5.10413  -0.13066  -0.84060
N     3.72168   0.24234  -0.60479
C     2.77610  -0.68305  -0.32965
O     3.03621  -1.89275  -0.24587
C     1.41138  -0.18142  -0.21016
C     0.29933   0.23875   0.23581
Br   -0.47932   0.77141   1.86186
C    -1.07460   0.41254  -1.19216
C    -1.50560   1.85321  -1.34338
C    -2.10758  -0.63028  -0.81477
O    -1.97888  -1.81591  -1.02948
O    -3.10579  -0.08044  -0.13879
C    -4.04759  -0.98079   0.47119
N    -0.28884  -0.06685  -2.23481
N     0.80662  -0.43790  -2.33421
H     5.55663  -0.59866   0.04874
H     5.67974   0.77268  -1.08938
H     5.19609  -0.84404  -1.67761
H     3.45272   1.21534  -0.66626
H    -0.64356   2.47033  -1.63900
H    -2.32273   2.00887  -2.08362
H    -1.87458   2.19288  -0.37176
H    -4.54950  -1.58660  -0.29372
H    -4.76892  -0.34811   0.99774
H    -3.52639  -1.64072   1.18247
25

C     5.10254  -0.13069  -0.83988
N     3.72004   0.24309  -0.60257
C     2.77319  -0.68163  -0.32782
O     3.03410  -1.89118  -0.24366
C     1.40336  -0.18189  -0.22591
C     0.28238   0.24020   0.21321
Br   -0.47534   0.77000   1.86006
C    -1.05823   0.41280  -1.17219
C    -1.50339   1.85041  -1.33985
C    -2.10594  -0.63046  -0.81053
O    -1.97919  -1.81450  -1.03076
O    -3.10493  -0.08052  -0.13811
C    -4.04839  -0.98071   0.47079
N    -0.29225  -0.06807  -2.24605
N     0.81387  -0.43599  -2.31458
H     5.55639  -0.59876   0.04879
H     5.67930   0.77266  -1.08922
H     5.19542  -0.84397  -1.67750
H     3.45243   1.21554  -0.66642
H    -0.64404   2.47068  -1.63900
H    -2.32197   2.00377  -2.08362
H    -1.87544   2.19372  -0.37184
H    -4.54962  -1.58630  -0.29409
H    -4.76905  -0.34797   0.99759
H    -3.52665  -1.64081   1.18225
25

C     5.10096  -0.13072  -0.83916
N     3.71839   0.24385  -0.60035
C     2.77028  -0.68022  -0.32598
O     3.03199  -1.88961  -0.24146
C     1.39533  -0.18237  -0.24166
C     0.26542   0.24164   0.19061
Br   -0.47137   0.76859   1.85826
C    -1.04186   0.41305  -1.15223
C    -1.50118   1.84762  -1.33631
C    -2.10429  -0.63063  -0.80629
O    -1.97949  -1.81310  -1.03204
O    -3.10406  -0.08061  -0.13744
C    -4.04919  -0.98063   0.47039
N    -0.29565  -0.06929  -2.25730
N     0.82113  -0.43407  -2.29496
H     5.55614  -0.59887   0.04883
H     5.67886   0.77263  -1.08906
H     5.19474  -0.84390  -1.67740
H     3.45214   1.21574  -0.66659
H    -0.64451   2.47102  -1.63900
H    -2.32121   1.99868  -2.08361
H    -1.87631   2.19456  -0.37193
H    -4.54975  -1.58600  -0.29445
H    -4.76917  -0.34783   0.99745
H    -3.52690  -1.64090   1.18203
25

C     5.09938  -0.13075  -0.83844
N     3.71675   0.24460  -0.59813
C     2.76737  -0.67880  -0.32415
O     3.02988  -1.88804  -0.23925
C     1.38731  -0.18284  -0.25741
C     0.24847   0.24309   0.16800
Br   -0.46740   0.76719   1.85646
C    -1.02549   0.41331  -1.13226
C    -1.49896   1.84482  -1.33277
C    -2.10265  -0.63081  -0.80206
O    -1.97980  -1.81169  -1.03332
O    -3.10319  -0.08070  -0.13677
C    -4.05000  -0.98054   0.47000
N    -0.29906  -0.07051  -2.26855
N     0.82838  -0.43216  -2.27533
H     5.55590  -0.59898   0.04887
H     5.67843   0.77260  -1.08890
H     5.19407  -0.84383  -1.67730
H     3.45185   1.21594  -0.66676
H    -0.64499   2.47137  -1.63899
H    -2.32046   1.99358  -2.08361
H    -1.87718   2.19541  -0.37201
H    -4.54988  -1.58571  -0.29482
H    -4.76930  -0.34769   0.99731
H    -3.52716  -1.64098   1.18181
25

C     5.09780  -0.13078  -0.83772
N     3.71511   0.24535  -0.59591
C     2.76446  -0.67738  -0.32231
O     3.02777  -1.88647  -0.23705
C     1.37929  -0.18332  -0.27316
C     0.23152   0.24453   0.14540
Br   -0.46343   0.76578   1.85466
C    -1.00912   0.41357  -1.11229
C    -1.49675   1.84203  -1.32924
C    -2.10100  -0.63099  -0.79782
O    -1.98011  -1.81029  -1.03461
O    -3.10232  -0.08078  -0.13610
C    -4.05080  -0.98046   0.46960
N    -0.30246  -0.07173  -2.27979
N     0.83563  -0.43024  -2.25571
H     5.55565  -0.59908   0.04892
H     5.67799   0.77258  -1.08874
H     5.19339  -0.84376  -1.67719
H     3.45156   1.21614  -0.66692
H    -0.64547   2.47171  -1.63899
H    -2.31970   1.98849  -2.08361
H    -1.87805   2.19625  -0.37210
H    -4.55000  -1.58541  -0.29519
H    -4.76942  -0.34755   0.99716
H    -3.52741  -1.64107   1.18159
25

C     5.09621  -0.13081  -0.83700
N     3.71346   0.24610  -0.59369
C     2.76154  -0.67597  -0.32048
O     3.02567  -1.88490  -0.23484
C     1.37127  -0.18379  -0.28891
C     0.21456   0.24597   0.12280
Br   -0.45946   0.76437   1.85286
C    -0.99275   0.41382  -1.09232
C    -1.49453   1.83923  -1.32570
C    -2.09936  -0.63116  -0.79358
O    -1.98041  -1.80888  -1.03589
O    -3.10145  -0.08087  -0.13542
C    -4.05160  -0.98038   0.46920
N    -0.30587  -0.07295  -2.29104
N     0.84289  -0.42833  -2.23608
H     5.55540  -0.59919   0.04896
H     5.67755   0.77255  -1.08858
H     5.19272  -0.84369  -1.67709
H     3.45127   1.21634  -0.66709
H    -0.64594   2.47206  -1.63899
H    -2.31894   1.98339  -2.08360
H    -1.87891   2.19709  -0.37218
H    -4.55013  -1.58511  -0.29555
H    -4.76955  -0.34740   0.99702
H    -3.52767  -1.64115   1.18138
25

C     5.09463  -0.13084  -0.83628
N     3.71182   0.24686  -0.59147
C     2.75863  -0.67455  -0.31864
O     3.02356  -1.88333  -0.23264
C     1.36325  -0.18427  -0.30466
C     0.19761   0.24742   0.10019
Br   -0.45549   0.76297   1.85106
C    -0.97638   0.41408  -1.07235
C    -1.49232   1.83644  -1.32217
C    -2.09771  -0.63134  -0.78934
O    -1.98072  -1.80747  -1.03717
O    -3.10058  -0.08095  -0.13475
C    -4.05241  -0.98029   0.46880
N    -0.30927  -0.07417  -2.30229
N     0.85014  -0.42641  -2.21645
H     5.55516  -0.59930   0.04900
H     5.67711   0.77252  -1.08842
H     5.19204  -0.84361  -1.67698
H     3.45098   1.21654  -0.66726
H    -0.64642   2.47240  -1.63898
H    -2.31819   1.97829  -2.08360
H    -1.87978   2.19793  -0.37227
H    -4.55026  -1.58482  -0.29592
H    -4.76967  -0.34726   0.99687
H    -3.52793  -1.64124   1.18116
25

C     5.09621  -0.13081  -0.83700
N     3.71346   0.24610  -0.59369
C     2.76154  -0.67597  -0.32048
O     3.02567  -1.88490  -0.23484
C     1.37127  -0.18379  -0.28891
C     0.21456   0.24597   0.12280
Br   -0.45946   0.76437   1.85286
C    -0.99275   0.41382  -1.09232
C    -1.49453   1.83923  -1.32570
C    -2.09936  -0.63116  -0.79358
O    -1.98041  -1.80888  -1.03589
O    -3.10145  -0.08087  -0.13542
C    -4.05160  -0.98038   0.46920
N    -0.30587  -0.07295  -2.29104
N     0.84289  -0.42833  -2.23608
H     5.55540  -0.59919   0.04896
H     5.67755   0.77255  -1.08858
H     5.19272  -0.84369  -1.67709
H     3.45127   1.21634  -0.66709
H    -0.64594   2.47206  -1.63899
H    -2.31894   1.98339  -2.08360
H    -1.87891   2.19709  -0.37218
H    -4.55013  -1.58511  -0.29555
H    -4.76955  -0.34740   0.99702
H    -3.52767  -1.64115   1.18138
25

C     5.09780  -0.13078  -0.83772
N     3.71511   0.24535  -0.59591
C     2.76446  -0.67738  -0.32231
O     3.02777  -1.88647  -0.23705
C     1.37929  -0.18332  -0.27316
C     0.23152   0.24453   0.14540
Br   -0.46343   0.76578   1.85466
C    -1.00912   0.41357  -1.11229
C    -1.49675   1.84203  -1.32924
C    -2.10100  -0.63099  -0.79782
O    -1.98011  -1.81029  -1.03461
O    -3.10232  -0.08078  -0.13610
C    -4.05080  -0.98046   0.46960
N    -0.30246  -0.07173  -2.27979
N     0.83563  -0.43024  -2.25571
H     5.55565  -0.59908   0.04892
H     5.67799   0.77258  -1.08874
H     5.19339  -0.84376  -1.67719
H     3.45156   1.21614  -0.66692
H    -0.64547   2.47171  -1.63899
H    -2.31970   1.98849  -2.08361
H    -1.87805   2.19625  -0.37210
H    -4.55000  -1.58541  -0.29519
H    -4.76942  -0.34755   0.99716
H    -3.52741  -1.64107   1.18159
25

C     5.09938  -0.13075  -0.83844
N     3.71675   0.24460  -0.59813
C     2.76737  -0.67880  -0.32415
O     3.02988  -1.88804  -0.23925
C     1.38731  -0.18284  -0.25741
C     0.24847   0.24309   0.16800
Br   -0.46740   0.76719   1.85646
C    -1.02549   0.41331  -1.13226
C    -1.49896   1.84482  -1.33277
C    -2.10265  -0.63081  -0.80206
O    -1.97980  -1.81169  -1.03332
O    -3.10319  -0.08070  -0.13677
C    -4.05000  -0.98054   0.47000
N    -0.29906  -0.07051  -2.26855
N     0.82838  -0.43216  -2.27533
H     5.55590  -0.59898   0.04887
H     5.67843   0.77260  -1.08890
H     5.19407  -0.84383  -1.67730
H     3.45185   1.21594  -0.66676
H    -0.64499   2.47137  -1.63899
H    -2.32046   1.99358  -2.08361
H    -1.87718   2.19541  -0.37201
H    -4.54988  -1.58571  -0.29482
H    -4.76930  -0.34769   0.99731
H    -3.52716  -1.64098   1.18181
25

C     5.10096  -0.13072  -0.83916
N     3.71839   0.24385  -0.60035
C     2.77028  -0.68022  -0.32598
O     3.03199  -1.88961  -0.24146
C     1.39533  -0.18237  -0.24166
C     0.26542   0.24164   0.19061
Br   -0.47137   0.76859   1.85826
C    -1.04186   0.41305  -1.15223
C    -1.50118   1.84762  -1.33631
C    -2.10429  -0.63063  -0.80629
O    -1.97949  -1.81310  -1.03204
O    -3.10406  -0.08061  -0.13744
C    -4.04919  -0.98063   0.47039
N    -0.29565  -0.06929  -2.25730
N     0.82113  -0.43407  -2.29496
H     5.55614  -0.59887   0.04883
H     5.67886   0.77263  -1.08906
H     5.19474  -0.84390  -1.67740
H     3.45214   1.21574  -0.66659
H    -0.64451   2.47102  -1.63900
H    -2.32121   1.99868  -2.08361
H    -1.87631   2.19456  -0.37193
H    -4.54975  -1.58600  -0.29445
H    -4.76917  -0.34783   0.99745
H    -3.52690  -1.64090   1.18203
25

C     5.10254  -0.13069  -0.83988
N     3.72004   0.24309  -0.60257
C     2.77319  -0.68163  -0.32782
O     3.03410  -1.89118  -0.24366
C     1.40336  -0.18189  -0.22591
C     0.28238   0.24020   0.21321
Br   -0.47534   0.77000   1.86006
C    -1.05823   0.41280  -1.17219
C    -1.50339   1.85041  -1.33985
C    -2.10594  -0.63046  -0.81053
O    -1.97919  -1.81450  -1.03076
O    -3.10493  -0.08052  -0.13811
C    -4.04839  -0.98071   0.47079
N    -0.29225  -0.06807  -2.24605
N     0.81387  -0.43599  -2.31458
H     5.55639  -0.59876   0.04879
H     5.67930   0.77266  -1.08922
H     5.19542  -0.84397  -1.67750
H     3.45243   1.21554  -0.66642
H    -0.64404   2.47068  -1.63900
H    -2.32197   2.00377  -2.08362
H    -1.87544   2.19372  -0.37184
H    -4.54962  -1.58630  -0.29409
H    -4.76905  -0.34797   0.99759
H    -3.52665  -1.64081   1.18225
25

C     5.10413  -0.13066  -0.84060
N     3.72168   0.24234  -0.60479
C     2.77610  -0.68305  -0.32965
O     3.03621  -1.89275  -0.24587
C     1.41138  -0.18142  -0.21016
C     0.29933   0.23875   0.23581
Br   -0.47932   0.77141   1.86186
C    -1.07460   0.41254  -1.19216
C    -1.50560   1.85321  -1.34338
C    -2.10758  -0.63028  -0.81477
O    -1.97888  -1.81591  -1.02948
O    -3.10579  -0.08044  -0.13879
C    -4.04759  -0.98079   0.47119
N    -0.28884  -0.06685  -2.23481
N     0.80662  -0.43790  -2.33421
H     5.55663  -0.59866   0.04874
H     5.67974   0.77268  -1.08938
H     5.19609  -0.84404  -1.67761
H     3.45272   1.21534  -0.66626
H    -0.64356   2.47033  -1.63900
H    -2.32273   2.00887  -2.08362
H    -1.87458   2.19288  -0.37176
H    -4.54950  -1.58660  -0.29372
H    -4.76892  -0.34811   0.99774
H    -3.52639  -1.64072   1.18247
25

C     5.10571  -0.13063  -0.84132
N     3.72333   0.24159  -0.60701
C     2.77901  -0.68446  -0.33149
O     3.03832  -1.89432  -0.24807
C     1.41940  -0.18094  -0.19441
C     0.31628   0.23731   0.25842
Br   -0.48329   0.77281   1.86366
C    -1.09097   0.41229  -1.21213
C    -1.50782   1.85600  -1.34692
C    -2.10923  -0.63010  -0.81901
O    -1.97857  -1.81732  -1.02820
O    -3.10666  -0.08035  -0.13946
C    -4.04678  -0.98088   0.47159
N    -0.28543  -0.06563  -2.22356
N     0.79937  -0.43982  -2.35384
H     5.55688  -0.59855   0.04870
H     5.68018   0.77271  -1.08954
H     5.19677  -0.84411  -1.67771
H     3.45302   1.21514  -0.66609
H    -0.64308   2.46999  -1.63901
H    -2.32348   2.01396  -2.08362
H    -1.87371   2.19203  -0.37168
H    -4.54937  -1.58689  -0.29335
H    -4.76880  -0.34825   0.99788
H    -3.52614  -1.64064   1.18269
25

C     5.10729  -0.13060  -0.84204
N     3.72497   0.24084  -0.60923
C     2.78192  -0.68588  -0.33332
O     3.04042  -1.89589  -0.25028
C     1.42742  -0.18047  -0.17866
C     0.33324   0.23587   0.28102
Br   -0.48726   0.77422   1.86546
C    -1.10734   0.41203  -1.23210
C    -1.51003   1.85880  -1.35045
C    -2.11087  -0.62993  -0.82325
O    -1.97827  -1.81872  -1.02691
O    -3.10753  -0.08027  -0.14013
C    -4.04598  -0.98096   0.47199
N    -0.28203  -0.06441  -2.21231
N     0.79212  -0.44173  -2.37346
H     5.55713  -0.59844   0.04866
H     5.68062   0.77274  -1.08971
H     5.19744  -0.84418  -1.67782
H     3.45331   1.21494  -0.66592
H    -0.64261   2.46964  -1.63901
H    -2.32424   2.01906  -2.08362
H    -1.87284   2.19119  -0.37159
H    -4.54924  -1.58719  -0.29299
H    -4.76867  -0.34839   0.99802
H    -3.52588  -1.64055   1.18291
25

C     5.10887  -0.13057  -0.84276
N     3.72661   0.24008  -0.61145
C     2.78483  -0.68730  -0.33515
O     3.04253  -1.89746  -0.25248
C     1.43544  -0.17999  -0.16292
C     0.35019   0.23442   0.30362
Br   -0.49123   0.77563   1.86726
C    -1.12371   0.41177  -1.25207
C    -1.51225   1.86160  -1.35399
C    -2.11252  -0.62975  -0.82749
O    -1.97796  -1.82013  -1.02563
O    -3.10840  -0.08018  -0.14080
C    -4.04517  -0.98104   0.47239
N    -0.27862  -0.06318  -2.20107
N     0.78486  -0.44365  -2.39309
H     5.55737  -0.59834   0.04861
H     5.68105   0.77276  -1.08987
H     5.19812  -0.84425  -1.67792
H     3.45360   1.21474  -0.66576
H    -0.64213   2.46930  -1.63902
H    -2.32499   2.02415  -2.08363
H    -1.87197   2.19035  -0.37151
H    -4.54912  -1.58749  -0.29262
H    -4.76855  -0.34853   0.99817
H    -3.52562  -1.64046   1.18313
25

C     5.11046  -0.13054  -0.84348
N     3.72826   0.23933  -0.61367
C     2.78774  -0.68871  -0.33699
O     3.04464  -1.89902  -0.25469
C     1.44346  -0.17952  -0.14717
C     0.36714   0.23298   0.32623
Br   -0.49520   0.77703   1.86905
C    -1.14009   0.41152  -1.27203
C    -1.51446   1.86439  -1.35752
C    -2.11416  -0.62958  -0.83173
O    -1.97765  -1.82154  -1.02435
O    -3.10927  -0.08009  -0.14148
C    -4.04437  -0.98113   0.47279
N    -0.27522  -0.06196  -2.18982
N     0.77761  -0.44556  -2.41272
H     5.55762  -0.59823   0.04857
H     5.68149   0.77279  -1.09003
H     5.19879  -0.84432  -1.67803
H     3.45389   1.21454  -0.66559
H    -0.64166   2.46895  -1.63902
H    -2.32575   2.02925  -2.08363
H    -1.87111   2.18951  -0.37142
H    -4.54899  -1.58778  -0.29225
H    -4.76842  -0.34867   0.99831
H    -3.52537  -1.64038   1.18335
25

C     5.11204  -0.13050  -0.84420
N     3.72990   0.23858  -0.61589
C     2.79065  -0.69013  -0.33882
O     3.04675  -1.90059  -0.25689
C     1.45148  -0.17904  -0.13142
C     0.38410   0.23153   0.34883
Br   -0.49917   0.77844   1.87085
C    -1.15646   0.41126  -1.29200
C    -1.51667   1.86719  -1.36106
C    -2.11581  -0.62940  -0.83596
O    -1.97735  -1.82294  -1.02307
O    -3.11014  -0.08001  -0.14215
C    -4.04357  -0.98121   0.47318
N    -0.27181  -0.06074  -2.17857
N     0.77036  -0.44748  -2.43234
H     5.55786  -0.59812   0.04853
H     5.68193   0.77282  -1.09019
H     5.19947  -0.84439  -1.67813
H     3.45418   1.21434  -0.66542
H    -0.64118   2.46861  -1.63902
H    -2.32651   2.03434  -2.08363
H    -1.87024   2.18866  -0.37134
H    -4.54886  -1.58808  -0.29188
H    -4.76830  -0.34881   0.99846
H    -3.52511  -1.64029   1.18357
25

C     5.11362  -0.13047  -0.84492
N     3.73154   0.23783  -0.61811
C     2.79356  -0.69154  -0.34066
O     3.04886  -1.90216  -0.25910
C     1.45950  -0.17857  -0.11567
C     0.40105   0.23009   0.37143
Br   -0.50314   0.77985   1.87265
C    -1.17283   0.41101  -1.31197
C    -1.51889   1.86998  -1.36459
C    -2.11746  -0.62922  -0.84020
O    -1.97704  -1.82435  -1.02179
O    -3.11100  -0.07992  -0.14282
C    -4.04276  -0.98129   0.47358
N    -0.26841  -0.05952  -2.16733
N     0.76310  -0.44939  -2.45197
H     5.55811  -0.59801   0.04848
H     5.68237   0.77284  -1.09035
H     5.20014  -0.84446  -1.67823
H     3.45447   1.21414  -0.66525
H    -0.64070   2.46826  -1.63903
H    -2.32726   2.03944  -2.08364
H    -1.86937   2.18782  -0.37125
H    -4.54874  -1.58838  -0.29152
H    -4.76817  -0.34895   0.99860
H    -3.52486  -1.64020   1.18379
25

C     5.11520  -0.13044  -0.84564
N     3.73319   0.23707  -0.62033
C     2.79647  -0.69296  -0.34249
O     3.05097  -1.90373  -0.26131
C     1.46753  -0.17809  -0.09992
C     0.41800   0.22865   0.39404
Br   -0.50711   0.78125   1.87445
C    -1.18920   0.41075  -1.33194
C    -1.52110   1.87278  -1.36813
C    -2.11910  -0.62905  -0.84444
O    -1.97673  -1.82575  -1.02050
O    -3.11187  -0.07984  -0.14349
C    -4.04196  -0.98138   0.47398
N    -0.26500  -0.05830  -2.15608
N     0.75585  -0.45131  -2.47160
H     5.55836  -0.59791   0.04844
H     5.68281   0.77287  -1.09051
H     5.20082  -0.84453  -1.67834
H     3.45476   1.21394  -0.66509
H    -0.64023   2.46792  -1.63903
H    -2.32802   2.04453  -2.08364
H    -1.86850   2.18698  -0.37117
H    -4.54861  -1.58867  -0.29115
H    -4.76805  -0.34909   0.99874
H    -3.52460  -1.64012   1.18400
25

C     5.11679  -0.13041  -0.84636
N     3.73483   0.23632  -0.62255
C     2.79938  -0.69438  -0.34433
O     3.05307  -1.90530  -0.26351
C     1.47555  -0.17762  -0.08417
C     0.43496   0.22720   0.41664
Br   -0.51108   0.78266   1.87625
C    -1.20557   0.41049  -1.35191
C    -1.52332   1.87557  -1.37167
C    -2.12075  -0.62887  -0.84868
O    -1.97643  -1.82716  -1.01922
O    -3.11274  -0.07975  -0.14417
C    -4.04116  -0.98146   0.47438
N    -0.26160  -0.05708  -2.14483
N     0.74860  -0.45322  -2.49122
H     5.55860  -0.59780   0.04840
H     5.68325   0.77290  -1.09067
H     5.20149  -0.84460  -1.67844
H     3.45505   1.21374  -0.66492
H    -0.63975   2.46757  -1.63903
H    -2.32877   2.04963  -2.08364
H    -1.86764   2.18613  -0.37108
H    -4.54848  -1.58897  -0.29078
H    -4.76792  -0.34923   0.99889
H    -3.52434  -1.64003   1.18422
25

C     5.11837  -0.13038  -0.84708
N     3.73648   0.23557  -0.62477
C     2.80230  -0.69579  -0.34616
O     3.05518  -1.90687  -0.26572
C     1.48357  -0.17714  -0.06842
C     0.45191   0.22576   0.43924
Br   -0.51506   0.78407   1.87805
C    -1.22194   0.41024  -1.37187
C    -1.52553   1.87837  -1.37520
C    -2.12239  -0.62869  -0.85292
O    -1.97612  -1.82857  -1.01794
O    -3.11361  -0.07966  -0.14484
C    -4.04035  -0.98154   0.47478
N    -0.25819  -0.05586  -2.13359
N     0.74135  -0.45514  -2.51085
H     5.55885  -0.59769   0.04835
H     5.68368   0.77292  -1.09083
H     5.20217  -0.84467  -1.67855
H     3.45534   1.21354  -0.66475
H    -0.63927   2.46723  -1.63904
H    -2.32953   2.05472  -2.08365
H    -1.86677   2.18529  -0.37100
H    -4.54836  -1.58927  -0.29042
H    -4.76780  -0.34937   0.99903
H    -3.52409  -1.63994   1.18444
25

C     5.11995  -0.13035  -0.84780
N     3.73812   0.23482  -0.62699
C     2.80521  -0.69721  -0.34800
O     3.05729  -1.90844  -0.26792
C     1.49159  -0.17667  -0.05267
C     0.46886   0.22431   0.46185
Br   -0.51903   0.78547   1.87985
C    -1.23831   0.40998  -1.39184
C    -1.52774   1.88116  -1.37874
C    -2.12404  -0.62852  -0.85716
O    -1.97581  -1.82997  -1.01666
O    -3.11448  -0.07958  -0.14551
C    -4.03955  -0.98163   0.47518
N    -0.25479  -0.05464  -2.12234
N     0.73409  -0.45705  -2.53047
H     5.55909  -0.59759   0.04831
H     5.68412   0.77295  -1.09099
H     5.20284  -0.84474  -1.67865
H     3.45564   1.21334  -0.66459
H    -0.63880   2.46688  -1.63904
H    -2.33029   2.05982  -2.08365
H    -1.86590   2.18445  -0.37092
H    -4.54823  -1.58956  -0.29005
H    -4.76767  -0.34951   0.99917
H    -3.52383  -1.63986   1.18466
25

C     5.12153  -0.13032  -0.84852
N     3.73976   0.23406  -0.62921
C     2.80812  -0.69863  -0.34983
O     3.05940  -1.91001  -0.27013
C     1.49961  -0.17619  -0.03692
C     0.48582   0.22287   0.48445
Br   -0.52300   0.78688   1.88165
C    -1.25468   0.40972  -1.41181
C    -1.52996   1.88396  -1.38227
C    -2.12568  -0.62834  -0.86140
O    -1.97550  -1.83138  -1.01538
O    -3.11534  -0.07949  -0.14618
C    -4.03875  -0.98171   0.47558
N    -0.25138  -0.05342  -2.11109
N     0.72684  -0.45897  -2.55010
H     5.55934  -0.59748   0.04827
H     5.68456   0.77298  -1.09115
H     5.20352  -0.84481  -1.67875
H     3.45593   1.21314  -0.66442
H    -0.63832   2.46654  -1.63904
H    -2.33104   2.06492  -2.08365
H    -1.86503   2.18361  -0.37083
H    -4.54810  -1.58986  -0.28968
H    -4.76755  -0.34965   0.99932
H    -3.52358  -1.63977   1.18488
25

C     5.12312  -0.13029  -0.84924
N     3.74141   0.23331  -0.63143
C     2.81103  -0.70004  -0.35167
O     3.06151  -1.91158  -0.27233
C     1.50763  -0.17572  -0.02117
C     0.50277   0.22143   0.50705
Br   -0.52697   0.78829   1.88345
C    -1.27105   0.40947  -1.43178
C    -1.53217   1.88676  -1.38581
C    -2.12733  -0.62816  -0.86563
O    -1.97520  -1.83279  -1.01409
O    -3.11621  -0.07940  -0.14686
C    -4.03794  -0.98179   0.47597
N    -0.24798  -0.05220  -2.09985
N     0.71959  -0.46088  -2.56973
H     5.55959  -0.59737   0.04822
H     5.68500   0.77300  -1.09131
H     5.20419  -0.84488  -1.67886
H     3.45622   1.21294  -0.66425
H    -0.63784   2.46619  -1.63905
H    -2.33180   2.07001  -2.08365
H    -1.86417   2.18276  -0.37075
H    -4.54798  -1.59016  -0.28932
H    -4.76742  -0.34979   0.99946
H    -3.52332  -1.63968   1.18510
25

C     5.12470  -0.13026  -0.84996
N     3.74305   0.23256  -0.63365
C     2.81394  -0.70146  -0.35350
O     3.06362  -1.91315  -0.27454
C     1.51565  -0.17524  -0.00542
C     0.51972   0.21998   0.52966
Br   -0.53094   0.78969   1.88525
C    -1.28742   0.40921  -1.45174
C    -1.53439   1.88955  -1.38934
C    -2.12897  -0.62799  -0.86987
O    -1.97489  -1.83419  -1.01281
O    -3.11708  -0.07932  -0.14753
C    -4.03714  -0.98188   0.47637
N    -0.24457  -0.05097  -2.08860
N     0.71233  -0.46280  -2.58935
H     5.55983  -0.59727   0.04818
H     5.68544   0.77303  -1.09147
H     5.20487  -0.84495  -1.67896
H     3.45651   1.21274  -0.66409
H    -0.63737   2.46585  -1.63905
H    -2.33256   2.07511  -2.08366
H    -1.86330   2.18192  -0.37066
H    -4.54785  -1.59045  -0.28895
H    -4.76730  -0.34993   0.99961
H    -3.52307  -1.63960   1.18532
