11

C -2.628915269 -0.681171378 -1.288175654
C -1.256764835 1.236661078 0.132827791
O 2.738355526 2.250293579 2.132492002
C 1.491032274 0.916067756 0.230556149
C 2.492598061 -1.678864814 0.095081211
N 3.133216918 -3.741903013 -0.073300738
H -3.178508532 -1.916352895 0.312218793
H -4.401780957 0.004129411 -2.076560701
H -1.579338193 -1.877674585 -2.613328487
H 1.500018961 3.396788000 2.817753239
H 1.846217146 1.786683025 -1.668434641

