11

C -2.554350494 -0.725619588 -0.454831888
C -0.885437563 1.507715192 -0.232592669
O 1.317897739 1.215676406 2.347831680
C 1.888965982 1.068508069 -0.286710344
C 2.874978020 -1.409370348 -0.976807163
N 3.644050235 -3.324148515 -1.637866715
H -4.270871937 -0.505801260 0.656801772
H -3.124299754 -0.740679874 -2.450682292
H -1.658707805 -2.544006719 -0.054661821
H -0.222755851 2.634704842 2.055559116
H 3.111772457 2.572015124 -0.977314894

