13

N 3.167259201 -1.873569779 -2.776156436
C 2.272297494 -0.242208257 -1.308001962
O 3.304451333 1.459007274 0.264473615
C 0.707095038 2.479686224 1.103891906
C -0.356044849 0.413340438 -0.544113813
C -2.989581727 -0.272811162 -0.871525399
N -1.661199466 -1.241591241 1.392487554
H 5.089827990 -1.858331405 -2.751711544
H -0.973994967 0.381152393 2.758505185
H 0.581350092 4.392324900 0.337493710
H -3.493794823 -1.722988993 -2.225354750
H -4.429401648 1.131038899 -0.491226785
H -1.250989926 -3.111524147 1.438372674

