10

C -2.338950515 0.170684599 0.170568910
C -0.625867315 2.201988759 0.056790012
N 1.887221727 2.115761709 -0.126121248
C 2.842645184 -0.110057990 -0.210243672
N 3.168919797 -2.366679222 -0.247012943
C -1.460932281 -2.281485701 0.092213098
H -4.323744452 0.719746131 0.321360078
H -1.358907121 4.121216419 0.122290168
H 5.186662376 -0.895638909 -0.386469307
H -2.989920215 -3.674349046 0.204438490

