14

C -1.082523715 2.234109284 -0.908337283
C -0.223584515 -0.218564949 0.343524638
C 0.227746259 -2.289469964 -1.597642364
O -2.126218622 -1.154052796 1.976590031
C 4.473861329 -0.500714760 1.609704750
C 2.182850520 0.292562674 1.851157721
H -1.437374785 3.699237419 0.504452676
H 0.353900123 2.938753064 -2.206583382
H -2.827863444 1.896132750 -1.953334230
H 0.761896623 -4.039398799 -0.653805460
H 1.723994725 -1.749331719 -2.908349279
H -1.507107229 -2.618815590 -2.659232656
H -2.671462623 0.174967739 3.084607399
H 2.114096482 1.595519029 3.463590556

