15

C -1.860321816 -1.307695751 -2.068134941
C -0.582158044 0.344149684 -0.133054577
C -1.805475992 0.524769027 2.431246421
C 2.206596800 0.507790537 -0.237312997
C 4.305298363 -0.738160699 0.240672930
C 1.191825303 2.791489447 -1.148090710
C -0.884479547 3.912267757 -1.544709245
H -0.884775460 -1.223042691 -3.877082493
H -3.822030254 -0.742973378 -2.337264558
H -1.829741758 -3.263163671 -1.398286292
H -1.761818368 -1.336642443 3.328379933
H -0.800486305 1.855256386 3.635249762
H -3.768598777 1.122674064 2.262850205
H 4.233606236 -2.628989649 1.015455445
H 6.134794362 0.096045047 -0.123125465

