15

C -2.075515248 -1.424639297 -1.986807554
C -0.646948381 0.202475348 -0.078471123
C -2.039492665 0.383192390 2.442760994
C 2.026946376 -0.559054404 0.211311216
C 4.390298717 -0.620650367 0.212296803
C 0.217260168 2.698762741 -1.093691561
C 2.383598280 3.501608841 -1.419187816
H -1.050723800 -1.544848575 -3.767037656
H -3.916586008 -0.571817973 -2.347086788
H -2.366865625 -3.328339380 -1.244511359
H -2.335436059 -1.493840917 3.247838540
H -0.982214236 1.533046951 3.781636413
H -3.876411942 1.263227528 2.130410034
H 5.901294284 -1.883185442 0.699119052
H 4.412029962 1.802314707 -0.761444619

