11

N -3.380620070 -0.710198006 -0.369660136
C -2.115367663 1.355828398 -0.545199385
O -1.790913952 3.463565762 -1.039140100
C 1.151449245 -0.410246956 1.008994112
C 2.885889431 -0.140852419 -1.148332198
O 3.537323209 -1.856692843 -2.503849604
H -1.282336004 -1.459630959 0.476471614
H -5.199345613 -0.763593333 -0.992116288
H 1.333562133 -2.315535315 1.822977162
H 1.379453432 1.003613797 2.484016324
H 3.521718267 1.816728669 -1.552579331

