12

O -0.323893181 0.465282111 -3.888935290
C -0.212953691 0.157603499 -1.323088987
C -2.779468370 -0.564343520 -0.333705716
C -2.857666806 -0.942026470 2.393585256
N -2.958983754 -1.246860912 4.535310649
C 1.810881252 0.447676969 0.050767152
C 3.820221049 0.735866723 1.435601296
H 1.319547357 0.930044510 -4.503045635
H 4.293845640 2.550654341 2.265901356
H -4.136137054 0.908063405 -0.843161876
H -3.399326469 -2.299625825 -1.267800495
H 5.081984304 -0.832268550 1.830034873

