12

O 0.163487256 1.340318905 -3.390209693
C -0.017398897 1.065919371 -0.742010298
C -2.210933286 -0.776822719 -0.310942869
C -2.864868080 -1.035263063 2.353697276
N -3.388455555 -1.213572121 4.448335343
C 2.345332101 0.141553715 0.376277920
C 4.289291608 -0.597658428 1.262372502
H 1.729828536 2.163166471 -3.786763429
H -0.490938469 2.878037203 0.147386184
H -3.853550357 -0.076084758 -1.341648006
H -1.711166848 -2.622588013 -1.080671726
H 6.009371992 -1.267006583 2.064176796

