13

N 2.901320348 -1.504583349 -2.817209073
C 2.051790794 -0.057750616 -1.144356234
O 3.223296780 1.910574396 0.147479801
C 1.002937351 2.376177534 1.691665196
C -0.292977753 0.288672597 0.257273494
C -3.196375496 -1.387252729 -1.616110468
N -2.238626505 -1.304221224 0.733885213
H 4.759879541 -1.181769485 -3.165163532
H 1.388507262 2.013950673 3.691230102
H 0.310844414 4.302989231 1.433825955
H -3.425982700 -3.161566174 -2.623705105
H -3.908387771 0.340727560 -2.422486066
H -2.377599024 -2.643324034 2.089885141

