10

C -3.322152416 -0.488952216 0.631324352
C -0.756554934 -1.769072554 0.957453589
C 0.541910336 -2.174798151 -1.536881395
O 2.666077187 -1.543736225 -2.016267175
H -0.627771800 -3.138438987 -2.995533892
H 0.497428526 -0.686654135 2.183339128
H -1.018052250 -3.639701409 1.808866369
H -4.292725278 -0.328860080 2.441029571
H -3.112506673 1.409034997 -0.147889626
H -4.541024123 -1.566480005 -0.639195081

