15

C -2.450398833 1.013753633 0.879040972
O -1.303697260 2.394331755 -1.210340802
C 0.732973911 0.976013402 -2.002445510
C 0.056606954 -1.748540585 -1.505741581
C -0.626440884 -1.189328371 1.265898656
C 1.759881871 -0.224738098 2.551617515
O 2.811048320 1.359538062 -0.203228045
H -4.353013154 0.451081689 0.303112354
H -2.527722193 2.253214812 2.519630688
H 1.354332320 1.578265206 -3.866924780
H 1.638775541 -3.042859380 -1.730097708
H -1.525623654 -2.324654850 -2.695807417
H -1.431414854 -2.765295519 2.321718027
H 2.759381583 3.086282471 0.375136147
H 3.168580289 -1.750955957 2.442581773

