14

N -4.165198093 -1.481610118 0.180482224
C -1.794084043 -0.140974665 -0.116922571
C 0.141307106 -1.723006095 0.388967279
C 2.290817736 -0.050203825 0.246016622
N 4.794018389 -0.781581957 0.722740118
C 1.460426439 2.356733443 -0.261172868
N -1.181215833 2.355843079 -0.381967998
H -5.255280656 -1.706621868 -1.383057537
H -5.241635378 -0.986297689 1.691685491
H -2.590573936 -3.101246853 0.615720052
H 6.089446944 0.177155928 -0.291107472
H 5.011895855 -2.657982734 0.482235392
H 2.490643593 4.102349412 -0.494072297
H -2.154939605 3.642610453 -1.380286329

