15

O -0.539500481 3.766852255 2.415315614
C -0.078696624 1.828997583 0.877117118
C -2.330158696 0.688968879 -0.414267953
C -1.828711649 -2.154800805 -0.195800609
C 1.003429171 -2.584916417 0.288131059
C 2.459355832 -1.209051782 -1.588478779
C 2.182137281 0.674803039 0.585563784
H -2.445992426 1.403503278 -2.350696221
H -4.056539975 1.273160269 0.541420141
H -2.940102763 -2.930754080 1.356905731
H -2.361800743 -3.198142825 -1.902894360
H 1.011579465 4.363359688 3.155592768
H 1.637176927 -0.554696979 -3.373381380
H 4.430337327 -1.745062790 -1.798759547
H 3.797246666 1.155161083 1.743710993

