15

O -0.340874581 2.674014169 2.880310695
C -0.236948601 2.132341126 0.478593531
C -2.550485796 1.067896630 -0.794286529
C -1.833620080 -1.546748411 0.215676597
C 1.058802946 -1.177105112 0.980535649
C 2.623792486 -1.198521680 -1.401255373
C 2.207178249 1.366872864 -0.317818297
H -2.497723830 1.235848325 -2.841874176
H -4.289090163 1.857890457 -0.046001017
H -2.906770319 -2.034823208 1.897955258
H -2.017988470 -3.058403833 -1.166891728
H 0.754042902 0.628113727 3.224995682
H 1.697479807 -1.764777887 -3.145830821
H 4.583093319 -1.782772823 -1.291065745
H 3.722003970 2.165462677 0.797241456

