15

N 3.695039978 -1.546995303 0.116389895
C 1.656953534 0.217052941 0.621985855
C 2.443637525 2.901426778 0.661951030
N 3.065836088 4.978115545 0.725965238
C -0.200360102 -0.329201062 -1.533345245
C -3.374834542 0.700418390 -0.303323398
C -2.258176969 -1.958200237 -0.674297367
H 5.059238502 -1.440498729 1.447807207
H 4.465173086 -1.190925435 -1.597270825
H 0.910776390 -0.211991385 2.514191811
H -1.943150081 2.046475392 -1.251931671
H -3.583061611 1.245614411 1.662105060
H -5.022084389 1.049977887 -1.472303878
H -3.216283874 -3.069561985 -2.105947246
H -2.033438303 -2.981774588 1.099168630

