14

C -2.917020023 -1.610982375 0.677692525
C -0.723656579 -0.766594992 -0.949380982
C 0.555567613 1.557033566 -0.313259767
N -0.706421785 3.373200476 -1.452587440
C 2.947934147 0.983675013 0.768215074
C 3.215210906 -1.525585462 0.243375295
O 1.240710270 -2.656932141 -0.802344189
H -4.319513526 -0.107094464 0.805864711
H -3.828013222 -3.252210629 -0.174105022
H -2.312231828 -2.127752871 2.590384528
H -0.665040733 5.181936605 -0.823890185
H -1.785571375 1.325231502 -2.484648437
H 4.406419649 2.218546747 1.469158486
H 4.876608831 -2.697265737 0.474602637

