12

N 3.189786474 -0.163802727 -0.324902370
C 1.496729061 1.391392099 0.770098828
O 1.899216537 3.542665975 1.431116787
C -1.070643082 0.189869325 1.185557176
C -2.378165053 -0.638650688 -1.418511086
N -1.676970251 -2.749939132 -0.195835417
H 4.926989308 0.484819650 -0.720488151
H 2.649235135 -1.928958464 -0.797935080
H -2.448601458 1.431554448 2.076899548
H -1.236200192 0.119778986 -2.981264324
H -4.371220817 -0.057435750 -1.514132626
H -0.909701004 -1.436618366 2.514220156

