16

C -0.852772910 -1.963334963 0.253471837
C -1.696262691 0.787952016 -0.195711319
C 0.311545729 2.503060435 -1.098448455
O 2.016604000 3.354644254 0.425765217
C 2.344455023 2.906317540 2.826089709
C -0.213121385 -3.340761117 -2.190178462
H -2.367046132 -2.958767380 1.246651361
H 0.788439678 -1.999816315 1.508128324
H -3.236751913 0.803561513 -1.571133777
H -2.466993444 1.561086746 1.579394507
H 0.476674269 3.257036763 -2.985065678
H -1.843283856 -3.401784379 -3.457862229
H 1.136828755 1.598131028 3.815690696
H 3.873867105 3.940220605 3.676018222
H 1.329022122 -2.400973254 -3.189205100
H 0.368703652 -5.284577118 -1.821151762

