13

C -1.511425933 -0.829276017 -0.072018993
C 0.384529220 0.936779683 0.934510708
O 2.603093900 0.792980993 -0.100136398
C 3.150957875 -2.963953223 0.005869036
O 4.316626723 -3.628374258 1.817937716
C -1.570284288 2.809695409 -0.143620244
C -3.035432114 4.333024028 -0.982598644
H -3.162476134 -1.410592755 0.998693196
H 0.907927949 -3.012966899 0.091943812
H -1.488889891 -1.179213404 -2.089185904
H 0.263356126 1.165205563 3.001572115
H 3.845982968 -3.023872962 -1.955492959
H -4.294576133 5.724283562 -1.715069321

