12

C 2.275169707 0.055958627 -1.180215544
H 3.211610506 -1.095548746 -2.594207558
H 3.481297271 1.303887612 -0.093752204
C 0.081595464 -0.915147969 0.298846410
O 0.098171367 -0.914495995 2.895876501
H -1.573068573 -0.541333610 3.495720889
C -1.549866931 -2.570490569 -1.384767494
H -3.421419163 -2.948069130 -0.589155605
H -0.724191050 -4.314332823 -2.120962348
O -1.698178798 -0.592249427 -3.260012099
C -0.318027414 1.087137594 -1.676739232
H -0.844201811 3.061760307 -1.637768355

