13

O 3.864511392 -2.715141186 -1.281262318
C 3.035648866 -0.606880480 -1.075501643
C 0.357664457 -0.064409066 -0.514570704
C -2.167427860 -2.147349086 2.631956878
C -1.471115864 -2.054194734 -0.057287482
C -0.409933961 2.541264802 -0.193892363
O -2.654046775 3.156132191 0.430157942
H 4.248586076 1.078382512 -1.331697332
H -1.935205899 -0.238391369 3.447864765
H 1.142572767 3.005153505 1.283728127
H -3.377166615 -1.189109540 -0.478369032
H -1.230817251 -3.861222664 -0.998789685
H 0.573222474 3.630924217 -1.746874886

