13

C 3.406804512 0.338491655 0.005273678
C 0.617856199 -0.034458154 -0.025287143
C -0.678641186 -2.100850881 -0.616836691
N -3.309757136 -1.562386934 -0.386501319
C -3.897347519 0.750515766 0.327177014
C -1.319632527 1.946634490 0.621490615
H 4.052958018 0.922665886 1.877640457
H 4.411099575 -1.384571151 -0.512081746
H 3.962116049 1.825220947 -1.316351641
H -0.035100793 -3.950341354 -1.196693975
H -4.638155838 -2.876953124 -0.748227932
H -1.209804838 3.616671883 -0.597848232
H -1.127938066 2.669806278 2.552159696

