12

C -2.874081061 0.689764360 0.339410081
O -4.137582656 -0.390135962 -1.733945399
C 1.643258708 -0.415293224 -1.498826468
C 3.568212162 0.151258177 0.513611517
O 1.483746491 0.980500821 2.134747485
C -0.087979318 0.388674013 0.144664828
H -3.503975571 -0.106165456 2.149344164
H -3.358641063 2.696255962 0.357050731
H 1.669562562 -1.101284991 -3.410752453
H 4.537254799 -1.447908667 1.379427260
H 4.871452260 1.709303030 0.167100336
H -3.691097443 -2.145659689 -1.823805259

