14

C 3.866632988 -0.625582854 -1.370249616
C 0.970080834 0.692855120 -0.305494807
O 1.262503442 2.676291724 0.822850741
C -1.032072165 -0.882044182 -0.806494330
C -3.630575090 -0.106187793 0.051276528
O -4.207665020 2.413515820 -0.598905477
H 5.285040819 -0.420582719 0.102277666
H 3.930565351 -2.471526935 -2.291527025
H 4.154016754 0.834887351 -2.788136903
H -0.752492118 -2.469661000 -2.063173824
H 1.894960893 -1.501269827 0.193658434
H -3.781128380 -0.385713624 2.104130463
H -5.057724775 -1.295192718 -0.840472834
H -2.873002066 3.460149629 0.065835394

