12

C -2.603473112 -0.586169630 -0.066654382
C -0.000735406 0.397070141 0.764788055
C 0.470929860 2.959633272 -0.450353974
O 2.225043796 3.507325602 -1.760480933
C 3.627762724 -2.943131786 -0.147526912
C 2.012535022 -1.418405204 0.270613619
H -4.067042638 0.815004825 0.321990737
H -3.071091756 -2.312372462 0.951276490
H -2.605453772 -1.001884187 -2.084853915
H -1.034144401 4.359324802 -0.017412296
H 5.077243378 -4.284888338 -0.526483084
H -0.077817164 0.767349522 2.804762789

