9

N 4.852026858 -0.654264739 0.045837518
C 2.833328324 0.073397964 -0.278399347
C 0.267955700 0.917600985 -0.762321207
C -1.817266598 -0.805931380 -1.585918862
N -1.529380051 0.072779759 1.187419331
H 0.162336356 2.912305704 -1.235390653
H -2.808703057 1.341063892 1.811353192
H -1.101033733 -2.745584976 -1.583495515
H -0.794087144 -1.030689132 2.566344094

