11

O 1.388641016 2.086782418 0.930687055
C 0.049056402 0.480377962 -0.787774495
C 0.844347131 -2.265955365 -0.573843778
C -2.802598826 0.716583013 -0.515908460
O -3.341219866 2.351295491 1.210367617
H 2.289249263 1.072685933 2.131855391
H 0.446255309 1.173531999 -2.701015748
H 0.433073959 -2.995726209 1.316032617
H 2.859669594 -2.480528702 -0.954120320
H -0.214200777 -3.404497402 -1.921920633
H -1.763474448 3.045571780 1.937911457

