15

O 0.065762223 5.064938521 -0.763789770
C -0.177337304 2.808088934 -0.395497096
C -2.246014899 1.184465803 -1.031385099
C -1.810930592 -1.368244598 -0.044297618
C 0.850625879 -1.480457574 0.924509276
C 2.839663139 -0.824586379 -0.984075919
C 1.875054518 1.168037998 0.777197528
H -3.836254128 1.681518103 -2.203340367
H -3.278415159 -0.244856387 1.468521289
H -3.098479160 -1.887303685 2.262079896
H -2.663496861 -2.993316279 -0.969100463
H 1.311598073 -2.773058438 2.435713885
H 2.325728630 -0.686033095 -2.959586992
H 4.694888345 -1.602284967 -0.617499400
H 3.094912283 1.964128025 2.207730465

