16

C 2.455428188 0.391538271 -3.212503364
N 1.719063012 0.411550603 -0.574528936
C 2.064669958 -1.882189103 0.908686221
C -0.449432374 -0.988450824 0.125532560
C -2.450663092 0.049602268 2.294794248
O -3.670353428 -1.722284730 3.329967719
C -3.393500462 2.229653537 1.047622060
H 4.440857772 0.919250754 -3.369642349
H 1.331598424 1.782425075 -4.240948313
H 2.191561137 -1.461466053 -4.110355652
H 2.814003399 -3.537571141 -0.047810997
H 2.687432699 -1.625256157 2.841802574
H -1.500329367 -2.051048605 -1.275540568
H -5.399707076 2.633072270 0.857288410
H -0.871096658 0.997380913 3.420458974
H -2.035504341 3.537696581 0.247577158

