8

N -2.505328712 -0.545925550 0.362145641
C -0.502763015 0.913497048 -0.265563174
O -0.599254339 2.811373448 -1.549882692
C 1.993013414 0.222633529 0.895202005
O 3.357934551 -0.869797112 -0.825039440
H -4.243115602 0.047415893 -0.126968147
H -2.341148739 -1.877061804 1.703612044
H 5.021199298 -1.182694714 -0.146183733

