8

N -2.148158418 -0.512554820 0.233247422
C -0.458231676 1.264669143 -0.457108385
O -0.938773363 3.383923198 -1.150498883
C 2.295668681 0.350524581 -0.294071488
O 2.605224359 -1.896481631 0.624234629
H -3.999486347 -0.098897721 0.228849897
H -1.555113208 -2.211482592 0.843160875
H 4.379406864 -0.760255642 0.019508474

