13

O -3.810427789 1.222690654 -0.010397519
C -2.350001520 -0.549894126 1.256852291
C 1.067861953 -2.139063903 -0.229622946
O 3.236747095 -1.099566191 0.061725825
C 3.135119268 2.076852456 0.687012276
N 1.126208098 2.939430984 1.183006349
H -3.078776082 2.863977641 0.301030027
H -2.469874369 -0.418857701 3.325583403
H -3.010443717 -2.398124945 0.669661491
H 0.683466129 -3.788781298 0.944702039
H 0.206400479 -2.112522888 -2.108960358
H 5.114017694 2.492503896 0.468717029
H -0.214472010 0.676830980 1.097623722

