10

C -0.775331272 -1.824265180 0.708963108
H -2.723540489 -1.573880683 0.076040425
H -0.562555612 -3.733996418 1.461633219
C 0.279801429 0.273853214 2.334356175
H -0.230830292 0.958986346 4.194450544
C 2.028312988 0.952275154 0.658351839
H 3.477573962 2.397888900 0.642463022
C 1.275472084 -1.030381881 -1.255394405
H 0.531285899 -0.313516468 -3.041792535
H 2.694929488 -2.472861988 -1.659322892

