12

C -1.125896784 -1.670212817 0.372098960
C -0.861753569 0.969699317 1.585377021
C 0.775866291 1.763542346 -0.694467094
C 1.213840481 -1.064102173 -1.261392150
H -2.834135294 -1.800450681 -0.776710621
H -1.039991894 -3.316123642 1.608391655
H -2.584466643 2.038422021 1.952849421
H 0.248012816 0.896306153 3.322472290
H -0.360855600 2.659432305 -2.164119725
H 2.426006607 2.942802067 -0.332233147
H 1.196117268 -1.666866395 -3.231665357
H 2.947256321 -1.752448482 -0.380601254

