9

N 2.595271833 3.908820726 0.462713728
C 0.477031332 3.467341284 0.538264789
C -2.239697885 2.937781575 0.680500922
O -2.730381430 0.295927162 0.701482873
C -2.813008420 -0.828585549 -1.577477247
O -2.532075328 0.214076547 -3.552092912
H -3.192069112 -2.849050146 -1.315307605
H -3.185616095 3.846431286 -0.909028526
H -2.980287751 3.674747608 2.451874766

