13

C -2.683892127 -0.637212834 -1.506739451
C -0.799065098 0.623260645 0.212767666
H -1.234790343 0.491822162 2.212237008
C 1.972108074 0.623043213 -0.447614608
H 3.362225816 0.383772611 1.032166444
H 2.483625075 -0.191869619 -2.254189533
C 0.508098978 3.021363103 -0.570009618
O 0.104798258 4.015821253 -2.980777398
H -1.514640906 4.830654717 -3.002090863
H 0.861169624 4.432010339 0.880772698
H -4.582567276 0.126109701 -1.223875644
H -2.765613465 -2.667492346 -1.148202242
H -2.178088051 -0.360114922 -3.485247308

