12

O -5.123830985 1.320517675 1.199084554
C -3.830440877 -0.505723573 0.524243645
C -1.223698161 -0.463425172 0.399440349
C 0.553313926 1.737943927 0.620871691
N 2.847878081 0.517926083 -0.400042643
C 2.390349724 -1.831616933 -1.070406280
O 0.135092628 -2.527153348 -0.687319640
H -4.718462508 -2.332466298 -0.005852482
H 4.536536326 1.355171737 -0.612244752
H 0.002924502 3.381860505 -0.520351565
H 0.887393959 2.395086776 2.557605434
H 3.752574504 -3.126236969 -1.868374657

