12

O -4.966713051 1.484351071 0.618312738
C -3.639256132 -0.268503740 -0.004747370
C -0.924475109 -0.072432768 -0.262109549
C 0.883749187 1.662446061 1.016479676
N 3.062461471 0.746707288 -0.574477365
C 2.739983015 -1.752577777 -0.474279022
O 0.389300740 -2.410182929 -0.254569428
H -4.450010339 -2.131286508 -0.517703624
H 1.236472351 0.893944959 -2.183931859
H 0.542573025 3.650254527 0.659086621
H 1.220478389 1.314824251 3.035272357
H 4.115069442 -3.195658175 -0.920677610

