14

C 3.476149316 0.490237362 0.722568607
C 0.763362503 0.960530933 -0.095794394
C -0.717711311 -1.365765768 -1.001362075
C -3.401325648 -0.663597851 -0.320171308
O -3.100033762 1.210331769 1.720686362
C -0.859170219 2.157331035 1.932136379
H 3.546254357 -0.891886329 2.253751627
H 4.334269641 2.232120329 1.409147701
H 4.611315510 -0.231082608 -0.841235149
H 0.756096695 2.421826873 -1.578872999
H -0.106880340 -3.042898951 0.035903058
H -0.488940632 -1.738489623 -3.012726507
H -4.558956717 -2.185433605 0.434582962
H -4.420256639 0.282544915 -1.842809667

