14

C 3.159333765 0.690291877 0.905298660
C 0.740056132 0.879202714 -0.622093513
C -0.655044270 -1.599012509 -1.262654790
C -2.981977261 -0.762855943 0.181045608
O -2.173155129 0.074576152 2.544350139
C -1.439152734 2.108251049 0.954308613
H 2.856897442 -0.404244921 2.625706590
H 3.831664702 2.564954692 1.444135564
H 4.643159077 -0.231493321 -0.191658934
H 1.054408105 2.012058774 -2.316202786
H 0.157614629 -3.343697751 -0.520558509
H -0.990026780 -1.815766269 -3.282877350
H -4.849967283 -1.616591914 0.196604479
H -3.438090308 1.362900962 -0.727419345

