14

C -3.571791757 0.008376948 -2.767348196
C -1.309881275 -0.603667171 -1.117230368
N 0.212781272 1.654749944 -0.677341073
C 2.332508817 1.905059816 0.632308390
N 3.097135640 -0.305633664 1.658487935
C 7.029082514 -0.545649858 4.260115106
N 5.201441451 -0.396977356 3.042856149
H -2.968173284 0.725848831 -4.605120949
H -4.774279727 1.426147015 -1.872521094
H -4.710503228 -1.677432308 -3.086492627
H -0.148168115 -2.052468394 -2.033545829
H -1.954171587 -1.368196523 0.696430652
H -0.427969809 3.256351019 -1.473462923
H 2.235451973 -2.008416043 1.526112072

