14

C -3.320364603 -0.868300185 1.034590698
C -1.408199266 0.714514178 -0.312075230
C 1.705555609 2.203482701 -1.735827755
C 0.917577571 -0.507928128 -1.549341304
C 2.116687486 -0.839859939 1.014508560
O 0.878115479 1.570170432 1.582529449
H -2.566374916 -2.415062542 2.207296678
H -4.531167217 0.304882895 2.219154464
H -4.532342664 -1.714957506 -0.410068150
H 3.597248390 2.840515859 -1.218546825
H 0.636620291 3.457547967 -2.938979113
H 0.925769912 -1.796086246 -3.150449255
H 4.175107288 -0.713958221 1.186195734
H 1.389112484 -2.334215334 2.227020260

