12

O 2.420434674 3.796571429 0.723064433
C 1.276179465 1.599577840 0.258785218
N 2.379219955 -0.374123197 -0.519742507
C 0.474259331 -2.340651854 -0.918751677
C -2.028079248 -1.235623184 -0.061344100
O -2.024020249 -0.522022952 2.524023621
C -1.505887581 1.370571984 0.683128284
H 4.188215222 3.581721436 0.330536872
H 0.965887645 -4.035393845 0.152239341
H 0.415470802 -2.851462211 -2.919376020
H -3.827051691 -1.864055820 -0.813335308
H -2.788185034 2.961029741 0.581288619

