11

N 5.118328103 0.247092406 0.290187364
C 3.258010879 -0.997652902 -0.769128189
C 0.832746216 0.064902568 0.033650637
N -1.237396181 -0.900932826 -0.755618140
C -3.482683725 0.084852199 -0.005840992
N -5.524217256 -1.007285327 -0.892130311
N -7.286098835 -1.916274717 -1.630543629
H 4.895006883 1.736063347 1.495761521
H 6.919816527 -0.246918796 -0.069020130
H 0.794918359 1.715503146 1.327044996
H -3.802378312 1.672896398 1.247689406

