20

C -2.108539138 3.469498595 1.260426368
C -0.776362174 0.958208535 1.403450176
N -0.051244894 -0.385287416 -0.955719085
C -0.773190817 -3.042435080 -1.176750637
C 1.951263015 0.624219455 0.938464487
C 3.243441601 -1.427289090 2.429121405
C -0.167621334 0.925137364 -3.379071610
H -4.026066478 3.310562594 0.505480914
H -2.252069997 4.223100228 3.175964772
H -1.033078766 4.825690293 0.148451518
H -1.767389507 -0.373737428 2.648004602
H 0.562363068 -4.003308620 -2.420799202
H -0.738503023 -3.948858354 0.662534861
H -2.671726958 -3.202258270 -1.971311271
H 4.273276935 -0.502995602 3.960522518
H 2.020183027 -2.863222147 3.326104231
H 4.663098560 -2.410016274 1.295553202
H 0.598179312 2.811321877 -3.145459131
H -2.109557492 0.995997823 -4.084959642
H 1.013521593 -0.095478450 -4.725791603

