20

C -2.530997032 3.331225426 1.106325987
C -1.216807256 0.813614856 1.211526946
N -1.452317247 -0.891701740 -0.917435445
C -2.099759319 -3.504970550 -0.445132963
C 1.049714119 0.082932672 -0.294863567
C 3.002471227 -1.617169395 0.917742393
C 2.156390367 1.846269038 -2.247506384
H -4.527449370 3.117155097 1.585387905
H -1.692687783 4.655007584 2.450593815
H -2.425941808 4.157325740 -0.775507886
H -1.299173237 -0.088462407 3.064814313
H -1.316876116 -4.693669944 -1.938827162
H -1.442919677 -4.237455400 1.381777474
H -4.152894162 -3.695589964 -0.500710489
H 4.544332145 -0.476272588 1.678688919
H 2.237816077 -2.736052026 2.467029179
H 3.814630162 -2.910338707 -0.474868635
H 0.682411549 2.884246843 -3.236830545
H 3.215248928 0.767591615 -3.655599656
H 3.454808431 3.196313834 -1.376604198

