20

C -2.480316618 3.442132489 1.599208266
C -1.064120031 0.975783460 1.439055111
N -1.139467115 -0.323579751 -0.954753757
C -1.658410967 -2.999782903 -1.025855949
C 1.565959688 0.847412758 0.588512853
C 3.215205086 -1.158455178 1.689601974
C 1.237068994 0.713315903 -3.031849061
H -4.521786730 3.132507307 1.599632925
H -1.966416256 4.447206477 3.326481685
H -1.996201061 4.640131962 -0.004866574
H -1.511364423 -0.340719850 2.964976945
H -1.401060542 -3.655904601 -2.969466140
H -0.474135781 -4.161461651 0.209800418
H -3.630549994 -3.302892044 -0.503752778
H 4.128211070 -0.293451507 3.330434368
H 2.279887276 -2.879545677 2.376667370
H 4.720277345 -1.708945210 0.383521467
H 0.840383960 2.663629765 -3.504661504
H 0.428229061 -0.521619212 -4.509092683
H 3.278583571 0.373083753 -3.109376115

