15

O -4.687917523 0.196913809 -1.406432183
C -3.878883477 -0.147520015 1.127260826
C -1.368492001 0.674879100 1.972051514
C 3.346870072 -1.281908642 0.157491948
O 5.297609293 -0.041903127 -1.079730454
C 0.140642848 1.928886031 -0.036546151
O 0.950319080 -0.564273430 -0.799667033
H -3.691858341 -0.896112947 -2.456636346
H -5.100105020 1.042865166 2.325646049
H -4.239723393 -2.083882180 1.771666827
H 3.485687407 -0.794088448 2.154056083
H 3.421767326 -3.329961672 -0.100500605
H 5.369378275 -0.615041962 -2.799602627
H 1.727809439 3.076384803 0.597728556
H -0.824954289 2.818181205 -1.626647638

