15

O -4.417165274 -0.004624349 -1.365797516
C -3.085072782 -0.715704555 0.847998441
C -0.572774609 0.504642688 1.288179887
C 2.940153049 -1.140745969 0.690677400
O 4.845134762 -1.322718714 -1.021926037
C -0.034796302 2.802731428 -0.109563694
O 0.861971983 0.651852428 -1.471002934
H -3.284974190 -0.252702247 -2.765126672
H -4.279394224 -0.195397247 2.453069413
H -2.864108051 -2.779833276 0.914346140
H 3.617082596 -0.085617897 2.298633699
H 2.017939847 -2.923364363 1.099360683
H 4.332903615 -2.350630723 -2.428847886
H 1.440986676 4.095827608 0.509987514
H -1.569735512 3.699702840 -1.139849653

