14

C 3.575092976 0.016632198 0.838880834
C 0.928025319 0.828237216 0.264977700
N -0.429554911 -0.524959360 -1.437510317
C -3.092654571 -0.278134162 -1.388196326
C -4.007229821 -0.436652761 1.504295902
N -2.382883813 0.071079062 3.054181334
H 4.894886848 0.489798171 -0.687191120
H 3.684870550 -2.023689414 1.149960387
H 4.270817740 0.944336263 2.543296541
H -0.803461489 0.322633111 4.052261106
H 0.538183191 2.844143396 0.262872186
H 0.152054923 -2.337738369 -1.591926207
H -4.014050541 -1.693591393 -2.555154931
H -3.708323544 1.602157694 -1.968484939

