12

O 2.126057504 3.904520277 0.965099043
C 0.665415427 2.207455151 0.537460692
N 2.111176515 0.058683876 -0.995186129
C 2.407564827 -2.207167346 -0.311199777
C -3.272804940 -0.389856641 0.000214673
O -5.468724333 -0.837674584 0.497846760
C -1.812867429 1.635108376 1.053443815
H 3.213470223 0.778004441 -2.391535716
H 1.314628532 -2.906823987 1.275222149
H 3.738397344 -3.431964987 -1.278578624
H -2.305696267 -1.605183542 -1.421030431
H -2.795056135 2.971998468 2.249653453

