17

C -4.399532750 -1.231296467 -0.724658096
C -2.283471595 0.644450277 -1.249376535
C 0.223821902 -0.120527583 -0.074569349
O 0.936733838 -2.463726070 -1.168572148
C 2.249696388 1.891549030 -0.504166061
C 4.803737420 1.645908407 0.669446478
O 4.951794533 -0.532204646 1.866203097
H -6.163177840 -0.621015141 -1.602085242
H -3.921141571 -3.095241379 -1.458704578
H -4.737782161 -1.417650580 1.304753239
H -2.003343187 0.843767760 -3.289945663
H -2.799113434 2.514040368 -0.532386399
H -0.054490782 -0.368398782 1.970438236
H 2.364886741 -3.092475897 -0.247337862
H 1.580274401 3.768015834 0.069382920
H 2.631504251 2.102820751 -2.535142713
H 6.605727567 -0.658205480 2.613511110

