12

C -3.536783144 0.092841999 -0.853954915
C -1.076999327 0.353725985 0.595726750
C 1.227758219 -0.301371103 -0.950468311
O 1.154038397 -0.933492731 -3.135009512
C 3.638167159 -0.118577083 0.394120619
C 5.589468970 0.037203057 1.530807758
H -5.133999828 0.595457558 0.346965830
H -3.802142701 -1.839875036 -1.516013187
H -3.553594715 1.316526535 -2.510813528
H -1.044728436 -0.847914178 2.280564781
H -0.802828960 2.279551831 1.304086544
H 7.341644405 0.162105242 2.513987134

