12

C -2.974239777 -0.191442352 -0.435891825
C -0.557205061 1.205092957 -0.380296913
C 1.813101510 0.105938613 -1.610293985
O 1.255723955 0.611845830 -3.772638709
C 3.795900028 -1.074084897 -0.174501128
C 3.094873374 -0.739683119 2.191952102
H -4.132440900 0.487882745 1.134941259
H -2.704473909 -2.224250432 -0.269519505
H -4.029795758 0.232862050 -2.162354059
H 1.157192633 0.296156140 2.466408234
H -0.687543535 3.257100371 -0.458867965
H 4.022611549 -1.239988621 3.949219877

