19

C -5.291132351 0.444830569 -0.501525131
C -2.802034270 0.992271491 0.833797357
C -0.799962643 -1.015864249 0.343744810
C 1.555925828 -0.768175219 1.913529228
C 3.823784487 -1.772868768 0.604740196
C 3.957349120 1.008642566 -0.102142494
O 3.428058716 1.678237690 -2.583657311
H -5.031112896 0.314353409 -2.546465630
H -6.098443269 -1.344846273 0.140833956
H -6.682039224 1.923939427 -0.139818568
H -3.093849426 1.153136052 2.872024605
H -2.069902119 2.823126996 0.203176323
H -0.464492263 -1.204559488 -1.701152887
H -1.514564145 -2.865123136 0.971197038
H 2.378770351 1.853606315 1.228724644
H 3.524259646 -2.976663653 -1.049815428
H 5.371452987 -2.451478414 1.770042834
H 5.587439914 1.978996447 0.703634968
H 4.110768406 0.425194633 -3.696920634

