20

C 4.791637731 -1.154410276 -0.414526562
C 1.976129335 -1.099283072 -1.002465524
C 0.786719234 1.401265521 -0.225568935
N -1.927335567 1.500725643 -0.845677669
C -2.472512918 2.497115187 -3.100268561
C -3.538600192 0.523180447 0.809032156
C -2.828494367 -0.399889783 3.377542443
H 5.141583961 -0.926589411 1.607766420
H 5.792762928 0.359659044 -1.398893404
H 5.631856358 -2.942959160 -0.999420306
H 1.654264549 -1.377226882 -3.023246442
H 1.017295622 -2.649726294 -0.033588162
H 1.689556507 2.969577067 -1.205912796
H 1.009507740 1.724555803 1.795276933
H -4.412040753 2.521831104 -3.721982049
H -0.946822595 3.138894997 -4.278241907
H -5.500328415 0.560727227 0.242894360
H -4.504921056 -1.210917528 4.257250017
H -1.388296444 -1.888379241 3.378064291
H -2.159996966 1.095407433 4.651788190

