20

C 5.304880562 -0.820071502 -0.065805630
C 2.769008415 0.184619647 0.846600063
C 0.962375494 0.709007611 -1.326504913
N -1.453342291 1.688315032 -0.482748113
C -2.988755331 3.446573931 -1.553371750
C -3.103727251 0.749865568 1.221809720
C -3.856271147 -1.972668151 1.218891454
H 6.236150597 0.526563114 -1.324005089
H 5.082993342 -2.592107430 -1.102706178
H 6.577689549 -1.178789255 1.515702610
H 1.901450817 -1.170750379 2.143447198
H 3.028983461 1.928590024 1.922911643
H 0.686219007 -1.005062083 -2.463673308
H 1.739218680 2.136852073 -2.602941437
H -4.717655822 2.844775132 -2.460247103
H -2.357212394 5.390724489 -1.787648429
H -3.776526689 2.019263997 2.669171236
H -4.983395346 -2.444766221 2.875949112
H -4.975030473 -2.438850490 -0.463300847
H -2.201077779 -3.214683182 1.189454888

