11

C 4.555175639 0.739981261 0.862461819
C 2.363669796 0.459189294 0.366712466
C -0.281037650 0.000512928 -0.131397703
C -1.474526593 0.277102277 -2.640817502
C -2.136237080 1.913999468 -0.971078609
N -3.489697254 -2.265640215 2.187517350
N -1.312282229 -2.023540145 1.634701272
H 6.502744882 1.024500146 1.279869930
H -1.600374605 -0.533884499 -4.499625080
H -3.209022979 3.531592709 -0.375104513
H 0.134120572 -3.155893197 2.340867226

