11

C 4.892378728 -0.888516399 -0.271717502
C 2.698433683 -0.337232965 -0.004075440
C 0.145260148 0.283036584 0.324041184
C -1.741114982 -1.353101693 1.629057624
C -3.220049191 -1.306132210 -0.272115668
N -2.896113076 2.697029352 -1.691979533
N -0.826865464 2.544056891 -0.698524809
H 6.829399973 -1.368676249 -0.515721302
H -1.531574382 -2.309678657 3.425273864
H -4.628965079 -2.067352122 -1.513654204
H 0.297585321 4.102228677 -0.411657580

