16

C 2.266127519 2.535448848 -0.925428779
C 0.652739145 0.173273297 -0.848353275
C 2.059746938 -2.102201072 0.171602703
H 2.712639302 -1.738146298 2.096911653
H 3.716068586 -2.502901075 -0.995423573
H 0.896862545 -3.799599942 0.212308708
C -1.266115748 -0.063502035 -2.915555920
H -1.447734566 1.050583582 -4.612345146
C -3.218611620 -1.633397607 -1.629086235
H -5.142404593 -1.400809265 -2.301376939
H -2.789909258 -3.545248815 -1.014031120
C -2.096005472 0.589562577 -0.314044986
H -3.021155044 2.289799268 0.323422280
H 1.213046663 4.143321679 -1.675339833
H 2.931614113 3.029056424 0.965400927
H 3.928630839 2.246404485 -2.114705238

