19

C 2.584228254 2.390292994 -0.200985205
C 1.005363665 0.004092334 -0.139320890
C 2.499243699 -2.429100977 -0.241946776
C -1.182497030 0.193861372 -1.936894690
C -3.211052696 -1.670106576 -1.162540426
C -2.901966692 0.753220815 0.103568084
O -1.805502052 0.524200333 3.827932077
H 1.406657514 4.082984311 -0.054742682
H 3.944007654 2.439913650 1.352384429
H 3.658520303 2.550017673 -1.971821610
H -0.210469305 0.187451307 2.363344460
H 3.942026578 -2.473335818 1.233887697
H 3.451795528 -2.657085851 -2.074154777
H 1.305735934 -4.092651281 0.027191194
H -1.132809629 1.076118110 -3.794415762
H -4.901862923 -1.790537745 -2.320506051
H -2.687563392 -3.422053166 -0.242557327
H -4.211996292 2.216588594 0.622505416
H -1.613787352 2.148591637 4.633790476

