15

O -2.557337716 3.679313035 -0.030098896
C -2.598168575 1.705678592 -1.571517958
C -1.756750387 -1.723515547 0.945351500
C 0.972014137 -1.675310145 0.450180894
O 1.973439405 -2.924691895 -1.200792583
C 2.595097676 0.050790566 2.068286743
O 5.064597841 0.151040745 1.170425516
H -4.231078992 3.986653424 0.613132639
H -0.738337445 1.530120862 -2.458707959
H -3.217992753 -0.408412126 -0.694012426
H -2.610666487 -3.537197826 0.479084010
H -2.326153913 -0.996451338 2.782528782
H 1.745978551 1.943291810 2.107492759
H 2.527475621 -0.678829346 4.014437935
H 5.152448204 -1.114263271 -0.149382567

