16

C -3.511045131 -0.668229872 -2.316110737
C -2.876111251 -0.857425151 0.492533153
C -4.433501314 1.017341505 2.029708834
H -6.452965490 0.703063402 1.745361102
H -4.013130131 2.960805752 1.464615433
H -4.041541616 0.846285707 4.048111778
C -0.041947460 -0.454258829 1.011491347
C 1.572073859 -2.381550252 -0.314018700
O 2.343514544 -4.277435240 0.667795991
H 2.014353770 -1.994164503 -2.328216587
H 0.321953415 -0.604486292 3.036646546
H 0.503187240 1.439327194 0.374520021
H -3.344589702 -2.768623213 1.135705540
H -5.538830508 -0.896639689 -2.618507830
H -2.555317221 -2.116853763 -3.431791057
H -2.966790666 1.177537122 -3.071887066

