15

C -3.959279135 -0.308430553 -1.400471779
C -2.145239622 -2.028133086 1.861058356
O -0.874056876 -0.024170126 2.879781893
C 1.401779583 0.593263171 1.888307413
N 2.049478450 0.020480701 -0.309332463
C 4.511445525 0.834625095 -1.158818704
H -4.032613453 1.527567294 -0.496408660
H -3.018310307 -0.198156889 -3.227474473
H -5.801886488 -1.203618064 -1.527472713
H -4.008811862 -2.001490064 2.758973232
H -2.397144839 -1.923483455 -0.514130039
H 2.498595088 1.711029465 3.233924524
H 4.301856662 1.981895891 -2.860227819
H 5.633568072 -0.818129732 -1.671383597
H 5.561453723 1.931629743 0.254924659

