12

N -2.464444449 -1.399511307 1.541419893
C -0.817633037 -0.527372446 -0.192988904
O -1.018077704 -1.899529854 -2.346133194
C -0.447503738 2.361483194 -0.275252481
O 2.217470756 2.417303114 -0.110863882
C 2.513126156 -0.208228468 -0.474382390
O 2.248512380 -1.028644580 -2.765134514
H -3.301068572 -0.267989451 2.814067139
H -2.905309334 -3.246002085 1.529364763
H -1.172395650 3.101838243 -2.062276923
H -1.319381836 3.354752857 1.317398341
H 3.976081881 -1.075597207 0.686162126

