16

C -4.710682506 -0.438718023 0.273154015
C -1.996338218 0.260600036 0.057218205
C -0.901929392 2.636467446 -0.187341004
C 1.703554861 2.314477390 -0.124354429
C 2.277580298 -0.324212299 0.063120273
C 4.494633463 -1.749794702 -1.102618325
N -0.141224279 -1.465788840 0.228983651
H -5.158822118 -1.066899988 2.189280237
H -5.903814725 1.177180984 -0.169158664
H -5.194018154 -1.971623510 -1.021614478
H -1.933174292 4.392467480 -0.277775681
H 3.132341162 3.769508624 -0.129821785
H 5.915189346 -0.458586944 -1.843227731
H 3.420068481 -0.431855785 1.856286759
H 5.322917261 -3.147550963 0.168006989
H -0.375327123 -3.340892906 0.057664048

