8

C -2.591214062 -1.093744285 0.080740930
N -0.625329347 0.088765614 -1.461444151
N 0.351527761 1.927246561 -0.469831457
C 1.591199853 3.535882936 0.505252502
H 1.262092048 5.547850001 0.428118002
H -1.831810705 -1.688166027 1.910993802
H -3.273150231 -2.744992604 -0.932861242
H -4.173736556 0.195890295 0.403434134

