14

O 3.469205556 3.708579280 -1.423096714
C 1.975004136 1.816121292 -2.315403507
C 0.429050411 0.400248302 -0.960567008
C -1.540532894 -1.588398390 -1.540577831
N -2.435827079 -1.532906205 1.150331151
C -0.367062708 0.332022480 1.738653425
C -0.283085395 -2.289121366 2.690631249
H 2.173689109 1.589191527 -4.339823924
H -3.041053180 -0.946637402 -2.796629087
H -0.888852733 -3.452667920 -2.145934248
H 3.317142715 3.799225323 0.383223495
H -0.690821869 1.937987840 2.970429447
H -0.771970961 -2.600471754 4.653960090
H 1.092699077 -3.597394957 1.911546584

