13

N 4.862126140 0.507806807 -1.014590857
C 2.989174226 0.984765971 0.328097236
O 1.997433408 2.797969318 1.787461649
C 0.578872302 0.384249124 1.393111938
C -2.614543354 -2.037477782 -1.082906686
C -1.835450412 0.552347331 -0.083181681
H -1.174126960 -2.803915190 -2.343958724
H 6.103982226 1.976479747 -1.026180396
H 0.537825560 -0.762505058 3.098351925
H -4.382199369 -1.908220496 -2.133126497
H -2.897729982 -3.385922302 0.453577110
H -3.310736694 1.326651593 1.138871757
H -1.568932227 1.877763062 -1.641727973

