15

C 4.643422561 -1.051082130 -0.964583507
N 2.386776214 -0.368363803 -0.203369151
C 1.547267745 2.210878673 -0.422374255
C -0.762349439 2.346975142 0.496521911
C -1.502547339 -0.247337768 1.365397366
C -3.905827362 -1.257745432 0.126995132
N 0.672652965 -1.821231527 0.795591404
H 5.859006635 0.367827556 -1.765734863
H 5.177643847 -3.003394132 -0.756892515
H -1.804378383 -0.214268127 3.424062191
H 2.792672076 3.600020410 -1.241186273
H -1.926241945 4.019041176 0.604299115
H -3.713861065 -1.254774518 -1.926405803
H -5.546442911 -0.118502647 0.648307869
H -4.232227019 -3.196808451 0.740017639

