15

C 3.898477273 -0.964926474 0.282418379
N 2.296799210 -0.072045808 -1.525978677
C 1.566311007 2.500789816 -1.178008269
C -0.720207488 2.394360101 -0.161824297
C -1.292937065 -0.355647137 -0.020311929
C -3.872390170 -1.361059802 0.548570789
N 0.252312415 -1.607393747 -1.637310833
H 5.594915935 0.125543974 0.663161532
H 3.968192520 -2.999665778 0.462183509
H 0.665231444 -0.700853329 1.960499769
H 2.923317932 3.997230713 -1.434384313
H -1.881709472 3.899484723 0.568896948
H -5.206369970 -0.798455964 -0.921315091
H -4.556182240 -0.628706590 2.349323921
H -3.826788093 -3.416295889 0.638195227

