11

N 4.434293185 1.838266690 0.393721377
C 2.571180489 0.682743120 0.490888845
C 1.217245880 -2.164981232 -0.475728952
C -0.093187290 -0.263280083 0.881362803
C -2.411614018 1.444782833 -0.403774304
O -4.255921709 0.022952802 0.244811638
H 1.805673185 -3.931112011 0.385281387
H 1.468940941 -1.971336839 -2.500056149
H -0.468898915 -0.644685396 2.862932528
H -2.218176096 3.327628994 0.488090123
H -1.877929604 1.565183010 -2.429725872

