16

O 5.004462731 0.393302235 0.498982183
C 2.855165300 -1.095181157 1.061869121
C 0.619381075 -0.484048698 -0.604932059
C -1.925331362 -1.798497971 -0.050488248
C -3.271264208 0.718373301 -0.644820228
C -0.727063717 2.087164105 -0.251462983
H 4.563380301 2.136984335 0.726757789
H 3.435913948 -3.057805073 0.789536475
H 2.314579454 -0.880093134 3.057982348
H 1.156323831 -0.741689479 -2.583325910
H -2.091217681 -2.290018287 1.949032250
H -2.418014445 -3.450662769 -1.177212127
H -3.881070968 0.805934631 -2.612137563
H -4.849824798 1.268228688 0.557888991
H -0.534661781 2.769567282 1.690990261
H -0.250757643 3.618441971 -1.544976490

