16

O 3.463375486 0.682911476 0.623509881
C 3.328277680 -2.228950767 0.990071736
C 0.569951547 -0.122690639 -0.701758754
C -1.796980010 -1.405625440 0.273261465
C -3.302253922 0.823688116 -0.876322601
C -0.870975432 2.428861227 -0.733005470
H 3.353110496 1.549950986 2.220621119
H 5.224575082 -2.903577173 0.524920658
H 2.982499657 -2.532508416 3.006905583
H 1.153651815 -0.723234112 -2.563203332
H -1.891437064 -1.342455694 2.331804516
H -2.096152002 -3.340638076 -0.360480886
H -3.868613005 0.448826527 -2.820834040
H -4.927971625 1.507715192 0.183077253
H -0.776141209 3.409109846 1.080853480
H -0.431590600 3.750680526 -2.248630318

