8

N 3.707064003 -0.245191549 0.035124037
C 1.123832693 -0.075141067 0.037027199
O 0.174760096 -1.044549139 2.191024020
H -1.634670224 -0.937661373 2.022068124
N -0.354348120 0.762029112 -1.651099087
H 0.579191004 1.420029178 -3.185234464
H 4.539380496 -0.529889580 1.717252163
H 4.649903037 0.860147150 -1.181221011

