10

N 3.341085847 -0.107411183 0.056514735
C 0.824464586 -0.186227785 0.419936754
O 0.020294449 -1.157640630 2.498572468
N -0.866143856 0.634284230 -1.205229225
C -3.815676617 -0.091760471 0.109587145
O -5.564864018 0.440706412 -1.104034580
H 4.467147340 -0.669617215 1.474822014
H 4.090270320 0.783992964 -1.435966713
H -0.328562222 1.338573668 -2.891738568
H -2.123988990 -0.994393956 2.080041746

