14

C 3.748238906 0.202858830 -2.871760005
C 1.732400850 0.181785379 -0.853728015
H 2.112917350 -1.300549713 0.544499412
O 1.435153242 2.595561641 0.393400841
C -1.205524476 2.719525880 -0.232701782
H -1.671647913 4.403957695 -1.337037604
H -2.404266744 2.650017992 1.452389945
C -0.997190372 0.281817635 -1.681490778
C -2.476719883 -1.111865341 -3.116965066
H -1.789869103 -2.834136654 -3.987111192
H -4.424001755 -0.590344111 -3.476455074
H 5.599195617 0.546662865 -2.030282253
H 3.800512907 -1.620475622 -3.837876950
H 3.364423795 1.675888987 -4.261257710

