19

C 3.970228303 -0.085321361 1.875265865
C 2.799339899 -0.918709839 -0.619387104
C 0.578375757 0.702801580 -1.374386151
C -1.484606714 -0.294661801 -3.118279276
C -1.951437323 0.043953764 -0.401106937
C -3.080241848 -1.311817432 1.589576956
O -3.853771984 2.896587095 0.009565699
H 5.596708416 -1.253831866 2.366402226
H 2.599530614 -0.232695546 3.410682930
H 4.609288608 1.876073912 1.782857426
H 2.172052511 -2.883027100 -0.474385432
H 4.212458575 -0.857253432 -2.127980564
H 1.002077317 2.692043441 -1.625886872
H -1.356971947 -2.229845174 -3.780017920
H -2.318546726 1.026515577 -4.432045639
H -4.291587588 1.198157719 1.431839456
H -2.013926900 -1.543486309 3.325125938
H -4.353793498 -2.839365148 1.099341559
H -2.872892499 4.153931376 0.894549066

