16

C 4.710501886 0.734963623 0.094871281
O 2.116384789 1.288469129 0.221455455
C 0.618039710 -0.874541232 0.491914702
C -2.143797931 -0.029458222 0.556178599
C -2.966828101 1.258126685 -1.896861730
C -3.744991638 -2.217817672 1.116902274
N -4.982485103 -3.950769302 1.524418197
H 5.710157519 2.520670529 -0.114658774
H 5.144602930 -0.481203923 -1.527393193
H 5.367622909 -0.206924349 1.821337598
H 1.091702058 -1.885868646 2.242121345
H 0.915941465 -2.186001978 -1.093626574
H -2.353403273 1.295893806 2.128743182
H -4.919150799 1.900507749 -1.771154881
H -1.750625255 2.878587472 -2.252975044
H -2.813671166 -0.044633668 -3.488006441

