16

C 4.355455928 0.730401597 1.104498130
O 2.427948603 1.123539483 -0.758074180
C 0.531320481 -1.269830250 -1.281184235
C -1.748218406 -0.197869027 -0.184234105
C -3.925130027 0.586684089 -1.877280596
C -2.378185821 -1.111183055 2.271558478
N -2.839256414 -1.803309969 4.288587666
H 5.211792275 2.553425889 1.517255739
H 5.776288787 -0.535586670 0.323229736
H 3.542814338 -0.078518272 2.822579070
H 1.454994951 -2.831008080 -0.315277239
H 0.610189561 -1.432607951 -3.324990634
H 0.555219110 1.736738679 0.041291215
H -5.119229143 1.972117182 -0.928683719
H -3.215384856 1.468078281 -3.603058164
H -5.133521066 -1.001321446 -2.422513486

