12

C -2.253748036 2.598512448 -0.384214486
C -1.085787139 2.535318174 -2.959901953
H 0.878126288 3.172010407 -2.882382855
H -1.107424352 0.658597636 -3.804714826
H -2.079079328 3.817689837 -4.239028484
C -3.246863460 0.682353610 0.897225467
C -3.445452265 -2.021155046 0.088445551
H -2.728845858 -2.342762471 -1.814157583
H -5.411319291 -2.653269606 0.140070034
H -2.390496669 -3.244110394 1.376849730
H -4.007566513 1.093941553 2.760710174
H -2.274799302 4.442948811 0.520055672

