19

C 4.590501235 0.237857579 -0.297893384
C 1.986434881 -0.635140409 0.512266996
O 2.191063478 -1.441524832 3.066499608
C 0.041308997 1.429271375 0.244701845
C -1.381889932 1.763977002 -2.184547267
C -2.751484380 0.883546495 0.136282003
C -3.833537893 -1.750105070 0.285673356
H 4.577846929 0.796203335 -2.282769997
H 5.965893646 -1.274645291 -0.039646038
H 5.183652004 1.853101380 0.840601184
H 1.436483269 -2.246057531 -0.678261181
H 0.520457258 -1.777849444 3.684324853
H 0.563483128 3.146511009 1.239162489
H -1.055453747 0.370738376 -3.652045194
H -1.712417922 3.657199158 -2.881678970
H -3.918278711 2.302471393 1.045920475
H -2.614906125 -3.141114670 -0.625680232
H -5.667319960 -1.831225230 -0.656875604
H -4.121836173 -2.343214606 2.243965056

