19

C 4.192210368 0.027166230 -0.499495697
C 2.165202273 -0.778393970 1.122066763
O 2.642798464 -0.517458621 3.724312894
C -0.228834703 1.227565977 0.435242382
C 0.049713025 1.726060252 -2.347213645
C -2.770871798 0.540014940 0.805127018
C -3.996826104 -1.746395670 -0.295574501
H 2.486087067 1.444114531 -2.233105178
H 4.997329071 -1.294569524 -1.838069629
H 5.486857219 1.425515053 0.259192114
H 1.477562306 -2.676419091 0.664459547
H 1.037591810 -0.525693878 4.581276366
H 0.274539015 2.916730158 1.506812148
H -0.554234884 0.202086197 -3.594635239
H -0.617087723 3.554775038 -3.016615147
H -3.921464638 1.614268665 2.126843989
H -2.717868193 -2.832871445 -1.491200970
H -5.662374377 -1.269609813 -1.422309303
H -4.662963028 -2.988500463 1.222875507

