27

C    -4.36516  -0.02238  -1.37391
O    -2.98941   0.22553  -1.06481
C    -2.59262  -0.06628   0.18993
O    -3.34088  -0.53451   1.03323
C    -1.18774   0.24783   0.38395
C    -0.35670  -0.12231   1.37709
Cl   -0.62802  -1.05540   2.78176
C     1.06499   0.24735   0.90221
O     0.76214   1.43854   0.17019
C    -0.22483   0.82630  -0.68360
C     0.53328  -0.42009  -1.20299
N     2.30549   1.16889  -2.69120
N     2.97309   0.81376  -1.79347
C     3.75054   0.45737  -0.83172
C     4.55600  -0.81259  -0.91469
C     1.30119  -0.78141  -0.23237
H    -4.50185   0.27771  -2.41868
H    -4.60486  -1.08740  -1.24891
H    -5.01892   0.57519  -0.71935
H     1.81350   0.42878   1.70008
H    -0.65403   1.55168  -1.38907
H     0.35926  -0.87100  -2.17325
H     3.67722   1.05070   0.05273
H     4.20625  -1.50197  -1.70162
H     4.52370  -1.36860   0.05055
H     5.56049  -0.49583  -1.10179
H     1.98723  -1.63144  -0.11341
27

C    -4.36515  -0.02219  -1.37376
O    -2.98918   0.22551  -1.06509
C    -2.59162  -0.06715   0.18903
O    -3.33960  -0.53399   1.03306
C    -1.18514   0.24430   0.38100
C    -0.35405  -0.12530   1.37449
Cl   -0.62743  -1.05527   2.78090
C     1.06699   0.24952   0.90265
O     0.76130   1.44104   0.17190
C    -0.22296   0.82766  -0.68452
C     0.54405  -0.40844  -1.21046
N     2.28996   1.15661  -2.68009
N     2.97889   0.81963  -1.79964
C     3.72686   0.44156  -0.82413
C     4.55119  -0.81304  -0.91283
C     1.32022  -0.76974  -0.23503
H    -4.50189   0.27776  -2.41862
H    -4.60484  -1.08735  -1.24884
H    -5.01885   0.57527  -0.71926
H     1.81299   0.43021   1.70105
H    -0.65425   1.55238  -1.38857
H     0.35776  -0.87279  -2.17046
H     3.67441   1.04711   0.05372
H     4.20725  -1.50263  -1.70152
H     4.52501  -1.36917   0.05070
H     5.55730  -0.49124  -1.10141
H     1.98362  -1.63225  -0.11216
27

C    -4.36513  -0.02200  -1.37361
O    -2.98895   0.22549  -1.06537
C    -2.59061  -0.06802   0.18813
O    -3.33831  -0.53348   1.03288
C    -1.18254   0.24078   0.37805
C    -0.35140  -0.12828   1.37189
Cl   -0.62683  -1.05513   2.78005
C     1.06898   0.25169   0.90309
O     0.76047   1.44353   0.17360
C    -0.22108   0.82901  -0.68544
C     0.55482  -0.39680  -1.21792
N     2.27444   1.14433  -2.66898
N     2.98468   0.82550  -1.80582
C     3.70317   0.42575  -0.81654
C     4.54638  -0.81349  -0.91097
C     1.33926  -0.75806  -0.23768
H    -4.50194   0.27781  -2.41857
H    -4.60483  -1.08729  -1.24876
H    -5.01877   0.57535  -0.71918
H     1.81247   0.43163   1.70202
H    -0.65446   1.55308  -1.38806
H     0.35625  -0.87457  -2.16768
H     3.67160   1.04353   0.05471
H     4.20824  -1.50329  -1.70142
H     4.52631  -1.36975   0.05085
H     5.55411  -0.48666  -1.10103
H     1.98001  -1.63307  -0.11092
27

C    -4.36512  -0.02181  -1.37345
O    -2.98872   0.22547  -1.06565
C    -2.58961  -0.06889   0.18723
O    -3.33703  -0.53296   1.03271
C    -1.17994   0.23726   0.37510
C    -0.34874  -0.13126   1.36930
Cl   -0.62624  -1.05500   2.77919
C     1.07098   0.25386   0.90354
O     0.75964   1.44603   0.17531
C    -0.21921   0.83036  -0.68636
C     0.56559  -0.38515  -1.22538
N     2.25891   1.13205  -2.65787
N     2.99047   0.83136  -1.81199
C     3.67949   0.40994  -0.80895
C     4.54157  -0.81394  -0.90911
C     1.35830  -0.74639  -0.24033
H    -4.50198   0.27786  -2.41852
H    -4.60482  -1.08723  -1.24868
H    -5.01870   0.57543  -0.71910
H     1.81195   0.43306   1.70299
H    -0.65467   1.55378  -1.38756
H     0.35475  -0.87635  -2.16489
H     3.66879   1.03994   0.05569
H     4.20924  -1.50395  -1.70132
H     4.52762  -1.37032   0.05100
H     5.55092  -0.48207  -1.10064
H     1.97640  -1.63388  -0.10967
27

C    -4.36511  -0.02162  -1.37330
O    -2.98849   0.22545  -1.06592
C    -2.58860  -0.06976   0.18634
O    -3.33575  -0.53244   1.03253
C    -1.17734   0.23374   0.37215
C    -0.34609  -0.13425   1.36670
Cl   -0.62564  -1.05487   2.77833
C     1.07297   0.25604   0.90398
O     0.75880   1.44853   0.17702
C    -0.21734   0.83171  -0.68727
C     0.57637  -0.37351  -1.23284
N     2.24338   1.11977  -2.64677
N     2.99627   0.83723  -1.81816
C     3.65581   0.39413  -0.80135
C     4.53676  -0.81439  -0.90725
C     1.37734  -0.73472  -0.24298
H    -4.50202   0.27791  -2.41847
H    -4.60480  -1.08718  -1.24860
H    -5.01863   0.57551  -0.71901
H     1.81144   0.43448   1.70397
H    -0.65489   1.55448  -1.38706
H     0.35324  -0.87813  -2.16210
H     3.66598   1.03635   0.05668
H     4.21023  -1.50460  -1.70122
H     4.52892  -1.37090   0.05115
H     5.54773  -0.47748  -1.10026
H     1.97279  -1.63470  -0.10843
27

C    -4.36509  -0.02144  -1.37314
O    -2.98826   0.22543  -1.06620
C    -2.58760  -0.07063   0.18544
O    -3.33447  -0.53193   1.03235
C    -1.17475   0.23021   0.36920
C    -0.34343  -0.13723   1.36410
Cl   -0.62505  -1.05473   2.77748
C     1.07497   0.25821   0.90442
O     0.75797   1.45102   0.17872
C    -0.21547   0.83306  -0.68819
C     0.58714  -0.36187  -1.24031
N     2.22786   1.10749  -2.63566
N     3.00206   0.84310  -1.82434
C     3.63213   0.37833  -0.79376
C     4.53194  -0.81484  -0.90538
C     1.39638  -0.72305  -0.24564
H    -4.50207   0.27796  -2.41842
H    -4.60479  -1.08712  -1.24853
H    -5.01856   0.57559  -0.71893
H     1.81092   0.43590   1.70494
H    -0.65510   1.55518  -1.38656
H     0.35174  -0.87992  -2.15932
H     3.66317   1.03277   0.05766
H     4.21123  -1.50526  -1.70112
H     4.53022  -1.37148   0.05130
H     5.54454  -0.47290  -1.09988
H     1.96918  -1.63551  -0.10718
27

C    -4.36508  -0.02125  -1.37299
O    -2.98803   0.22541  -1.06648
C    -2.58659  -0.07150   0.18454
O    -3.33319  -0.53141   1.03218
C    -1.17215   0.22669   0.36624
C    -0.34078  -0.14021   1.36150
Cl   -0.62445  -1.05460   2.77662
C     1.07696   0.26038   0.90487
O     0.75713   1.45352   0.18043
C    -0.21359   0.83441  -0.68911
C     0.59791  -0.35022  -1.24777
N     2.21233   1.09521  -2.62455
N     3.00785   0.84896  -1.83051
C     3.60845   0.36252  -0.78617
C     4.52713  -0.81529  -0.90352
C     1.41542  -0.71138  -0.24829
H    -4.50211   0.27800  -2.41837
H    -4.60477  -1.08706  -1.24845
H    -5.01848   0.57567  -0.71884
H     1.81040   0.43733   1.70591
H    -0.65532   1.55588  -1.38605
H     0.35023  -0.88170  -2.15653
H     3.66037   1.02918   0.05865
H     4.21222  -1.50592  -1.70102
H     4.53153  -1.37205   0.05146
H     5.54135  -0.46831  -1.09949
H     1.96556  -1.63633  -0.10594
27

C    -4.36507  -0.02106  -1.37283
O    -2.98780   0.22539  -1.06676
C    -2.58559  -0.07237   0.18364
O    -3.33190  -0.53089   1.03200
C    -1.16955   0.22317   0.36329
C    -0.33812  -0.14320   1.35890
Cl   -0.62385  -1.05446   2.77576
C     1.07896   0.26255   0.90531
O     0.75630   1.45602   0.18214
C    -0.21172   0.83576  -0.69002
C     0.60869  -0.33858  -1.25523
N     2.19680   1.08293  -2.61344
N     3.01365   0.85483  -1.83668
C     3.58477   0.34671  -0.77858
C     4.52232  -0.81574  -0.90166
C     1.43446  -0.69970  -0.25094
H    -4.50216   0.27805  -2.41832
H    -4.60476  -1.08701  -1.24837
H    -5.01841   0.57575  -0.71876
H     1.80989   0.43875   1.70688
H    -0.65553   1.55658  -1.38555
H     0.34873  -0.88348  -2.15374
H     3.65756   1.02559   0.05963
H     4.21322  -1.50658  -1.70092
H     4.53283  -1.37263   0.05161
H     5.53816  -0.46372  -1.09911
H     1.96195  -1.63714  -0.10469
27

C    -4.36505  -0.02087  -1.37268
O    -2.98757   0.22537  -1.06704
C    -2.58458  -0.07324   0.18275
O    -3.33062  -0.53038   1.03183
C    -1.16695   0.21964   0.36034
C    -0.33547  -0.14618   1.35630
Cl   -0.62326  -1.05433   2.77490
C     1.08096   0.26472   0.90575
O     0.75546   1.45851   0.18384
C    -0.20985   0.83711  -0.69094
C     0.61946  -0.32694  -1.26270
N     2.18128   1.07065  -2.60233
N     3.01944   0.86070  -1.84286
C     3.56109   0.33090  -0.77099
C     4.51751  -0.81619  -0.89980
C     1.45350  -0.68803  -0.25359
H    -4.50220   0.27810  -2.41827
H    -4.60475  -1.08695  -1.24829
H    -5.01834   0.57583  -0.71867
H     1.80937   0.44017   1.70785
H    -0.65574   1.55728  -1.38505
H     0.34722  -0.88527  -2.15096
H     3.65475   1.02201   0.06062
H     4.21421  -1.50724  -1.70082
H     4.53413  -1.37321   0.05176
H     5.53496  -0.45914  -1.09873
H     1.95834  -1.63796  -0.10345
27

C    -4.36504  -0.02068  -1.37253
O    -2.98734   0.22535  -1.06731
C    -2.58358  -0.07412   0.18185
O    -3.32934  -0.52986   1.03165
C    -1.16435   0.21612   0.35739
C    -0.33281  -0.14917   1.35370
Cl   -0.62266  -1.05420   2.77405
C     1.08295   0.26689   0.90620
O     0.75463   1.46101   0.18555
C    -0.20798   0.83846  -0.69186
C     0.63023  -0.31529  -1.27016
N     2.16575   1.05837  -2.59122
N     3.02524   0.86656  -1.84903
C     3.53740   0.31509  -0.76339
C     4.51270  -0.81664  -0.89794
C     1.47254  -0.67636  -0.25625
H    -4.50225   0.27815  -2.41821
H    -4.60473  -1.08689  -1.24822
H    -5.01827   0.57591  -0.71859
H     1.80885   0.44160   1.70882
H    -0.65596   1.55798  -1.38454
H     0.34572  -0.88705  -2.14817
H     3.65194   1.01842   0.06161
H     4.21521  -1.50789  -1.70072
H     4.53544  -1.37378   0.05191
H     5.53177  -0.45455  -1.09835
H     1.95473  -1.63878  -0.10220
27

C    -4.36503  -0.02049  -1.37237
O    -2.98711   0.22533  -1.06759
C    -2.58257  -0.07499   0.18095
O    -3.32806  -0.52934   1.03148
C    -1.16175   0.21260   0.35444
C    -0.33016  -0.15215   1.35110
Cl   -0.62207  -1.05406   2.77319
C     1.08495   0.26906   0.90664
O     0.75379   1.46351   0.18726
C    -0.20610   0.83981  -0.69278
C     0.64100  -0.30365  -1.27762
N     2.15023   1.04610  -2.58011
N     3.03103   0.87243  -1.85520
C     3.51372   0.29928  -0.75580
C     4.50789  -0.81709  -0.89608
C     1.49158  -0.66469  -0.25890
H    -4.50229   0.27820  -2.41816
H    -4.60472  -1.08684  -1.24814
H    -5.01819   0.57599  -0.71851
H     1.80834   0.44302   1.70980
H    -0.65617   1.55868  -1.38404
H     0.34421  -0.88883  -2.14538
H     3.64913   1.01484   0.06259
H     4.21620  -1.50855  -1.70062
H     4.53674  -1.37436   0.05206
H     5.52858  -0.44996  -1.09796
H     1.95112  -1.63959  -0.10096
27

C    -4.36502  -0.02030  -1.37222
O    -2.98688   0.22532  -1.06787
C    -2.58157  -0.07586   0.18005
O    -3.32678  -0.52883   1.03130
C    -1.15916   0.20908   0.35149
C    -0.32751  -0.15513   1.34850
Cl   -0.62147  -1.05393   2.77233
C     1.08694   0.27123   0.90708
O     0.75296   1.46600   0.18896
C    -0.20423   0.84117  -0.69369
C     0.65178  -0.29200  -1.28508
N     2.13470   1.03382  -2.56900
N     3.03682   0.87830  -1.86137
C     3.49004   0.28348  -0.74821
C     4.50308  -0.81754  -0.89422
C     1.51062  -0.65301  -0.26155
H    -4.50233   0.27824  -2.41811
H    -4.60471  -1.08678  -1.24806
H    -5.01812   0.57607  -0.71842
H     1.80782   0.44445   1.71077
H    -0.65638   1.55938  -1.38354
H     0.34270  -0.89062  -2.14260
H     3.64632   1.01125   0.06358
H     4.21720  -1.50921  -1.70053
H     4.53805  -1.37493   0.05221
H     5.52539  -0.44538  -1.09758
H     1.94751  -1.64041  -0.09971
27

C    -4.36500  -0.02011  -1.37206
O    -2.98665   0.22530  -1.06815
C    -2.58056  -0.07673   0.17916
O    -3.32549  -0.52831   1.03112
C    -1.15656   0.20555   0.34854
C    -0.32485  -0.15812   1.34591
Cl   -0.62088  -1.05380   2.77148
C     1.08894   0.27340   0.90753
O     0.75213   1.46850   0.19067
C    -0.20236   0.84252  -0.69461
C     0.66255  -0.28036  -1.29255
N     2.11917   1.02154  -2.55789
N     3.04262   0.88416  -1.86755
C     3.46636   0.26767  -0.74062
C     4.49826  -0.81799  -0.89236
C     1.52966  -0.64134  -0.26420
H    -4.50238   0.27829  -2.41806
H    -4.60469  -1.08672  -1.24798
H    -5.01805   0.57615  -0.71834
H     1.80730   0.44587   1.71174
H    -0.65660   1.56008  -1.38303
H     0.34120  -0.89240  -2.13981
H     3.64351   1.00766   0.06456
H     4.21819  -1.50987  -1.70043
H     4.53935  -1.37551   0.05236
H     5.52220  -0.44079  -1.09720
H     1.94390  -1.64122  -0.09847
27

C    -4.36499  -0.01992  -1.37191
O    -2.98642   0.22528  -1.06843
C    -2.57956  -0.07760   0.17826
O    -3.32421  -0.52779   1.03095
C    -1.15396   0.20203   0.34559
C    -0.32220  -0.16110   1.34331
Cl   -0.62028  -1.05366   2.77062
C     1.09093   0.27557   0.90797
O     0.75129   1.47099   0.19237
C    -0.20049   0.84387  -0.69553
C     0.67332  -0.26872  -1.30001
N     2.10365   1.00926  -2.54678
N     3.04841   0.89003  -1.87372
C     3.44268   0.25186  -0.73303
C     4.49345  -0.81844  -0.89050
C     1.54870  -0.62967  -0.26685
H    -4.50242   0.27834  -2.41801
H    -4.60468  -1.08667  -1.24790
H    -5.01798   0.57623  -0.71825
H     1.80679   0.44729   1.71271
H    -0.65681   1.56078  -1.38253
H     0.33969  -0.89418  -2.13702
H     3.64071   1.00408   0.06555
H     4.21919  -1.51053  -1.70033
H     4.54065  -1.37609   0.05252
H     5.51901  -0.43620  -1.09682
H     1.94029  -1.64204  -0.09722
27

C    -4.36498  -0.01973  -1.37175
O    -2.98619   0.22526  -1.06870
C    -2.57855  -0.07847   0.17736
O    -3.32293  -0.52728   1.03077
C    -1.15136   0.19851   0.34263
C    -0.31954  -0.16408   1.34071
Cl   -0.61969  -1.05353   2.76976
C     1.09293   0.27775   0.90841
O     0.75046   1.47349   0.19408
C    -0.19861   0.84522  -0.69644
C     0.68410  -0.25707  -1.30747
N     2.08812   0.99698  -2.53567
N     3.05420   0.89590  -1.87989
C     3.41900   0.23605  -0.72543
C     4.48864  -0.81889  -0.88864
C     1.56773  -0.61800  -0.26951
H    -4.50247   0.27839  -2.41796
H    -4.60466  -1.08661  -1.24783
H    -5.01790   0.57631  -0.71817
H     1.80627   0.44872   1.71368
H    -0.65703   1.56148  -1.38203
H     0.33819  -0.89596  -2.13423
H     3.63790   1.00049   0.06653
H     4.22019  -1.51118  -1.70023
H     4.54196  -1.37666   0.05267
H     5.51582  -0.43162  -1.09643
H     1.93668  -1.64285  -0.09598
27

C    -4.36496  -0.01954  -1.37160
O    -2.98596   0.22524  -1.06898
C    -2.57755  -0.07934   0.17646
O    -3.32165  -0.52676   1.03060
C    -1.14876   0.19498   0.33968
C    -0.31689  -0.16707   1.33811
Cl   -0.61909  -1.05340   2.76890
C     1.09493   0.27992   0.90886
O     0.74962   1.47599   0.19579
C    -0.19674   0.84657  -0.69736
C     0.69487  -0.24543  -1.31493
N     2.07260   0.98470  -2.52456
N     3.06000   0.90176  -1.88607
C     3.39532   0.22024  -0.71784
C     4.48383  -0.81934  -0.88678
C     1.58677  -0.60633  -0.27216
H    -4.50251   0.27844  -2.41791
H    -4.60465  -1.08655  -1.24775
H    -5.01783   0.57639  -0.71808
H     1.80575   0.45014   1.71465
H    -0.65724   1.56218  -1.38153
H     0.33668  -0.89775  -2.13145
H     3.63509   0.99690   0.06752
H     4.22118  -1.51184  -1.70013
H     4.54326  -1.37724   0.05282
H     5.51263  -0.42703  -1.09605
H     1.93307  -1.64367  -0.09473
27

C    -4.36495  -0.01935  -1.37145
O    -2.98573   0.22522  -1.06926
C    -2.57654  -0.08021   0.17556
O    -3.32037  -0.52625   1.03042
C    -1.14617   0.19146   0.33673
C    -0.31423  -0.17005   1.33551
Cl   -0.61850  -1.05326   2.76805
C     1.09692   0.28209   0.90930
O     0.74879   1.47848   0.19749
C    -0.19487   0.84792  -0.69828
C     0.70564  -0.23379  -1.32240
N     2.05707   0.97242  -2.51345
N     3.06579   0.90763  -1.89224
C     3.37164   0.20444  -0.71025
C     4.47902  -0.81979  -0.88492
C     1.60581  -0.59465  -0.27481
H    -4.50255   0.27849  -2.41786
H    -4.60464  -1.08650  -1.24767
H    -5.01776   0.57647  -0.71800
H     1.80524   0.45156   1.71562
H    -0.65745   1.56288  -1.38102
H     0.33518  -0.89953  -2.12866
H     3.63228   0.99332   0.06851
H     4.22218  -1.51250  -1.70003
H     4.54456  -1.37781   0.05297
H     5.50944  -0.42244  -1.09567
H     1.92946  -1.64448  -0.09349
27

C    -4.36494  -0.01916  -1.37129
O    -2.98550   0.22520  -1.06954
C    -2.57554  -0.08108   0.17467
O    -3.31908  -0.52573   1.03025
C    -1.14357   0.18794   0.33378
C    -0.31158  -0.17303   1.33291
Cl   -0.61790  -1.05313   2.76719
C     1.09892   0.28426   0.90974
O     0.74795   1.48098   0.19920
C    -0.19299   0.84927  -0.69920
C     0.71642  -0.22214  -1.32986
N     2.04154   0.96014  -2.50234
N     3.07159   0.91350  -1.89841
C     3.34795   0.18863  -0.70266
C     4.47421  -0.82024  -0.88306
C     1.62485  -0.58298  -0.27746
H    -4.50260   0.27853  -2.41781
H    -4.60462  -1.08644  -1.24759
H    -5.01769   0.57655  -0.71792
H     1.80472   0.45299   1.71660
H    -0.65767   1.56358  -1.38052
H     0.33367  -0.90131  -2.12587
H     3.62947   0.98973   0.06949
H     4.22317  -1.51316  -1.69993
H     4.54587  -1.37839   0.05312
H     5.50625  -0.41786  -1.09529
H     1.92585  -1.64530  -0.09224
27

C    -4.36492  -0.01897  -1.37114
O    -2.98527   0.22518  -1.06982
C    -2.57453  -0.08195   0.17377
O    -3.31780  -0.52521   1.03007
C    -1.14097   0.18442   0.33083
C    -0.30893  -0.17602   1.33031
Cl   -0.61730  -1.05300   2.76633
C     1.10091   0.28643   0.91019
O     0.74712   1.48348   0.20091
C    -0.19112   0.85062  -0.70011
C     0.72719  -0.21050  -1.33732
N     2.02602   0.94786  -2.49123
N     3.07738   0.91936  -1.90459
C     3.32427   0.17282  -0.69506
C     4.46939  -0.82069  -0.88120
C     1.64389  -0.57131  -0.28012
H    -4.50264   0.27858  -2.41775
H    -4.60461  -1.08638  -1.24752
H    -5.01761   0.57663  -0.71783
H     1.80420   0.45441   1.71757
H    -0.65788   1.56428  -1.38002
H     0.33217  -0.90310  -2.12309
H     3.62666   0.98615   0.07048
H     4.22417  -1.51382  -1.69983
H     4.54717  -1.37897   0.05327
H     5.50306  -0.41327  -1.09490
H     1.92224  -1.64612  -0.09100
27

C    -4.36491  -0.01878  -1.37098
O    -2.98504   0.22516  -1.07009
C    -2.57353  -0.08282   0.17287
O    -3.31652  -0.52470   1.02989
C    -1.13837   0.18089   0.32788
C    -0.30627  -0.17900   1.32771
Cl   -0.61671  -1.05286   2.76548
C     1.10291   0.28860   0.91063
O     0.74628   1.48597   0.20261
C    -0.18925   0.85197  -0.70103
C     0.73796  -0.19885  -1.34479
N     2.01049   0.93558  -2.48012
N     3.08317   0.92523  -1.91076
C     3.30059   0.15701  -0.68747
C     4.46458  -0.82114  -0.87934
C     1.66293  -0.55964  -0.28277
H    -4.50269   0.27863  -2.41770
H    -4.60460  -1.08633  -1.24744
H    -5.01754   0.57671  -0.71775
H     1.80369   0.45584   1.71854
H    -0.65809   1.56498  -1.37951
H     0.33066  -0.90488  -2.12030
H     3.62385   0.98256   0.07146
H     4.22516  -1.51448  -1.69973
H     4.54848  -1.37954   0.05342
H     5.49986  -0.40868  -1.09452
H     1.91863  -1.64693  -0.08975
27

C    -4.36490  -0.01859  -1.37083
O    -2.98481   0.22514  -1.07037
C    -2.57252  -0.08369   0.17197
O    -3.31524  -0.52418   1.02972
C    -1.13577   0.17737   0.32493
C    -0.30362  -0.18199   1.32511
Cl   -0.61611  -1.05273   2.76462
C     1.10490   0.29077   0.91107
O     0.74545   1.48847   0.20432
C    -0.18738   0.85332  -0.70195
C     0.74873  -0.18721  -1.35225
N     1.99497   0.92330  -2.46901
N     3.08897   0.93110  -1.91693
C     3.27691   0.14120  -0.67988
C     4.45977  -0.82159  -0.87748
C     1.68197  -0.54797  -0.28542
H    -4.50273   0.27868  -2.41765
H    -4.60458  -1.08627  -1.24736
H    -5.01747   0.57679  -0.71766
H     1.80317   0.45726   1.71951
H    -0.65831   1.56568  -1.37901
H     0.32916  -0.90666  -2.11751
H     3.62105   0.97897   0.07245
H     4.22616  -1.51513  -1.69963
H     4.54978  -1.38012   0.05357
H     5.49667  -0.40410  -1.09414
H     1.91502  -1.64775  -0.08851
27

C    -4.36491  -0.01878  -1.37098
O    -2.98504   0.22516  -1.07009
C    -2.57353  -0.08282   0.17287
O    -3.31652  -0.52470   1.02989
C    -1.13837   0.18089   0.32788
C    -0.30627  -0.17900   1.32771
Cl   -0.61671  -1.05286   2.76548
C     1.10291   0.28860   0.91063
O     0.74628   1.48597   0.20261
C    -0.18925   0.85197  -0.70103
C     0.73796  -0.19885  -1.34479
N     2.01049   0.93558  -2.48012
N     3.08317   0.92523  -1.91076
C     3.30059   0.15701  -0.68747
C     4.46458  -0.82114  -0.87934
C     1.66293  -0.55964  -0.28277
H    -4.50269   0.27863  -2.41770
H    -4.60460  -1.08633  -1.24744
H    -5.01754   0.57671  -0.71775
H     1.80369   0.45584   1.71854
H    -0.65809   1.56498  -1.37951
H     0.33066  -0.90488  -2.12030
H     3.62385   0.98256   0.07146
H     4.22516  -1.51448  -1.69973
H     4.54848  -1.37954   0.05342
H     5.49986  -0.40868  -1.09452
H     1.91863  -1.64693  -0.08975
27

C    -4.36492  -0.01897  -1.37114
O    -2.98527   0.22518  -1.06982
C    -2.57453  -0.08195   0.17377
O    -3.31780  -0.52521   1.03007
C    -1.14097   0.18442   0.33083
C    -0.30893  -0.17602   1.33031
Cl   -0.61730  -1.05300   2.76633
C     1.10091   0.28643   0.91019
O     0.74712   1.48348   0.20091
C    -0.19112   0.85062  -0.70011
C     0.72719  -0.21050  -1.33732
N     2.02602   0.94786  -2.49123
N     3.07738   0.91936  -1.90459
C     3.32427   0.17282  -0.69506
C     4.46939  -0.82069  -0.88120
C     1.64389  -0.57131  -0.28012
H    -4.50264   0.27858  -2.41775
H    -4.60461  -1.08638  -1.24752
H    -5.01761   0.57663  -0.71783
H     1.80420   0.45441   1.71757
H    -0.65788   1.56428  -1.38002
H     0.33217  -0.90310  -2.12309
H     3.62666   0.98615   0.07048
H     4.22417  -1.51382  -1.69983
H     4.54717  -1.37897   0.05327
H     5.50306  -0.41327  -1.09490
H     1.92224  -1.64612  -0.09100
27

C    -4.36494  -0.01916  -1.37129
O    -2.98550   0.22520  -1.06954
C    -2.57554  -0.08108   0.17467
O    -3.31908  -0.52573   1.03025
C    -1.14357   0.18794   0.33378
C    -0.31158  -0.17303   1.33291
Cl   -0.61790  -1.05313   2.76719
C     1.09892   0.28426   0.90974
O     0.74795   1.48098   0.19920
C    -0.19299   0.84927  -0.69920
C     0.71642  -0.22214  -1.32986
N     2.04154   0.96014  -2.50234
N     3.07159   0.91350  -1.89841
C     3.34795   0.18863  -0.70266
C     4.47421  -0.82024  -0.88306
C     1.62485  -0.58298  -0.27746
H    -4.50260   0.27853  -2.41781
H    -4.60462  -1.08644  -1.24759
H    -5.01769   0.57655  -0.71792
H     1.80472   0.45299   1.71660
H    -0.65767   1.56358  -1.38052
H     0.33367  -0.90131  -2.12587
H     3.62947   0.98973   0.06949
H     4.22317  -1.51316  -1.69993
H     4.54587  -1.37839   0.05312
H     5.50625  -0.41786  -1.09529
H     1.92585  -1.64530  -0.09224
27

C    -4.36495  -0.01935  -1.37145
O    -2.98573   0.22522  -1.06926
C    -2.57654  -0.08021   0.17556
O    -3.32037  -0.52625   1.03042
C    -1.14617   0.19146   0.33673
C    -0.31423  -0.17005   1.33551
Cl   -0.61850  -1.05326   2.76805
C     1.09692   0.28209   0.90930
O     0.74879   1.47848   0.19749
C    -0.19487   0.84792  -0.69828
C     0.70564  -0.23379  -1.32240
N     2.05707   0.97242  -2.51345
N     3.06579   0.90763  -1.89224
C     3.37164   0.20444  -0.71025
C     4.47902  -0.81979  -0.88492
C     1.60581  -0.59465  -0.27481
H    -4.50255   0.27849  -2.41786
H    -4.60464  -1.08650  -1.24767
H    -5.01776   0.57647  -0.71800
H     1.80524   0.45156   1.71562
H    -0.65745   1.56288  -1.38102
H     0.33518  -0.89953  -2.12866
H     3.63228   0.99332   0.06851
H     4.22218  -1.51250  -1.70003
H     4.54456  -1.37781   0.05297
H     5.50944  -0.42244  -1.09567
H     1.92946  -1.64448  -0.09349
27

C    -4.36496  -0.01954  -1.37160
O    -2.98596   0.22524  -1.06898
C    -2.57755  -0.07934   0.17646
O    -3.32165  -0.52676   1.03060
C    -1.14876   0.19498   0.33968
C    -0.31689  -0.16707   1.33811
Cl   -0.61909  -1.05340   2.76890
C     1.09493   0.27992   0.90886
O     0.74962   1.47599   0.19579
C    -0.19674   0.84657  -0.69736
C     0.69487  -0.24543  -1.31493
N     2.07260   0.98470  -2.52456
N     3.06000   0.90176  -1.88607
C     3.39532   0.22024  -0.71784
C     4.48383  -0.81934  -0.88678
C     1.58677  -0.60633  -0.27216
H    -4.50251   0.27844  -2.41791
H    -4.60465  -1.08655  -1.24775
H    -5.01783   0.57639  -0.71808
H     1.80575   0.45014   1.71465
H    -0.65724   1.56218  -1.38153
H     0.33668  -0.89775  -2.13145
H     3.63509   0.99690   0.06752
H     4.22118  -1.51184  -1.70013
H     4.54326  -1.37724   0.05282
H     5.51263  -0.42703  -1.09605
H     1.93307  -1.64367  -0.09473
27

C    -4.36498  -0.01973  -1.37175
O    -2.98619   0.22526  -1.06870
C    -2.57855  -0.07847   0.17736
O    -3.32293  -0.52728   1.03077
C    -1.15136   0.19851   0.34263
C    -0.31954  -0.16408   1.34071
Cl   -0.61969  -1.05353   2.76976
C     1.09293   0.27775   0.90841
O     0.75046   1.47349   0.19408
C    -0.19861   0.84522  -0.69644
C     0.68410  -0.25707  -1.30747
N     2.08812   0.99698  -2.53567
N     3.05420   0.89590  -1.87989
C     3.41900   0.23605  -0.72543
C     4.48864  -0.81889  -0.88864
C     1.56773  -0.61800  -0.26951
H    -4.50247   0.27839  -2.41796
H    -4.60466  -1.08661  -1.24783
H    -5.01790   0.57631  -0.71817
H     1.80627   0.44872   1.71368
H    -0.65703   1.56148  -1.38203
H     0.33819  -0.89596  -2.13423
H     3.63790   1.00049   0.06653
H     4.22019  -1.51118  -1.70023
H     4.54196  -1.37666   0.05267
H     5.51582  -0.43162  -1.09643
H     1.93668  -1.64285  -0.09598
27

C    -4.36499  -0.01992  -1.37191
O    -2.98642   0.22528  -1.06843
C    -2.57956  -0.07760   0.17826
O    -3.32421  -0.52779   1.03095
C    -1.15396   0.20203   0.34559
C    -0.32220  -0.16110   1.34331
Cl   -0.62028  -1.05366   2.77062
C     1.09093   0.27557   0.90797
O     0.75129   1.47099   0.19237
C    -0.20049   0.84387  -0.69553
C     0.67332  -0.26872  -1.30001
N     2.10365   1.00926  -2.54678
N     3.04841   0.89003  -1.87372
C     3.44268   0.25186  -0.73303
C     4.49345  -0.81844  -0.89050
C     1.54870  -0.62967  -0.26685
H    -4.50242   0.27834  -2.41801
H    -4.60468  -1.08667  -1.24790
H    -5.01798   0.57623  -0.71825
H     1.80679   0.44729   1.71271
H    -0.65681   1.56078  -1.38253
H     0.33969  -0.89418  -2.13702
H     3.64071   1.00408   0.06555
H     4.21919  -1.51053  -1.70033
H     4.54065  -1.37609   0.05252
H     5.51901  -0.43620  -1.09682
H     1.94029  -1.64204  -0.09722
27

C    -4.36500  -0.02011  -1.37206
O    -2.98665   0.22530  -1.06815
C    -2.58056  -0.07673   0.17916
O    -3.32549  -0.52831   1.03112
C    -1.15656   0.20555   0.34854
C    -0.32485  -0.15812   1.34591
Cl   -0.62088  -1.05380   2.77148
C     1.08894   0.27340   0.90753
O     0.75213   1.46850   0.19067
C    -0.20236   0.84252  -0.69461
C     0.66255  -0.28036  -1.29255
N     2.11917   1.02154  -2.55789
N     3.04262   0.88416  -1.86755
C     3.46636   0.26767  -0.74062
C     4.49826  -0.81799  -0.89236
C     1.52966  -0.64134  -0.26420
H    -4.50238   0.27829  -2.41806
H    -4.60469  -1.08672  -1.24798
H    -5.01805   0.57615  -0.71834
H     1.80730   0.44587   1.71174
H    -0.65660   1.56008  -1.38303
H     0.34120  -0.89240  -2.13981
H     3.64351   1.00766   0.06456
H     4.21819  -1.50987  -1.70043
H     4.53935  -1.37551   0.05236
H     5.52220  -0.44079  -1.09720
H     1.94390  -1.64122  -0.09847
27

C    -4.36502  -0.02030  -1.37222
O    -2.98688   0.22532  -1.06787
C    -2.58157  -0.07586   0.18005
O    -3.32678  -0.52883   1.03130
C    -1.15916   0.20908   0.35149
C    -0.32751  -0.15513   1.34850
Cl   -0.62147  -1.05393   2.77233
C     1.08694   0.27123   0.90708
O     0.75296   1.46600   0.18896
C    -0.20423   0.84117  -0.69369
C     0.65178  -0.29200  -1.28508
N     2.13470   1.03382  -2.56900
N     3.03682   0.87830  -1.86137
C     3.49004   0.28348  -0.74821
C     4.50308  -0.81754  -0.89422
C     1.51062  -0.65301  -0.26155
H    -4.50233   0.27824  -2.41811
H    -4.60471  -1.08678  -1.24806
H    -5.01812   0.57607  -0.71842
H     1.80782   0.44445   1.71077
H    -0.65638   1.55938  -1.38354
H     0.34270  -0.89062  -2.14260
H     3.64632   1.01125   0.06358
H     4.21720  -1.50921  -1.70053
H     4.53805  -1.37493   0.05221
H     5.52539  -0.44538  -1.09758
H     1.94751  -1.64041  -0.09971
27

C    -4.36503  -0.02049  -1.37237
O    -2.98711   0.22533  -1.06759
C    -2.58257  -0.07499   0.18095
O    -3.32806  -0.52934   1.03148
C    -1.16175   0.21260   0.35444
C    -0.33016  -0.15215   1.35110
Cl   -0.62207  -1.05406   2.77319
C     1.08495   0.26906   0.90664
O     0.75379   1.46351   0.18726
C    -0.20610   0.83981  -0.69278
C     0.64100  -0.30365  -1.27762
N     2.15023   1.04610  -2.58011
N     3.03103   0.87243  -1.85520
C     3.51372   0.29928  -0.75580
C     4.50789  -0.81709  -0.89608
C     1.49158  -0.66469  -0.25890
H    -4.50229   0.27820  -2.41816
H    -4.60472  -1.08684  -1.24814
H    -5.01819   0.57599  -0.71851
H     1.80834   0.44302   1.70980
H    -0.65617   1.55868  -1.38404
H     0.34421  -0.88883  -2.14538
H     3.64913   1.01484   0.06259
H     4.21620  -1.50855  -1.70062
H     4.53674  -1.37436   0.05206
H     5.52858  -0.44996  -1.09796
H     1.95112  -1.63959  -0.10096
27

C    -4.36504  -0.02068  -1.37253
O    -2.98734   0.22535  -1.06731
C    -2.58358  -0.07412   0.18185
O    -3.32934  -0.52986   1.03165
C    -1.16435   0.21612   0.35739
C    -0.33281  -0.14917   1.35370
Cl   -0.62266  -1.05420   2.77405
C     1.08295   0.26689   0.90620
O     0.75463   1.46101   0.18555
C    -0.20798   0.83846  -0.69186
C     0.63023  -0.31529  -1.27016
N     2.16575   1.05837  -2.59122
N     3.02524   0.86656  -1.84903
C     3.53740   0.31509  -0.76339
C     4.51270  -0.81664  -0.89794
C     1.47254  -0.67636  -0.25625
H    -4.50225   0.27815  -2.41821
H    -4.60473  -1.08689  -1.24822
H    -5.01827   0.57591  -0.71859
H     1.80885   0.44160   1.70882
H    -0.65596   1.55798  -1.38454
H     0.34572  -0.88705  -2.14817
H     3.65194   1.01842   0.06161
H     4.21521  -1.50789  -1.70072
H     4.53544  -1.37378   0.05191
H     5.53177  -0.45455  -1.09835
H     1.95473  -1.63878  -0.10220
27

C    -4.36505  -0.02087  -1.37268
O    -2.98757   0.22537  -1.06704
C    -2.58458  -0.07324   0.18275
O    -3.33062  -0.53038   1.03183
C    -1.16695   0.21964   0.36034
C    -0.33547  -0.14618   1.35630
Cl   -0.62326  -1.05433   2.77490
C     1.08096   0.26472   0.90575
O     0.75546   1.45851   0.18384
C    -0.20985   0.83711  -0.69094
C     0.61946  -0.32694  -1.26270
N     2.18128   1.07065  -2.60233
N     3.01944   0.86070  -1.84286
C     3.56109   0.33090  -0.77099
C     4.51751  -0.81619  -0.89980
C     1.45350  -0.68803  -0.25359
H    -4.50220   0.27810  -2.41827
H    -4.60475  -1.08695  -1.24829
H    -5.01834   0.57583  -0.71867
H     1.80937   0.44017   1.70785
H    -0.65574   1.55728  -1.38505
H     0.34722  -0.88527  -2.15096
H     3.65475   1.02201   0.06062
H     4.21421  -1.50724  -1.70082
H     4.53413  -1.37321   0.05176
H     5.53496  -0.45914  -1.09873
H     1.95834  -1.63796  -0.10345
27

C    -4.36507  -0.02106  -1.37283
O    -2.98780   0.22539  -1.06676
C    -2.58559  -0.07237   0.18364
O    -3.33190  -0.53089   1.03200
C    -1.16955   0.22317   0.36329
C    -0.33812  -0.14320   1.35890
Cl   -0.62385  -1.05446   2.77576
C     1.07896   0.26255   0.90531
O     0.75630   1.45602   0.18214
C    -0.21172   0.83576  -0.69002
C     0.60869  -0.33858  -1.25523
N     2.19680   1.08293  -2.61344
N     3.01365   0.85483  -1.83668
C     3.58477   0.34671  -0.77858
C     4.52232  -0.81574  -0.90166
C     1.43446  -0.69970  -0.25094
H    -4.50216   0.27805  -2.41832
H    -4.60476  -1.08701  -1.24837
H    -5.01841   0.57575  -0.71876
H     1.80989   0.43875   1.70688
H    -0.65553   1.55658  -1.38555
H     0.34873  -0.88348  -2.15374
H     3.65756   1.02559   0.05963
H     4.21322  -1.50658  -1.70092
H     4.53283  -1.37263   0.05161
H     5.53816  -0.46372  -1.09911
H     1.96195  -1.63714  -0.10469
27

C    -4.36508  -0.02125  -1.37299
O    -2.98803   0.22541  -1.06648
C    -2.58659  -0.07150   0.18454
O    -3.33319  -0.53141   1.03218
C    -1.17215   0.22669   0.36624
C    -0.34078  -0.14021   1.36150
Cl   -0.62445  -1.05460   2.77662
C     1.07696   0.26038   0.90487
O     0.75713   1.45352   0.18043
C    -0.21359   0.83441  -0.68911
C     0.59791  -0.35022  -1.24777
N     2.21233   1.09521  -2.62455
N     3.00785   0.84896  -1.83051
C     3.60845   0.36252  -0.78617
C     4.52713  -0.81529  -0.90352
C     1.41542  -0.71138  -0.24829
H    -4.50211   0.27800  -2.41837
H    -4.60477  -1.08706  -1.24845
H    -5.01848   0.57567  -0.71884
H     1.81040   0.43733   1.70591
H    -0.65532   1.55588  -1.38605
H     0.35023  -0.88170  -2.15653
H     3.66037   1.02918   0.05865
H     4.21222  -1.50592  -1.70102
H     4.53153  -1.37205   0.05146
H     5.54135  -0.46831  -1.09949
H     1.96556  -1.63633  -0.10594
27

C    -4.36509  -0.02144  -1.37314
O    -2.98826   0.22543  -1.06620
C    -2.58760  -0.07063   0.18544
O    -3.33447  -0.53193   1.03235
C    -1.17475   0.23021   0.36920
C    -0.34343  -0.13723   1.36410
Cl   -0.62505  -1.05473   2.77748
C     1.07497   0.25821   0.90442
O     0.75797   1.45102   0.17872
C    -0.21547   0.83306  -0.68819
C     0.58714  -0.36187  -1.24031
N     2.22786   1.10749  -2.63566
N     3.00206   0.84310  -1.82434
C     3.63213   0.37833  -0.79376
C     4.53194  -0.81484  -0.90538
C     1.39638  -0.72305  -0.24564
H    -4.50207   0.27796  -2.41842
H    -4.60479  -1.08712  -1.24853
H    -5.01856   0.57559  -0.71893
H     1.81092   0.43590   1.70494
H    -0.65510   1.55518  -1.38656
H     0.35174  -0.87992  -2.15932
H     3.66317   1.03277   0.05766
H     4.21123  -1.50526  -1.70112
H     4.53022  -1.37148   0.05130
H     5.54454  -0.47290  -1.09988
H     1.96918  -1.63551  -0.10718
27

C    -4.36511  -0.02162  -1.37330
O    -2.98849   0.22545  -1.06592
C    -2.58860  -0.06976   0.18634
O    -3.33575  -0.53244   1.03253
C    -1.17734   0.23374   0.37215
C    -0.34609  -0.13425   1.36670
Cl   -0.62564  -1.05487   2.77833
C     1.07297   0.25604   0.90398
O     0.75880   1.44853   0.17702
C    -0.21734   0.83171  -0.68727
C     0.57637  -0.37351  -1.23284
N     2.24338   1.11977  -2.64677
N     2.99627   0.83723  -1.81816
C     3.65581   0.39413  -0.80135
C     4.53676  -0.81439  -0.90725
C     1.37734  -0.73472  -0.24298
H    -4.50202   0.27791  -2.41847
H    -4.60480  -1.08718  -1.24860
H    -5.01863   0.57551  -0.71901
H     1.81144   0.43448   1.70397
H    -0.65489   1.55448  -1.38706
H     0.35324  -0.87813  -2.16210
H     3.66598   1.03635   0.05668
H     4.21023  -1.50460  -1.70122
H     4.52892  -1.37090   0.05115
H     5.54773  -0.47748  -1.10026
H     1.97279  -1.63470  -0.10843
27

C    -4.36512  -0.02181  -1.37345
O    -2.98872   0.22547  -1.06565
C    -2.58961  -0.06889   0.18723
O    -3.33703  -0.53296   1.03271
C    -1.17994   0.23726   0.37510
C    -0.34874  -0.13126   1.36930
Cl   -0.62624  -1.05500   2.77919
C     1.07098   0.25386   0.90354
O     0.75964   1.44603   0.17531
C    -0.21921   0.83036  -0.68636
C     0.56559  -0.38515  -1.22538
N     2.25891   1.13205  -2.65787
N     2.99047   0.83136  -1.81199
C     3.67949   0.40994  -0.80895
C     4.54157  -0.81394  -0.90911
C     1.35830  -0.74639  -0.24033
H    -4.50198   0.27786  -2.41852
H    -4.60482  -1.08723  -1.24868
H    -5.01870   0.57543  -0.71910
H     1.81195   0.43306   1.70299
H    -0.65467   1.55378  -1.38756
H     0.35475  -0.87635  -2.16489
H     3.66879   1.03994   0.05569
H     4.20924  -1.50395  -1.70132
H     4.52762  -1.37032   0.05100
H     5.55092  -0.48207  -1.10064
H     1.97640  -1.63388  -0.10967
27

C    -4.36513  -0.02200  -1.37361
O    -2.98895   0.22549  -1.06537
C    -2.59061  -0.06802   0.18813
O    -3.33831  -0.53348   1.03288
C    -1.18254   0.24078   0.37805
C    -0.35140  -0.12828   1.37189
Cl   -0.62683  -1.05513   2.78005
C     1.06898   0.25169   0.90309
O     0.76047   1.44353   0.17360
C    -0.22108   0.82901  -0.68544
C     0.55482  -0.39680  -1.21792
N     2.27444   1.14433  -2.66898
N     2.98468   0.82550  -1.80582
C     3.70317   0.42575  -0.81654
C     4.54638  -0.81349  -0.91097
C     1.33926  -0.75806  -0.23768
H    -4.50194   0.27781  -2.41857
H    -4.60483  -1.08729  -1.24876
H    -5.01877   0.57535  -0.71918
H     1.81247   0.43163   1.70202
H    -0.65446   1.55308  -1.38806
H     0.35625  -0.87457  -2.16768
H     3.67160   1.04353   0.05471
H     4.20824  -1.50329  -1.70142
H     4.52631  -1.36975   0.05085
H     5.55411  -0.48666  -1.10103
H     1.98001  -1.63307  -0.11092
27

C    -4.36515  -0.02219  -1.37376
O    -2.98918   0.22551  -1.06509
C    -2.59162  -0.06715   0.18903
O    -3.33960  -0.53399   1.03306
C    -1.18514   0.24430   0.38100
C    -0.35405  -0.12530   1.37449
Cl   -0.62743  -1.05527   2.78090
C     1.06699   0.24952   0.90265
O     0.76130   1.44104   0.17190
C    -0.22296   0.82766  -0.68452
C     0.54405  -0.40844  -1.21046
N     2.28996   1.15661  -2.68009
N     2.97889   0.81963  -1.79964
C     3.72686   0.44156  -0.82413
C     4.55119  -0.81304  -0.91283
C     1.32022  -0.76974  -0.23503
H    -4.50189   0.27776  -2.41862
H    -4.60484  -1.08735  -1.24884
H    -5.01885   0.57527  -0.71926
H     1.81299   0.43021   1.70105
H    -0.65425   1.55238  -1.38857
H     0.35776  -0.87279  -2.17046
H     3.67441   1.04711   0.05372
H     4.20725  -1.50263  -1.70152
H     4.52501  -1.36917   0.05070
H     5.55730  -0.49124  -1.10141
H     1.98362  -1.63225  -0.11216
