11

N 2.899780770 1.161458406 -4.355376710
C 1.104984546 1.675630680 -3.235278891
C 0.793301245 -2.541034784 2.012250543
C -1.039773461 -1.227714358 0.933569587
C -0.941780106 1.569174679 0.635430803
O -0.911522209 2.291962607 -2.034613656
H 2.482935533 -1.631043178 2.732286690
H 0.675047248 -4.573720448 2.215123282
H -2.709153400 -2.163112104 0.194394312
H -2.636876723 2.490993589 1.347498674
H 0.722873306 2.381709745 1.541520502

