13

C 0.786624767 0.886944714 2.283743943
O 0.017994785 -1.668353213 2.235849968
C 0.333708040 -2.553427740 -0.275070406
C -3.171510461 0.323008165 -1.904123173
O -2.795296584 2.249939501 -0.358298782
C -0.058120946 1.977229685 -0.212670458
C -0.340072468 -0.313328421 -1.964735950
H 2.854379533 1.048026707 2.415284962
H -0.071839526 1.799766714 3.918123111
H 2.296749170 -3.138414799 -0.603359467
H -0.909245145 -4.174335505 -0.536664928
H 0.894020075 3.695663305 -0.819948953
H 0.544580991 -0.333141557 -3.819628053

