15

C -0.814742701 2.783848793 -3.114329238
N -1.589566222 -0.670954876 0.364566058
C -2.195948798 -2.561502370 2.231246746
C 0.673677782 -0.045096783 -0.023895266
O 1.247471143 1.712117588 -1.776989996
C 3.029870404 -1.012448418 1.239302348
H -1.865676827 1.329717920 -4.129944440
H -2.108872183 3.738958858 -1.824310779
H 0.013107764 4.128645008 -4.431076418
H -2.846773895 -4.281528878 1.289166816
H -3.763440732 -1.886774561 3.390282448
H -0.640162091 -3.074041335 3.497808601
H 4.683764945 -0.106511843 0.425182161
H 3.197442757 -3.052375663 0.997590049
H 2.982917570 -0.618467639 3.262261931

