15

C -1.685492764 2.530230880 -2.576268407
N -1.024493268 -0.292296015 0.119487099
C -2.126474661 -2.309224783 1.570521940
C 1.345383825 0.253574147 0.000778151
O 1.888611092 2.061112984 -1.464128243
C 3.387332944 -1.120932341 1.408909463
H -3.532233969 2.528443445 -1.702808740
H -0.962265267 4.421793535 -2.860057971
H -1.561710298 1.339830109 -4.229983858
H -1.419368530 -4.173409123 1.007629862
H -4.166378738 -2.310610066 1.263650090
H -1.813003754 -2.081703534 3.606070784
H 5.145068748 -0.062315722 1.335655647
H 3.685515286 -2.971119084 0.544329525
H 2.842580158 -1.429784908 3.373073751

