10

C -2.490866770 -1.552213518 0.110172602
O -1.252336602 -0.932160701 2.408106195
H 0.225786821 -1.958194171 2.592386032
C -4.402972524 0.510600068 -0.383353829
O -3.234674443 2.884468697 -0.677430079
H -2.152904540 3.116841685 0.763056915
H -5.777091619 0.545054575 1.171131177
H -5.422898494 0.112159781 -2.131692553
H -1.138917564 -1.626408096 -1.457427142
H -3.452441323 -3.384003096 0.250195733

