17

C 3.845666193 1.924714479 -0.615290480
O 3.402158016 -0.575042904 0.299470568
C 2.064689498 -2.025185529 -1.323009543
C -1.698493135 -1.541410086 0.490459821
O -0.912784546 -0.316587915 2.639032013
C -3.864728918 -0.114581257 -0.722744956
O -3.268550222 2.449415457 -1.082832817
H 4.910745770 2.916007886 0.839431557
H 2.047556353 2.879970261 -0.963478263
H 4.922063888 1.838777067 -2.368469927
H -0.114189025 -1.278165189 -1.538605543
H 2.050351144 -3.945383091 -0.556846429
H -2.121081269 -3.543973647 0.758735697
H 0.929311221 -0.379837786 2.699407534
H -5.545335134 -0.324910439 0.480696475
H -4.305745529 -0.920557821 -2.569979096
H -2.698560105 3.075427185 0.526000826

