17

C -2.591049353 -0.099022707 0.129425585
C -1.345638465 -3.871895421 0.042420062
O 0.194086268 -1.700189769 -0.987082662
C 2.601231915 -1.149782034 0.051132776
C 2.828466928 1.650209801 0.345860718
C 0.921959525 3.232796736 -0.016465996
C -1.716249172 2.472991057 -0.763442589
H -2.641778673 -0.287862982 2.167289325
H -4.351656350 -0.671755024 -0.726989753
H -0.631170245 -4.260578391 1.947842724
H -0.956939319 -5.510473731 -1.162314490
H 2.814605862 -2.109965730 1.873760736
H 4.056594097 -1.890240546 -1.229483690
H 4.676000438 2.369169692 0.866003808
H 1.266233478 5.243890313 0.189296852
H -1.923690569 2.608625677 -2.816544211
H -3.074833112 3.822899302 0.032100154

