10

C -3.921692747 0.761890689 -0.405316963
O -1.697810490 1.657444315 -1.701183198
C 0.384346294 0.631313373 -1.004711161
O 5.017654436 -3.027614204 1.903277199
C 2.342413174 -0.326147454 -0.358427113
C 4.740039496 -1.397246735 0.338949876
H -5.497000551 1.799502530 -1.214237569
H -4.144455326 -1.260075673 -0.727672152
H -3.751933377 1.152543774 1.609745228
H 6.372224900 -0.596247351 -0.689069734

