10

C -3.209764602 0.168631978 -0.209226546
O -1.070804786 1.197035921 -1.556228675
C 1.106145178 1.061211100 -0.516807271
O 1.710603993 -1.734021026 0.833130624
C 3.498532877 1.917511599 -0.579252212
C 3.784659371 -0.701937503 -0.099489262
H -4.813345147 0.436346890 -1.459485545
H -2.888818922 -1.825910262 0.166173312
H -3.479030676 1.207686342 1.546895488
H 5.312177758 -1.950629314 -0.703020467

