13

N -4.178889386 0.828094504 -0.454862747
C -1.589073476 0.184336528 -0.062110536
C -2.424746953 -2.255784878 0.148916333
N 2.380529044 -2.657999591 0.210245562
C 2.739179957 -0.282087166 0.345752399
O 5.067566847 0.707334050 0.786888894
C 0.615524296 1.432623749 0.070318561
H -4.601464292 1.697239037 -2.095788551
H -5.184026435 1.400124617 1.051623159
H -2.578931182 -3.393525029 -1.557616698
H 3.988188165 -3.644940674 0.552298670
H 4.954306792 2.511600807 0.926818256
H 0.784671829 3.467823221 0.064487036

