13

N -3.974231820 1.617299597 -0.402596910
C -1.847034396 0.290728733 -0.834775725
C -1.001552900 -2.089929209 -1.373828304
N 1.518417599 -2.238370390 -0.364062314
C 2.212547339 -0.087728778 0.641963718
O 4.567163722 0.190959055 1.468895436
C 0.246400804 1.746282419 0.387958430
H -2.012857731 2.270557793 1.441109527
H -5.620664191 0.673114323 -0.617979900
H -2.007799520 -3.811143807 -1.776216909
H 2.637251173 -3.774118611 -0.420360695
H 4.708804420 1.789623363 2.317905297
H 0.798468795 3.554800379 -0.414447345

