13

C 2.528920128 -0.740300776 -0.795056838
C 0.654770562 0.373300108 1.195310015
C -0.272673836 2.072369477 -0.933478672
C 1.396401233 1.172396802 -2.583953242
C -3.253357523 -1.536092529 1.866882454
N -0.936683893 -1.484871445 2.395876814
H 2.140422767 -2.715198029 -1.242901728
H 4.532576480 -0.520957544 -0.355888568
H 1.643351626 1.394495086 2.694166454
H -1.685809142 3.549262159 -1.041141868
H 1.850216959 1.659864317 -4.519844998
H -4.449097885 -2.952361416 2.759239117
H -4.155120505 -0.228620163 0.538450720

