16

C -2.191053027 2.642110830 -2.898941505
C -1.023167852 -1.028837162 0.692661574
C -0.635106979 -3.068286987 2.618608363
C 0.742287426 0.505461884 -0.246306620
O 0.289560939 2.335761016 -2.002205798
C 3.491124640 0.536847344 0.405285442
H -2.876109512 0.926143190 -3.831540792
H -2.126808424 4.179949277 -4.262809289
H -3.493695405 3.138905372 -1.369348254
H -2.949367731 -0.818394767 0.030293009
H 1.332887614 -3.279241026 3.181141960
H -1.268930117 -4.895137482 1.890666622
H -1.733798680 -2.692164195 4.327965666
H 4.018147543 2.401959048 1.112042503
H 3.973700013 -0.865182987 1.824744263
H 4.614699801 0.179049472 -1.287816058

