16

C -2.940920372 2.339590376 -2.139205783
C -0.860159755 -0.864923112 0.209292951
C -0.922103635 -2.126356269 2.747331480
C 1.209339871 0.345621119 -0.857230207
O 0.832414909 1.846062151 -2.678983809
C 3.899238435 -0.030786227 -0.029354061
H -2.883767344 2.666597712 -4.154526281
H -2.504299019 3.956800287 -0.975688483
H -4.583942392 1.284905294 -1.532053579
H -2.053761722 -1.691293619 -1.241097928
H 0.254991990 -1.137446412 4.121688964
H -0.310750268 -4.105891855 2.686120189
H -2.844889952 -2.125669921 3.501623297
H 4.663219275 1.736808353 0.710134738
H 4.098526949 -1.505999661 1.390129648
H 5.015915473 -0.526237382 -1.690647994

