10

O 6.365907130 -0.541336596 1.388945659
C 4.234463642 -0.379924203 0.904218039
C 1.808491013 -0.215847277 0.343503398
N 0.397181560 -2.222420100 -0.580287876
C -1.832677183 -1.373770384 -0.885159414
C -2.082045026 1.362306228 -0.161512889
O 0.415662873 1.983854743 0.631631206
H -2.642847956 2.566175720 -1.750667094
H -3.354755786 -2.545506179 -1.593231648
H -3.419504077 1.663995958 1.390946709

