10

O 5.164521324 0.941558271 -0.567654717
C 3.098142770 0.464330634 -0.067930930
C 1.338086515 -1.051158588 1.585753038
N 0.088769752 -2.650032392 -0.083209082
C -1.901954618 -1.388631076 -0.804398434
C -1.769144855 1.087641716 0.260681596
O -0.294167997 0.844810190 2.361917849
H 0.650591471 1.631909391 -1.112490859
H -3.234144923 -2.080616356 -2.192704308
H -3.250823249 2.497712359 0.308423788

