16

C -1.902931663 -1.428851289 2.649120429
C -1.048712508 0.777084673 1.032255866
C 1.811681929 1.477278034 0.947402401
C 1.752149660 1.248691131 -1.926020639
C 0.979395351 -1.363991278 -2.657473604
C -1.010232771 0.470933337 -1.842461258
H -1.607429784 -1.033357047 4.654200274
H -3.911576495 -1.815051745 2.368086407
H -0.861228149 -3.151409690 2.193401673
H -2.138323395 2.457495378 1.530481743
H 2.178398779 3.386782675 1.623705580
H 3.097334855 0.176679547 1.909810474
H 2.681594768 2.507999386 -3.240168576
H 1.494100150 -2.958746423 -1.474181019
H 1.011193413 -1.765760223 -4.663888862
H -2.525414100 1.014223532 -3.104270906

