16

C -1.778197059 -1.549904915 2.720262268
C -1.221000842 0.674735519 0.990622497
C 1.556034733 1.566995277 0.762010819
C 1.604878012 1.248749958 -2.098655681
C 0.604498896 -1.370284066 -2.630611998
C -1.702055307 0.087594929 -1.858880749
H -1.435300339 -1.037745086 4.689701047
H -3.752762513 -2.126623288 2.550518413
H -0.601982197 -3.189301136 2.289901842
H -2.427646077 2.247766505 1.559987208
H 1.804186122 3.517320572 1.373374921
H 2.956894019 0.400973371 1.733884965
H 2.971946311 2.076143241 -3.390019152
H 1.333812446 -2.810213534 -1.362777450
H 0.653326509 -1.953039282 -4.597353041
H -0.304705317 2.358194768 -2.707163254

