11

N -3.436290041 -0.395623613 -0.212050685
C -1.100380587 0.208941594 0.382121387
C 0.606906445 -1.750805327 -0.416738846
C 2.957123583 -0.327944640 -0.613812638
N 2.754751168 1.971873445 0.185342732
N 0.241793916 2.276316336 0.963211453
H -4.965396045 0.450974711 0.559000471
H -1.932759629 -2.169147228 -1.399852554
H 0.622093721 -3.472041940 0.708269578
H 4.789300857 -0.988374592 -1.231485647
H -0.407789783 4.053642609 1.097044389

