10

C -2.906191987 1.493501654 1.195039350
C -0.428684863 0.022387056 1.355268755
C -0.507992813 -2.342272219 -0.217623506
O 1.023559875 -2.911405118 -1.789349448
H -2.148802663 -3.602132406 0.162657118
H 1.182925846 1.157228859 0.752954609
H -0.096012222 -0.564615149 3.313936794
H -2.858507753 3.142145269 2.428914310
H -4.510821329 0.327430276 1.766435139
H -3.254229140 2.151783422 -0.728277469

