13

C -3.034066163 0.656204713 0.733763344
C -0.643912593 -1.085955873 -0.445629186
O -0.320955488 -0.948690098 -2.874361553
C 0.965015007 0.456782634 1.077522724
O 4.166571395 -0.815425515 -1.001013251
H -2.963085461 2.606877227 0.087477917
H -3.393347999 0.525138638 2.757493558
H -4.548504887 -0.303492151 -0.276285821
H -1.023371848 -2.956099465 0.406702510
H 2.759033590 -0.988127605 -2.294569768
H 1.386532687 2.335326323 0.391789188
H 1.361499239 0.028729128 3.044567296
H 5.258405998 0.502287050 -1.598758587

