19

C 3.920882414 -0.258785445 1.837325361
C 2.902241004 -0.973598294 -0.761329365
C 0.589898740 0.505852264 -1.460334844
C -1.547543626 -0.281765705 -3.194807855
C -1.864383858 0.288537066 -0.484647439
C -3.266635438 -0.997809428 1.570338731
O -2.512204915 3.601027597 -0.334148838
H 5.615323560 -1.336619729 2.311118118
H 2.518065069 -0.622505246 3.309876529
H 4.397432962 1.748367770 1.906817129
H 2.504287945 -3.014991683 -0.805904074
H 4.367277147 -0.655424578 -2.182578456
H -0.523508995 3.237996865 -0.997603032
H -1.828162532 -2.275386364 -3.661924739
H -2.240624814 1.002010270 -4.637577015
H -5.303387735 -0.730967041 1.414848173
H -2.633544702 -0.392700603 3.438329698
H -2.868739259 -3.019004328 1.399797374
H -2.412818549 4.150191041 1.404839654

