10

C 3.777308147 0.572716160 -0.181250738
N 1.071407004 0.275708566 -0.553043317
C -0.247787730 -0.194037664 1.322483405
O -0.069846696 -0.569766354 3.834519057
C -2.576128529 -0.703458109 2.586598802
H -3.841413232 0.829052160 3.087235441
H -3.389519282 -2.584106518 2.545269585
H 4.333906077 2.454998559 -0.812147748
H 4.382416575 0.317633198 1.779260332
H 4.767018360 -0.791549827 -1.368365181

