13

C 3.864288952 0.472169785 -0.297403113
N 1.183347236 0.076728266 -0.599708989
C -0.414443490 -0.132385066 1.373515743
O 0.188151111 0.047256192 3.582659345
C -3.153365707 -0.676137091 0.659608318
O -3.690987612 -0.472085881 -1.950621340
H 4.495782964 2.095465483 -1.401776200
H 4.229447799 0.832806460 1.693877592
H 4.941294742 -1.190956181 -0.876639981
H 0.438080279 -0.217038730 -2.323841361
H -4.346866839 0.554283147 1.809801613
H -3.550470695 -2.620898257 1.222351505
H -4.184258721 1.230791853 -2.318018964

