9

C -1.397992761 -0.581281287 -2.633634388
H -2.340368811 -2.201325786 -3.430190364
C 0.985884746 0.236816944 -2.501276402
H 2.839581201 -0.484452381 -2.982471179
N 0.433823859 2.709472537 -1.614914725
H 1.219004573 3.219790960 0.054139935
C -2.267015728 1.890980128 -1.506088137
H -3.010687719 1.783722316 0.415910673
H -3.495902567 3.072235891 -2.667919878

