16

C 4.180304205 0.202134347 0.150510733
C 1.364941470 0.255351718 0.010114740
C -0.112407014 2.267003142 -0.256708655
C -2.867323911 1.585547436 -0.440573224
C -2.904950097 -1.202066561 0.400949390
C -0.177503902 -2.145138352 0.052260735
H 4.970770029 -0.923679913 -1.392802439
H 4.982651568 2.096832889 0.041502146
H 4.816950763 -0.670240786 1.912665208
H 0.573151968 4.191961321 -0.411461502
H -4.074162578 2.777264874 0.736911382
H -3.540759771 1.809272641 -2.386845624
H -3.410451060 -1.303443659 2.399432163
H -4.282125615 -2.332999389 -0.634072543
H 0.067384516 -3.168792222 -1.733330444
H 0.413529410 -3.439007486 1.551447952

