11

C -3.884686940 0.389115302 -1.574514686
C -1.713775483 0.662915528 -0.391836942
O -0.698533785 -1.362829379 0.914111209
C 1.712254763 -1.493381033 1.639528068
O 2.405758097 -3.051374713 3.119230110
C 3.733561384 0.229468083 0.458371402
O 3.537282599 1.305028175 -1.515108613
H -4.718124077 1.992310947 -2.523520614
H -4.858708117 -1.407611051 -1.616645884
H -0.674239598 2.416763900 -0.287872128
H 5.481415148 0.222067386 1.597341349

