11

C -3.488139005 0.077260357 -0.813732000
C -0.944944264 -0.498674819 -0.827127852
O 0.308763807 -2.353312849 -1.778109564
C 0.907486320 -0.450581611 1.589688261
O 0.461419587 -1.221936181 3.632200216
C 3.466520708 0.441477950 0.581802719
O 3.574115119 2.170170571 -0.864954935
H -4.114948613 1.719048480 0.233176878
H -4.861135697 -1.011196796 -1.877819111
H -0.301327526 1.566270945 -1.321105965
H 5.130016739 -0.495295309 1.403691173

