15

C -2.438065554 -2.027751607 0.008367008
C -1.755476069 -0.325264083 2.234811280
C 0.752590270 1.024321397 2.014886503
C 1.315440869 2.437344737 -0.457827614
O 2.256575067 1.075940457 3.715624954
C 2.527559639 0.779927502 -2.297923049
C 3.534016056 -0.605709852 -3.774787328
H -4.268034419 -2.916815800 0.335953904
H -1.037436985 -3.517567275 -0.247681603
H -2.558882076 -0.981003810 -1.763662665
H -3.192358089 1.154650290 2.440839691
H -1.717375260 -1.380801204 4.003534877
H 2.577415433 4.000498843 0.002400840
H -0.425113243 3.206646157 -1.261877356
H 4.442357270 -1.828723819 -5.087784308

