16

C 3.465358508 -2.523110184 1.104097848
C 1.091099254 -1.134534458 1.864621642
N 1.153082516 1.627830512 1.473764996
C -0.786638826 1.651778519 -0.135210755
O -1.806070047 3.444917057 -1.212282685
C -1.156817768 -1.155370389 -0.035637627
C -4.105889474 2.512802484 -3.047022579
H 4.000058234 -2.052350834 -0.832126575
H 3.152146910 -4.558484701 1.216670138
H 5.040210188 -2.056322547 2.352215410
H 0.525582233 -1.608906756 3.791722165
H 2.194679223 3.038963464 2.209610421
H -3.000544954 -1.709839826 0.679166341
H -3.374057788 3.328812227 -4.816374680
H -5.524789673 3.892773626 -2.408776254
H -0.817786218 -2.094748446 -1.831719564

