8

C -1.116384621 -4.086484897 1.790242570
C -1.816042490 -1.676967718 1.717253826
C -3.407960911 -0.631387526 -0.196340409
C -4.741310166 0.289310682 -1.780335303
H -5.925736474 1.094993488 -3.191992597
H -1.178356715 -0.372639838 3.165884878
H 0.094498665 -4.778669617 3.286401897
H -1.728555786 -5.422195818 0.365923109

