15

C 0.276531409 -2.656040625 0.965970509
C -1.097297593 -0.434998683 1.434431783
C 1.021994558 2.924119913 0.338120286
C 3.025783116 1.777349346 -0.755897555
C 4.097791392 -0.259694838 -1.307334000
C -3.321928068 0.085600153 -0.025707211
C -5.182500500 0.516338467 -1.247909616
H 1.210814311 -3.546387677 2.557827476
H -0.452860148 -3.943441189 -0.451956745
H 2.419857004 -1.833815573 -0.337408011
H -1.142891337 0.275492344 3.352616049
H -0.408171716 3.779449320 -0.852347060
H 1.279850447 3.814381380 2.167046589
H 5.734303136 -1.068289598 -2.190378320
H -6.841408049 0.880226530 -2.324411397

