14

O 3.242201014 -1.195434435 -1.797695517
C 2.403445979 -0.087584441 0.204260931
C 0.561455962 2.406730871 0.592252262
C -2.111916154 1.922184382 -0.056362934
C -2.149663622 -0.764032127 -1.014663007
C -0.104178352 -1.026224880 0.949187889
N -1.058116976 1.182767506 2.484464529
H 2.026582264 -3.573431397 -0.875149837
H 3.675175933 0.181079907 1.831978060
H 1.460291570 4.195489232 1.000318209
H -3.550095169 3.367592582 -0.230611802
H -1.637474483 -1.190427605 -2.959501539
H -3.859897418 -1.747824190 -0.423500456
H 0.924880210 -3.990466419 0.334818972

