16

C 3.572913347 0.543840181 1.193738009
C 0.866850444 0.957194470 0.581758820
C -0.407956079 2.418198788 -1.032655240
C -2.982127362 1.502353132 -0.201317740
C -1.508062183 -0.210761306 1.685030594
C 0.334757802 -4.270531541 -2.099563600
H 4.083777297 -1.435400456 0.897998969
H 4.789077208 1.723664344 0.020118308
H 3.947907557 0.987207686 3.176286630
H 0.177889992 3.790424471 -2.436200924
H -4.195137421 2.913998445 0.690204061
H -4.087848183 0.487109752 -1.619334983
H -1.850068616 0.188202190 3.681852789
H -1.731216937 -2.250533499 1.405650725
H 0.755511125 -2.787405069 -3.516075696
H -1.726273829 -4.561350489 -2.357430997

