12

C -2.414160991 -1.694055491 -0.428630306
C -0.307637095 0.100061830 -0.119451913
C -0.211381949 2.849891735 -0.023493226
O 2.179629198 3.340612641 0.651334492
C 2.203814575 -0.510099877 0.371512918
C 3.922309516 -2.103064828 0.640888993
H -1.806983767 -3.371606946 -1.457615869
H -4.023987043 -0.800354156 -1.348825507
H -3.012098985 -2.322580120 1.450647163
H -1.736894751 3.522253513 1.273028725
H -0.869165944 3.552508330 -1.910828110
H 5.878253137 -2.367896830 1.094944355

