11

O 3.657941631 0.627816567 -0.516643847
N 1.255396144 0.779486742 -1.539833619
C -0.625915408 0.338239887 0.371798588
C -1.016183537 1.513326979 2.524136135
O 0.599045487 -1.622469869 -2.717920085
C -1.544235755 -1.907823899 -1.072857085
H 4.679144886 1.582710352 -1.677387049
H 0.179329586 3.071996803 3.090135755
H -2.521872602 0.929265433 3.775591973
H -3.333173129 -1.667034241 -2.074606460
H -1.523399106 -3.706704124 -0.062088747

