12

C -4.109838037 -0.823886726 0.570823807
O -1.474775697 -0.271075487 0.659689784
C -0.420402514 0.374129188 -1.550982059
O -1.572943681 0.487995864 -3.506449582
C 2.314227323 0.914024149 -1.233747422
C 3.713858627 1.581691847 -3.195953218
H 2.873092546 1.737273962 -5.057215248
H 5.709966071 1.983627976 -2.996878526
H 3.082041831 0.737166099 0.654977506
H -4.477198774 -2.394449617 -0.710308857
H -4.643494938 -1.319716941 2.491233188
H -5.170966216 0.821124646 -0.071097979

