11

C -2.361758772 -0.809172185 1.766488467
C 0.261503665 -1.225024258 0.714105071
N 0.917631693 0.546423342 -1.143871821
O 1.637875464 -2.889831607 1.385188846
C 3.151259060 0.708035422 -2.507852497
O 4.935514372 -0.661700245 -2.349138784
H -2.711844578 -2.204313368 3.230741356
H -3.776340021 -1.016578112 0.278052488
H -2.540195916 1.084702266 2.566258641
H -0.380197533 1.875618847 -1.552188894
H 3.082396287 2.333787273 -3.822451588

