11

C -2.399035623 -0.929990218 1.857610853
C -0.193052777 -0.384268060 0.204724746
N 0.265476115 1.559251821 -1.190291923
O 1.651817032 -1.953412125 0.000890212
C 3.227884090 0.060978703 -1.892300517
O 3.666808963 -0.582672919 -3.979968367
H -1.747741136 -1.218337972 3.790590919
H -3.285723675 -2.679222954 1.226460563
H -3.775912187 0.595966821 1.809196258
H -0.838621318 3.104988435 -1.324108343
H 4.468054597 1.002635958 -0.533718430

