9

N 3.343227738 0.157360783 0.809543119
C 0.938393623 0.094888780 0.517927122
C -1.183544467 1.718786545 0.541410635
O -3.273991234 0.376744304 0.073385511
N -2.785506971 -2.006720940 -0.268291315
N -0.337350714 -2.172025866 -0.010779036
H 0.492465633 -3.877129188 -0.196174415
H 3.948910510 1.931741974 1.178652514
H -1.431647177 3.709262681 0.847274865

