9

N 2.944698974 -0.322844156 0.290721325
C 0.334974950 -0.239047823 0.251472148
C -1.348551610 1.667446598 0.489979509
O -3.661962874 0.679198334 0.174230538
N -3.370289694 -1.846309043 -0.276745497
N -1.056030586 -2.372786326 -0.225401600
H 3.608809111 -2.098910586 0.464169441
H 3.767925940 0.870108426 1.520170792
H -1.219574193 3.663144595 0.848053942

