15

C -3.466909689 2.605159522 -1.192054489
C -0.035261212 -0.288089239 -1.092555269
C 0.431951802 -3.077445469 -1.030395676
C 0.720040437 1.440627533 0.726953527
O -0.334925156 3.584512864 0.851993965
C 2.740158779 0.894555737 2.471469676
C 4.404840745 0.395330875 3.924419093
H -4.363999228 2.115853134 0.573059372
H -3.986227669 1.418191779 -2.773217893
H -3.414770728 4.596481235 -1.638656526
H -0.165609456 0.591974585 -2.941281688
H 0.757401739 -3.736600158 0.894886345
H -1.208961113 -4.097568310 -1.763708358
H 2.054960545 -3.636616109 -2.184546398
H 5.881005032 -0.023831279 5.225329630

