13

C 3.662466070 -0.735794214 0.819542548
C 1.289467660 0.281096062 0.141316271
O 1.380388979 2.702243352 0.352142356
C -0.991326514 -0.975708627 -0.798776443
C -3.451618819 -0.027471346 0.209910967
N -2.762358450 0.423099683 -2.387405077
H 3.666845454 2.045270918 0.539907037
H 4.309862770 -2.541179367 0.099138188
H 4.084434959 -0.428337739 2.811028195
H -0.791803410 -2.965641278 -1.228314592
H -3.375226376 1.531914684 1.534925207
H -4.948431463 -1.390325178 0.511678781
H -2.120002613 2.220714339 -2.586152695

