26

C     0.61682  -2.84181  -3.12409
O     0.93989  -1.87336  -2.08919
C     0.03716  -0.93107  -1.88222
O    -0.94166  -0.73718  -2.56414
C     0.27449  -0.13207  -0.59083
C    -0.95758  -0.50241   0.50190
C    -1.85968  -1.73765   0.37783
C    -3.24534  -1.69427   0.97153
O    -1.42772  -2.68969  -0.24473
N    -0.93890   0.21677   1.59117
N     0.06050   1.03370   1.80259
C    -0.20772   2.19498   2.42063
N    -0.32854   3.24083   2.92637
C     1.04787   0.81753  -0.19385
C     1.98249   1.90995   0.16994
C     3.22553   1.50024   0.90708
O     1.70432   3.06886  -0.09086
H     0.51878  -2.36447  -4.10776
H    -0.33933  -3.36298  -2.88154
H     1.43244  -3.58027  -3.13950
H    -3.26313  -1.53842   2.04820
H    -3.85365  -0.89954   0.49891
H    -3.79243  -2.68703   0.75234
H     2.97661   0.79715   1.71828
H     3.91177   0.99429   0.22291
H     3.72641   2.39753   1.33603
26

C     0.61530  -2.84453  -3.12515
O     0.93904  -1.87715  -2.09144
C     0.03893  -0.93125  -1.88565
O    -0.94346  -0.73953  -2.56331
C     0.29517  -0.12398  -0.61405
C    -0.97499  -0.50710   0.51935
C    -1.86662  -1.74159   0.38111
C    -3.25277  -1.69933   0.97049
O    -1.42822  -2.68892  -0.24261
N    -0.93011   0.21880   1.58597
N     0.06015   1.03342   1.81494
C    -0.21136   2.19618   2.42489
N    -0.33045   3.24382   2.92729
C     1.05799   0.82094  -0.20560
C     1.98457   1.91218   0.17051
C     3.22626   1.50168   0.90894
O     1.70469   3.07141  -0.08759
H     0.51822  -2.36520  -4.10805
H    -0.33978  -3.36378  -2.88188
H     1.43193  -3.58114  -3.14005
H    -3.26576  -1.54041   2.04802
H    -3.85524  -0.90051   0.49879
H    -3.79483  -2.68818   0.75128
H     2.97633   0.79734   1.71847
H     3.91207   0.99471   0.22353
H     3.72668   2.39768   1.33705
26

C     0.61379  -2.84724  -3.12622
O     0.93819  -1.88093  -2.09370
C     0.04069  -0.93143  -1.88909
O    -0.94526  -0.74187  -2.56248
C     0.31585  -0.11588  -0.63728
C    -0.99241  -0.51180   0.53680
C    -1.87356  -1.74553   0.38439
C    -3.26020  -1.70438   0.96946
O    -1.42871  -2.68815  -0.24050
N    -0.92132   0.22083   1.58077
N     0.05980   1.03314   1.82729
C    -0.21500   2.19738   2.42914
N    -0.33237   3.24682   2.92821
C     1.06811   0.82435  -0.21735
C     1.98665   1.91441   0.17107
C     3.22698   1.50312   0.91080
O     1.70505   3.07396  -0.08431
H     0.51767  -2.36593  -4.10835
H    -0.34023  -3.36457  -2.88223
H     1.43142  -3.58202  -3.14059
H    -3.26839  -1.54241   2.04784
H    -3.85683  -0.90148   0.49867
H    -3.79723  -2.68934   0.75022
H     2.97605   0.79753   1.71866
H     3.91237   0.99513   0.22416
H     3.72696   2.39782   1.33808
26

C     0.61227  -2.84996  -3.12728
O     0.93733  -1.88472  -2.09595
C     0.04246  -0.93162  -1.89252
O    -0.94706  -0.74422  -2.56165
C     0.33653  -0.10778  -0.66051
C    -1.00983  -0.51649   0.55425
C    -1.88049  -1.74947   0.38767
C    -3.26763  -1.70944   0.96843
O    -1.42920  -2.68738  -0.23838
N    -0.91253   0.22286   1.57556
N     0.05945   1.03286   1.83964
C    -0.21864   2.19858   2.43340
N    -0.33428   3.24981   2.92913
C     1.07822   0.82775  -0.22909
C     1.98874   1.91665   0.17164
C     3.22770   1.50456   0.91266
O     1.70542   3.07652  -0.08104
H     0.51711  -2.36665  -4.10864
H    -0.34068  -3.36537  -2.88257
H     1.43090  -3.58290  -3.14114
H    -3.27101  -1.54440   2.04766
H    -3.85841  -0.90245   0.49855
H    -3.79964  -2.69050   0.74917
H     2.97577   0.79772   1.71885
H     3.91268   0.99554   0.22479
H     3.72723   2.39797   1.33910
26

C     0.61076  -2.85267  -3.12834
O     0.93648  -1.88851  -2.09821
C     0.04422  -0.93180  -1.89595
O    -0.94886  -0.74656  -2.56082
C     0.35721  -0.09968  -0.68374
C    -1.02725  -0.52118   0.57169
C    -1.88743  -1.75341   0.39095
C    -3.27506  -1.71450   0.96740
O    -1.42969  -2.68661  -0.23626
N    -0.90374   0.22489   1.57036
N     0.05910   1.03258   1.85200
C    -0.22228   2.19978   2.43765
N    -0.33619   3.25280   2.93005
C     1.08834   0.83116  -0.24084
C     1.99082   1.91888   0.17221
C     3.22842   1.50600   0.91452
O     1.70578   3.07907  -0.07776
H     0.51656  -2.36738  -4.10893
H    -0.34113  -3.36616  -2.88292
H     1.43039  -3.58377  -3.14168
H    -3.27364  -1.54639   2.04748
H    -3.86000  -0.90342   0.49843
H    -3.80204  -2.69165   0.74811
H     2.97549   0.79791   1.71904
H     3.91298   0.99596   0.22541
H     3.72750   2.39811   1.34013
26

C     0.60925  -2.85539  -3.12941
O     0.93563  -1.89230  -2.10046
C     0.04598  -0.93198  -1.89939
O    -0.95066  -0.74891  -2.55999
C     0.37789  -0.09158  -0.70697
C    -1.04467  -0.52588   0.58914
C    -1.89437  -1.75736   0.39423
C    -3.28249  -1.71955   0.96637
O    -1.43019  -2.68584  -0.23415
N    -0.89495   0.22692   1.56516
N     0.05875   1.03231   1.86435
C    -0.22592   2.20098   2.44191
N    -0.33810   3.25580   2.93097
C     1.09846   0.83457  -0.25259
C     1.99291   1.92111   0.17277
C     3.22915   1.50745   0.91638
O     1.70614   3.08162  -0.07448
H     0.51600  -2.36811  -4.10923
H    -0.34157  -3.36696  -2.88326
H     1.42988  -3.58465  -3.14223
H    -3.27627  -1.54839   2.04730
H    -3.86158  -0.90438   0.49831
H    -3.80444  -2.69281   0.74705
H     2.97521   0.79810   1.71923
H     3.91328   0.99638   0.22604
H     3.72777   2.39826   1.34115
26

C     0.60773  -2.85810  -3.13047
O     0.93477  -1.89609  -2.10272
C     0.04775  -0.93216  -1.90282
O    -0.95246  -0.75126  -2.55916
C     0.39857  -0.08348  -0.73020
C    -1.06209  -0.53057   0.60659
C    -1.90130  -1.76130   0.39751
C    -3.28992  -1.72461   0.96534
O    -1.43068  -2.68507  -0.23203
N    -0.88616   0.22895   1.55996
N     0.05840   1.03203   1.87670
C    -0.22956   2.20219   2.44617
N    -0.34002   3.25879   2.93189
C     1.10858   0.83797  -0.26434
C     1.99499   1.92334   0.17334
C     3.22987   1.50889   0.91825
O     1.70651   3.08418  -0.07121
H     0.51545  -2.36884  -4.10952
H    -0.34202  -3.36775  -2.88361
H     1.42936  -3.58552  -3.14278
H    -3.27890  -1.55038   2.04712
H    -3.86317  -0.90535   0.49818
H    -3.80684  -2.69397   0.74600
H     2.97493   0.79829   1.71942
H     3.91358   0.99679   0.22667
H     3.72805   2.39841   1.34218
26

C     0.60622  -2.86082  -3.13153
O     0.93392  -1.89987  -2.10497
C     0.04951  -0.93234  -1.90625
O    -0.95425  -0.75360  -2.55833
C     0.41925  -0.07539  -0.75343
C    -1.07951  -0.53527   0.62404
C    -1.90824  -1.76524   0.40079
C    -3.29735  -1.72966   0.96431
O    -1.43117  -2.68430  -0.22991
N    -0.87736   0.23098   1.55476
N     0.05805   1.03175   1.88906
C    -0.23320   2.20339   2.45042
N    -0.34193   3.26178   2.93281
C     1.11869   0.84138  -0.27609
C     1.99708   1.92557   0.17390
C     3.23059   1.51033   0.92011
O     1.70687   3.08673  -0.06793
H     0.51489  -2.36957  -4.10981
H    -0.34247  -3.36854  -2.88395
H     1.42885  -3.58640  -3.14332
H    -3.28153  -1.55238   2.04694
H    -3.86476  -0.90632   0.49806
H    -3.80925  -2.69512   0.74494
H     2.97465   0.79848   1.71961
H     3.91388   0.99721   0.22729
H     3.72832   2.39855   1.34320
26

C     0.60471  -2.86353  -3.13260
O     0.93307  -1.90366  -2.10722
C     0.05128  -0.93252  -1.90969
O    -0.95605  -0.75595  -2.55750
C     0.43993  -0.06729  -0.77666
C    -1.09693  -0.53996   0.64148
C    -1.91518  -1.76918   0.40407
C    -3.30478  -1.73472   0.96328
O    -1.43166  -2.68353  -0.22780
N    -0.86857   0.23301   1.54956
N     0.05770   1.03147   1.90141
C    -0.23684   2.20459   2.45468
N    -0.34384   3.26477   2.93373
C     1.12881   0.84479  -0.28784
C     1.99916   1.92780   0.17447
C     3.23131   1.51177   0.92197
O     1.70724   3.08928  -0.06466
H     0.51433  -2.37030  -4.11011
H    -0.34292  -3.36934  -2.88430
H     1.42834  -3.58728  -3.14387
H    -3.28415  -1.55437   2.04676
H    -3.86634  -0.90729   0.49794
H    -3.81165  -2.69628   0.74388
H     2.97437   0.79867   1.71981
H     3.91418   0.99763   0.22792
H     3.72859   2.39870   1.34423
26

C     0.60319  -2.86625  -3.13366
O     0.93222  -1.90745  -2.10948
C     0.05304  -0.93271  -1.91312
O    -0.95785  -0.75829  -2.55667
C     0.46061  -0.05919  -0.79989
C    -1.11435  -0.54466   0.65893
C    -1.92211  -1.77312   0.40735
C    -3.31220  -1.73977   0.96225
O    -1.43216  -2.68276  -0.22568
N    -0.85978   0.23504   1.54436
N     0.05735   1.03119   1.91376
C    -0.24048   2.20579   2.45894
N    -0.34575   3.26777   2.93465
C     1.13893   0.84819  -0.29958
C     2.00125   1.93003   0.17503
C     3.23203   1.51321   0.92383
O     1.70760   3.09183  -0.06138
H     0.51378  -2.37102  -4.11040
H    -0.34337  -3.37013  -2.88464
H     1.42783  -3.58815  -3.14441
H    -3.28678  -1.55637   2.04657
H    -3.86793  -0.90826   0.49782
H    -3.81405  -2.69744   0.74283
H     2.97409   0.79887   1.72000
H     3.91448   0.99805   0.22855
H     3.72886   2.39885   1.34526
26

C     0.60168  -2.86896  -3.13472
O     0.93136  -1.91124  -2.11173
C     0.05480  -0.93289  -1.91655
O    -0.95965  -0.76064  -2.55584
C     0.48129  -0.05109  -0.82312
C    -1.13177  -0.54935   0.67638
C    -1.92905  -1.77706   0.41063
C    -3.31963  -1.74483   0.96122
O    -1.43265  -2.68199  -0.22356
N    -0.85099   0.23707   1.53916
N     0.05700   1.03091   1.92612
C    -0.24412   2.20699   2.46319
N    -0.34767   3.27076   2.93557
C     1.14905   0.85160  -0.31133
C     2.00333   1.93226   0.17560
C     3.23276   1.51465   0.92569
O     1.70797   3.09439  -0.05811
H     0.51322  -2.37175  -4.11069
H    -0.34382  -3.37093  -2.88499
H     1.42731  -3.58903  -3.14496
H    -3.28941  -1.55836   2.04639
H    -3.86951  -0.90923   0.49770
H    -3.81645  -2.69859   0.74177
H     2.97381   0.79906   1.72019
H     3.91479   0.99846   0.22917
H     3.72913   2.39899   1.34628
26

C     0.60016  -2.87168  -3.13579
O     0.93051  -1.91503  -2.11399
C     0.05657  -0.93307  -1.91998
O    -0.96145  -0.76298  -2.55501
C     0.50197  -0.04299  -0.84635
C    -1.14919  -0.55405   0.69383
C    -1.93599  -1.78101   0.41391
C    -3.32706  -1.74988   0.96019
O    -1.43314  -2.68122  -0.22145
N    -0.84220   0.23910   1.53396
N     0.05665   1.03063   1.93847
C    -0.24776   2.20819   2.46745
N    -0.34958   3.27375   2.93648
C     1.15916   0.85501  -0.32308
C     2.00542   1.93450   0.17617
C     3.23348   1.51609   0.92755
O     1.70833   3.09694  -0.05483
H     0.51267  -2.37248  -4.11099
H    -0.34427  -3.37172  -2.88533
H     1.42680  -3.58990  -3.14551
H    -3.29204  -1.56036   2.04621
H    -3.87110  -0.91020   0.49758
H    -3.81886  -2.69975   0.74071
H     2.97353   0.79925   1.72038
H     3.91509   0.99888   0.22980
H     3.72941   2.39914   1.34731
26

C     0.59865  -2.87439  -3.13685
O     0.92966  -1.91881  -2.11624
C     0.05833  -0.93325  -1.92342
O    -0.96325  -0.76533  -2.55418
C     0.52265  -0.03489  -0.86958
C    -1.16661  -0.55874   0.71128
C    -1.94292  -1.78495   0.41719
C    -3.33449  -1.75494   0.95916
O    -1.43364  -2.68045  -0.21933
N    -0.83341   0.24114   1.52876
N     0.05630   1.03036   1.95082
C    -0.25140   2.20939   2.47170
N    -0.35149   3.27675   2.93740
C     1.16928   0.85841  -0.33483
C     2.00750   1.93673   0.17673
C     3.23420   1.51753   0.92942
O     1.70870   3.09949  -0.05156
H     0.51211  -2.37321  -4.11128
H    -0.34472  -3.37252  -2.88568
H     1.42629  -3.59078  -3.14605
H    -3.29467  -1.56235   2.04603
H    -3.87269  -0.91116   0.49746
H    -3.82126  -2.70090   0.73966
H     2.97325   0.79944   1.72057
H     3.91539   0.99930   0.23043
H     3.72968   2.39928   1.34833
26

C     0.59714  -2.87711  -3.13791
O     0.92880  -1.92260  -2.11849
C     0.06010  -0.93343  -1.92685
O    -0.96505  -0.76767  -2.55335
C     0.54333  -0.02680  -0.89281
C    -1.18403  -0.56343   0.72872
C    -1.94986  -1.78889   0.42047
C    -3.34192  -1.75999   0.95813
O    -1.43413  -2.67969  -0.21722
N    -0.82462   0.24317   1.52356
N     0.05595   1.03008   1.96318
C    -0.25504   2.21059   2.47596
N    -0.35341   3.27974   2.93832
C     1.17940   0.86182  -0.34658
C     2.00959   1.93896   0.17730
C     3.23492   1.51897   0.93128
O     1.70906   3.10205  -0.04828
H     0.51156  -2.37394  -4.11157
H    -0.34517  -3.37331  -2.88602
H     1.42578  -3.59166  -3.14660
H    -3.29730  -1.56434   2.04585
H    -3.87427  -0.91213   0.49733
H    -3.82366  -2.70206   0.73860
H     2.97297   0.79963   1.72076
H     3.91569   0.99971   0.23105
H     3.72995   2.39943   1.34936
26

C     0.59562  -2.87982  -3.13898
O     0.92795  -1.92639  -2.12075
C     0.06186  -0.93361  -1.93028
O    -0.96685  -0.77002  -2.55252
C     0.56401  -0.01870  -0.91604
C    -1.20145  -0.56813   0.74617
C    -1.95680  -1.79283   0.42375
C    -3.34935  -1.76505   0.95710
O    -1.43462  -2.67892  -0.21510
N    -0.81583   0.24520   1.51836
N     0.05560   1.02980   1.97553
C    -0.25868   2.21179   2.48022
N    -0.35532   3.28273   2.93924
C     1.18952   0.86523  -0.35833
C     2.01167   1.94119   0.17786
C     3.23564   1.52041   0.93314
O     1.70943   3.10460  -0.04501
H     0.51100  -2.37467  -4.11186
H    -0.34562  -3.37411  -2.88637
H     1.42526  -3.59253  -3.14715
H    -3.29992  -1.56634   2.04567
H    -3.87586  -0.91310   0.49721
H    -3.82607  -2.70322   0.73754
H     2.97269   0.79982   1.72095
H     3.91599   1.00013   0.23168
H     3.73022   2.39958   1.35038
26

C     0.59411  -2.88254  -3.14004
O     0.92710  -1.93018  -2.12300
C     0.06362  -0.93380  -1.93372
O    -0.96865  -0.77236  -2.55169
C     0.58470  -0.01060  -0.93926
C    -1.21887  -0.57282   0.76362
C    -1.96374  -1.79677   0.42703
C    -3.35678  -1.77010   0.95607
O    -1.43511  -2.67815  -0.21298
N    -0.80704   0.24723   1.51316
N     0.05525   1.02952   1.98788
C    -0.26231   2.21299   2.48447
N    -0.35723   3.28573   2.94016
C     1.19963   0.86863  -0.37007
C     2.01376   1.94342   0.17843
C     3.23637   1.52185   0.93500
O     1.70979   3.10715  -0.04173
H     0.51045  -2.37539  -4.11216
H    -0.34607  -3.37490  -2.88671
H     1.42475  -3.59341  -3.14769
H    -3.30255  -1.56833   2.04549
H    -3.87745  -0.91407   0.49709
H    -3.82847  -2.70437   0.73649
H     2.97241   0.80001   1.72114
H     3.91629   1.00055   0.23231
H     3.73049   2.39972   1.35141
26

C     0.59260  -2.88525  -3.14110
O     0.92625  -1.93397  -2.12526
C     0.06539  -0.93398  -1.93715
O    -0.97045  -0.77471  -2.55086
C     0.60538  -0.00250  -0.96249
C    -1.23629  -0.57752   0.78107
C    -1.97067  -1.80071   0.43031
C    -3.36421  -1.77516   0.95504
O    -1.43561  -2.67738  -0.21087
N    -0.79824   0.24926   1.50796
N     0.05490   1.02924   2.00024
C    -0.26595   2.21420   2.48873
N    -0.35914   3.28872   2.94108
C     1.20975   0.87204  -0.38182
C     2.01584   1.94565   0.17899
C     3.23709   1.52329   0.93686
O     1.71015   3.10970  -0.03846
H     0.50989  -2.37612  -4.11245
H    -0.34651  -3.37569  -2.88706
H     1.42424  -3.59428  -3.14824
H    -3.30518  -1.57033   2.04531
H    -3.87903  -0.91504   0.49697
H    -3.83087  -2.70553   0.73543
H     2.97213   0.80020   1.72133
H     3.91659   1.00096   0.23293
H     3.73077   2.39987   1.35243
26

C     0.59108  -2.88797  -3.14217
O     0.92539  -1.93776  -2.12751
C     0.06715  -0.93416  -1.94058
O    -0.97224  -0.77706  -2.55003
C     0.62606   0.00560  -0.98572
C    -1.25371  -0.58221   0.79851
C    -1.97761  -1.80466   0.43359
C    -3.37164  -1.78021   0.95400
O    -1.43610  -2.67661  -0.20875
N    -0.78945   0.25129   1.50276
N     0.05455   1.02896   2.01259
C    -0.26959   2.21540   2.49299
N    -0.36106   3.29171   2.94200
C     1.21987   0.87545  -0.39357
C     2.01793   1.94788   0.17956
C     3.23781   1.52473   0.93872
O     1.71052   3.11226  -0.03518
H     0.50933  -2.37685  -4.11274
H    -0.34696  -3.37649  -2.88741
H     1.42372  -3.59516  -3.14878
H    -3.30781  -1.57232   2.04512
H    -3.88062  -0.91601   0.49685
H    -3.83327  -2.70669   0.73437
H     2.97185   0.80039   1.72153
H     3.91690   1.00138   0.23356
H     3.73104   2.40002   1.35346
26

C     0.58957  -2.89068  -3.14323
O     0.92454  -1.94154  -2.12976
C     0.06892  -0.93434  -1.94401
O    -0.97404  -0.77940  -2.54921
C     0.64674   0.01370  -1.00895
C    -1.27113  -0.58691   0.81596
C    -1.98455  -1.80860   0.43687
C    -3.37906  -1.78527   0.95297
O    -1.43659  -2.67584  -0.20663
N    -0.78066   0.25332   1.49756
N     0.05420   1.02869   2.02494
C    -0.27323   2.21660   2.49724
N    -0.36297   3.29471   2.94292
C     1.22999   0.87885  -0.40532
C     2.02001   1.95011   0.18013
C     3.23853   1.52617   0.94058
O     1.71088   3.11481  -0.03191
H     0.50878  -2.37758  -4.11304
H    -0.34741  -3.37728  -2.88775
H     1.42321  -3.59604  -3.14933
H    -3.31044  -1.57432   2.04494
H    -3.88220  -0.91698   0.49673
H    -3.83568  -2.70784   0.73332
H     2.97157   0.80058   1.72172
H     3.91720   1.00180   0.23419
H     3.73131   2.40016   1.35448
26

C     0.58805  -2.89340  -3.14429
O     0.92369  -1.94533  -2.13202
C     0.07068  -0.93452  -1.94745
O    -0.97584  -0.78175  -2.54838
C     0.66742   0.02180  -1.03218
C    -1.28855  -0.59160   0.83341
C    -1.99148  -1.81254   0.44015
C    -3.38649  -1.79032   0.95194
O    -1.43708  -2.67507  -0.20452
N    -0.77187   0.25535   1.49236
N     0.05385   1.02841   2.03730
C    -0.27687   2.21780   2.50150
N    -0.36488   3.29770   2.94384
C     1.24010   0.88226  -0.41707
C     2.02210   1.95235   0.18069
C     3.23926   1.52761   0.94245
O     1.71125   3.11736  -0.02863
H     0.50822  -2.37831  -4.11333
H    -0.34786  -3.37808  -2.88810
H     1.42270  -3.59691  -3.14988
H    -3.31306  -1.57631   2.04476
H    -3.88379  -0.91795   0.49661
H    -3.83808  -2.70900   0.73226
H     2.97129   0.80077   1.72191
H     3.91750   1.00222   0.23481
H     3.73158   2.40031   1.35551
26

C     0.58654  -2.89611  -3.14536
O     0.92283  -1.94912  -2.13427
C     0.07244  -0.93470  -1.95088
O    -0.97764  -0.78409  -2.54755
C     0.68810   0.02989  -1.05541
C    -1.30597  -0.59630   0.85086
C    -1.99842  -1.81648   0.44343
C    -3.39392  -1.79538   0.95091
O    -1.43758  -2.67430  -0.20240
N    -0.76308   0.25738   1.48716
N     0.05350   1.02813   2.04965
C    -0.28051   2.21900   2.50575
N    -0.36679   3.30069   2.94476
C     1.25022   0.88567  -0.42882
C     2.02418   1.95458   0.18126
C     3.23998   1.52905   0.94431
O     1.71161   3.11992  -0.02535
H     0.50767  -2.37904  -4.11362
H    -0.34831  -3.37887  -2.88844
H     1.42219  -3.59779  -3.15042
H    -3.31569  -1.57831   2.04458
H    -3.88538  -0.91891   0.49648
H    -3.84048  -2.71016   0.73120
H     2.97100   0.80096   1.72210
H     3.91780   1.00263   0.23544
H     3.73186   2.40045   1.35654
26

C     0.58805  -2.89340  -3.14429
O     0.92369  -1.94533  -2.13202
C     0.07068  -0.93452  -1.94745
O    -0.97584  -0.78175  -2.54838
C     0.66742   0.02180  -1.03218
C    -1.28855  -0.59160   0.83341
C    -1.99148  -1.81254   0.44015
C    -3.38649  -1.79032   0.95194
O    -1.43708  -2.67507  -0.20452
N    -0.77187   0.25535   1.49236
N     0.05385   1.02841   2.03730
C    -0.27687   2.21780   2.50150
N    -0.36488   3.29770   2.94384
C     1.24010   0.88226  -0.41707
C     2.02210   1.95235   0.18069
C     3.23926   1.52761   0.94245
O     1.71125   3.11736  -0.02863
H     0.50822  -2.37831  -4.11333
H    -0.34786  -3.37808  -2.88810
H     1.42270  -3.59691  -3.14988
H    -3.31306  -1.57631   2.04476
H    -3.88379  -0.91795   0.49661
H    -3.83808  -2.70900   0.73226
H     2.97129   0.80077   1.72191
H     3.91750   1.00222   0.23481
H     3.73158   2.40031   1.35551
26

C     0.58957  -2.89068  -3.14323
O     0.92454  -1.94154  -2.12976
C     0.06892  -0.93434  -1.94401
O    -0.97404  -0.77940  -2.54921
C     0.64674   0.01370  -1.00895
C    -1.27113  -0.58691   0.81596
C    -1.98455  -1.80860   0.43687
C    -3.37906  -1.78527   0.95297
O    -1.43659  -2.67584  -0.20663
N    -0.78066   0.25332   1.49756
N     0.05420   1.02869   2.02494
C    -0.27323   2.21660   2.49724
N    -0.36297   3.29471   2.94292
C     1.22999   0.87885  -0.40532
C     2.02001   1.95011   0.18013
C     3.23853   1.52617   0.94058
O     1.71088   3.11481  -0.03191
H     0.50878  -2.37758  -4.11304
H    -0.34741  -3.37728  -2.88775
H     1.42321  -3.59604  -3.14933
H    -3.31044  -1.57432   2.04494
H    -3.88220  -0.91698   0.49673
H    -3.83568  -2.70784   0.73332
H     2.97157   0.80058   1.72172
H     3.91720   1.00180   0.23419
H     3.73131   2.40016   1.35448
26

C     0.59108  -2.88797  -3.14217
O     0.92539  -1.93776  -2.12751
C     0.06715  -0.93416  -1.94058
O    -0.97224  -0.77706  -2.55003
C     0.62606   0.00560  -0.98572
C    -1.25371  -0.58221   0.79851
C    -1.97761  -1.80466   0.43359
C    -3.37164  -1.78021   0.95400
O    -1.43610  -2.67661  -0.20875
N    -0.78945   0.25129   1.50276
N     0.05455   1.02896   2.01259
C    -0.26959   2.21540   2.49299
N    -0.36106   3.29171   2.94200
C     1.21987   0.87545  -0.39357
C     2.01793   1.94788   0.17956
C     3.23781   1.52473   0.93872
O     1.71052   3.11226  -0.03518
H     0.50933  -2.37685  -4.11274
H    -0.34696  -3.37649  -2.88741
H     1.42372  -3.59516  -3.14878
H    -3.30781  -1.57232   2.04512
H    -3.88062  -0.91601   0.49685
H    -3.83327  -2.70669   0.73437
H     2.97185   0.80039   1.72153
H     3.91690   1.00138   0.23356
H     3.73104   2.40002   1.35346
26

C     0.59260  -2.88525  -3.14110
O     0.92625  -1.93397  -2.12526
C     0.06539  -0.93398  -1.93715
O    -0.97045  -0.77471  -2.55086
C     0.60538  -0.00250  -0.96249
C    -1.23629  -0.57752   0.78107
C    -1.97067  -1.80071   0.43031
C    -3.36421  -1.77516   0.95504
O    -1.43561  -2.67738  -0.21087
N    -0.79824   0.24926   1.50796
N     0.05490   1.02924   2.00024
C    -0.26595   2.21420   2.48873
N    -0.35914   3.28872   2.94108
C     1.20975   0.87204  -0.38182
C     2.01584   1.94565   0.17899
C     3.23709   1.52329   0.93686
O     1.71015   3.10970  -0.03846
H     0.50989  -2.37612  -4.11245
H    -0.34651  -3.37569  -2.88706
H     1.42424  -3.59428  -3.14824
H    -3.30518  -1.57033   2.04531
H    -3.87903  -0.91504   0.49697
H    -3.83087  -2.70553   0.73543
H     2.97213   0.80020   1.72133
H     3.91659   1.00096   0.23293
H     3.73077   2.39987   1.35243
26

C     0.59411  -2.88254  -3.14004
O     0.92710  -1.93018  -2.12300
C     0.06362  -0.93380  -1.93372
O    -0.96865  -0.77236  -2.55169
C     0.58470  -0.01060  -0.93926
C    -1.21887  -0.57282   0.76362
C    -1.96374  -1.79677   0.42703
C    -3.35678  -1.77010   0.95607
O    -1.43511  -2.67815  -0.21298
N    -0.80704   0.24723   1.51316
N     0.05525   1.02952   1.98788
C    -0.26231   2.21299   2.48447
N    -0.35723   3.28573   2.94016
C     1.19963   0.86863  -0.37007
C     2.01376   1.94342   0.17843
C     3.23637   1.52185   0.93500
O     1.70979   3.10715  -0.04173
H     0.51045  -2.37539  -4.11216
H    -0.34607  -3.37490  -2.88671
H     1.42475  -3.59341  -3.14769
H    -3.30255  -1.56833   2.04549
H    -3.87745  -0.91407   0.49709
H    -3.82847  -2.70437   0.73649
H     2.97241   0.80001   1.72114
H     3.91629   1.00055   0.23231
H     3.73049   2.39972   1.35141
26

C     0.59562  -2.87982  -3.13898
O     0.92795  -1.92639  -2.12075
C     0.06186  -0.93361  -1.93028
O    -0.96685  -0.77002  -2.55252
C     0.56401  -0.01870  -0.91604
C    -1.20145  -0.56813   0.74617
C    -1.95680  -1.79283   0.42375
C    -3.34935  -1.76505   0.95710
O    -1.43462  -2.67892  -0.21510
N    -0.81583   0.24520   1.51836
N     0.05560   1.02980   1.97553
C    -0.25868   2.21179   2.48022
N    -0.35532   3.28273   2.93924
C     1.18952   0.86523  -0.35833
C     2.01167   1.94119   0.17786
C     3.23564   1.52041   0.93314
O     1.70943   3.10460  -0.04501
H     0.51100  -2.37467  -4.11186
H    -0.34562  -3.37411  -2.88637
H     1.42526  -3.59253  -3.14715
H    -3.29992  -1.56634   2.04567
H    -3.87586  -0.91310   0.49721
H    -3.82607  -2.70322   0.73754
H     2.97269   0.79982   1.72095
H     3.91599   1.00013   0.23168
H     3.73022   2.39958   1.35038
26

C     0.59714  -2.87711  -3.13791
O     0.92880  -1.92260  -2.11849
C     0.06010  -0.93343  -1.92685
O    -0.96505  -0.76767  -2.55335
C     0.54333  -0.02680  -0.89281
C    -1.18403  -0.56343   0.72872
C    -1.94986  -1.78889   0.42047
C    -3.34192  -1.75999   0.95813
O    -1.43413  -2.67969  -0.21722
N    -0.82462   0.24317   1.52356
N     0.05595   1.03008   1.96318
C    -0.25504   2.21059   2.47596
N    -0.35341   3.27974   2.93832
C     1.17940   0.86182  -0.34658
C     2.00959   1.93896   0.17730
C     3.23492   1.51897   0.93128
O     1.70906   3.10205  -0.04828
H     0.51156  -2.37394  -4.11157
H    -0.34517  -3.37331  -2.88602
H     1.42578  -3.59166  -3.14660
H    -3.29730  -1.56434   2.04585
H    -3.87427  -0.91213   0.49733
H    -3.82366  -2.70206   0.73860
H     2.97297   0.79963   1.72076
H     3.91569   0.99971   0.23105
H     3.72995   2.39943   1.34936
26

C     0.59865  -2.87439  -3.13685
O     0.92966  -1.91881  -2.11624
C     0.05833  -0.93325  -1.92342
O    -0.96325  -0.76533  -2.55418
C     0.52265  -0.03489  -0.86958
C    -1.16661  -0.55874   0.71128
C    -1.94292  -1.78495   0.41719
C    -3.33449  -1.75494   0.95916
O    -1.43364  -2.68045  -0.21933
N    -0.83341   0.24114   1.52876
N     0.05630   1.03036   1.95082
C    -0.25140   2.20939   2.47170
N    -0.35149   3.27675   2.93740
C     1.16928   0.85841  -0.33483
C     2.00750   1.93673   0.17673
C     3.23420   1.51753   0.92942
O     1.70870   3.09949  -0.05156
H     0.51211  -2.37321  -4.11128
H    -0.34472  -3.37252  -2.88568
H     1.42629  -3.59078  -3.14605
H    -3.29467  -1.56235   2.04603
H    -3.87269  -0.91116   0.49746
H    -3.82126  -2.70090   0.73966
H     2.97325   0.79944   1.72057
H     3.91539   0.99930   0.23043
H     3.72968   2.39928   1.34833
26

C     0.60016  -2.87168  -3.13579
O     0.93051  -1.91503  -2.11399
C     0.05657  -0.93307  -1.91998
O    -0.96145  -0.76298  -2.55501
C     0.50197  -0.04299  -0.84635
C    -1.14919  -0.55405   0.69383
C    -1.93599  -1.78101   0.41391
C    -3.32706  -1.74988   0.96019
O    -1.43314  -2.68122  -0.22145
N    -0.84220   0.23910   1.53396
N     0.05665   1.03063   1.93847
C    -0.24776   2.20819   2.46745
N    -0.34958   3.27375   2.93648
C     1.15916   0.85501  -0.32308
C     2.00542   1.93450   0.17617
C     3.23348   1.51609   0.92755
O     1.70833   3.09694  -0.05483
H     0.51267  -2.37248  -4.11099
H    -0.34427  -3.37172  -2.88533
H     1.42680  -3.58990  -3.14551
H    -3.29204  -1.56036   2.04621
H    -3.87110  -0.91020   0.49758
H    -3.81886  -2.69975   0.74071
H     2.97353   0.79925   1.72038
H     3.91509   0.99888   0.22980
H     3.72941   2.39914   1.34731
26

C     0.60168  -2.86896  -3.13472
O     0.93136  -1.91124  -2.11173
C     0.05480  -0.93289  -1.91655
O    -0.95965  -0.76064  -2.55584
C     0.48129  -0.05109  -0.82312
C    -1.13177  -0.54935   0.67638
C    -1.92905  -1.77706   0.41063
C    -3.31963  -1.74483   0.96122
O    -1.43265  -2.68199  -0.22356
N    -0.85099   0.23707   1.53916
N     0.05700   1.03091   1.92612
C    -0.24412   2.20699   2.46319
N    -0.34767   3.27076   2.93557
C     1.14905   0.85160  -0.31133
C     2.00333   1.93226   0.17560
C     3.23276   1.51465   0.92569
O     1.70797   3.09439  -0.05811
H     0.51322  -2.37175  -4.11069
H    -0.34382  -3.37093  -2.88499
H     1.42731  -3.58903  -3.14496
H    -3.28941  -1.55836   2.04639
H    -3.86951  -0.90923   0.49770
H    -3.81645  -2.69859   0.74177
H     2.97381   0.79906   1.72019
H     3.91479   0.99846   0.22917
H     3.72913   2.39899   1.34628
26

C     0.60319  -2.86625  -3.13366
O     0.93222  -1.90745  -2.10948
C     0.05304  -0.93271  -1.91312
O    -0.95785  -0.75829  -2.55667
C     0.46061  -0.05919  -0.79989
C    -1.11435  -0.54466   0.65893
C    -1.92211  -1.77312   0.40735
C    -3.31220  -1.73977   0.96225
O    -1.43216  -2.68276  -0.22568
N    -0.85978   0.23504   1.54436
N     0.05735   1.03119   1.91376
C    -0.24048   2.20579   2.45894
N    -0.34575   3.26777   2.93465
C     1.13893   0.84819  -0.29958
C     2.00125   1.93003   0.17503
C     3.23203   1.51321   0.92383
O     1.70760   3.09183  -0.06138
H     0.51378  -2.37102  -4.11040
H    -0.34337  -3.37013  -2.88464
H     1.42783  -3.58815  -3.14441
H    -3.28678  -1.55637   2.04657
H    -3.86793  -0.90826   0.49782
H    -3.81405  -2.69744   0.74283
H     2.97409   0.79887   1.72000
H     3.91448   0.99805   0.22855
H     3.72886   2.39885   1.34526
26

C     0.60471  -2.86353  -3.13260
O     0.93307  -1.90366  -2.10722
C     0.05128  -0.93252  -1.90969
O    -0.95605  -0.75595  -2.55750
C     0.43993  -0.06729  -0.77666
C    -1.09693  -0.53996   0.64148
C    -1.91518  -1.76918   0.40407
C    -3.30478  -1.73472   0.96328
O    -1.43166  -2.68353  -0.22780
N    -0.86857   0.23301   1.54956
N     0.05770   1.03147   1.90141
C    -0.23684   2.20459   2.45468
N    -0.34384   3.26477   2.93373
C     1.12881   0.84479  -0.28784
C     1.99916   1.92780   0.17447
C     3.23131   1.51177   0.92197
O     1.70724   3.08928  -0.06466
H     0.51433  -2.37030  -4.11011
H    -0.34292  -3.36934  -2.88430
H     1.42834  -3.58728  -3.14387
H    -3.28415  -1.55437   2.04676
H    -3.86634  -0.90729   0.49794
H    -3.81165  -2.69628   0.74388
H     2.97437   0.79867   1.71981
H     3.91418   0.99763   0.22792
H     3.72859   2.39870   1.34423
26

C     0.60622  -2.86082  -3.13153
O     0.93392  -1.89987  -2.10497
C     0.04951  -0.93234  -1.90625
O    -0.95425  -0.75360  -2.55833
C     0.41925  -0.07539  -0.75343
C    -1.07951  -0.53527   0.62404
C    -1.90824  -1.76524   0.40079
C    -3.29735  -1.72966   0.96431
O    -1.43117  -2.68430  -0.22991
N    -0.87736   0.23098   1.55476
N     0.05805   1.03175   1.88906
C    -0.23320   2.20339   2.45042
N    -0.34193   3.26178   2.93281
C     1.11869   0.84138  -0.27609
C     1.99708   1.92557   0.17390
C     3.23059   1.51033   0.92011
O     1.70687   3.08673  -0.06793
H     0.51489  -2.36957  -4.10981
H    -0.34247  -3.36854  -2.88395
H     1.42885  -3.58640  -3.14332
H    -3.28153  -1.55238   2.04694
H    -3.86476  -0.90632   0.49806
H    -3.80925  -2.69512   0.74494
H     2.97465   0.79848   1.71961
H     3.91388   0.99721   0.22729
H     3.72832   2.39855   1.34320
26

C     0.60773  -2.85810  -3.13047
O     0.93477  -1.89609  -2.10272
C     0.04775  -0.93216  -1.90282
O    -0.95246  -0.75126  -2.55916
C     0.39857  -0.08348  -0.73020
C    -1.06209  -0.53057   0.60659
C    -1.90130  -1.76130   0.39751
C    -3.28992  -1.72461   0.96534
O    -1.43068  -2.68507  -0.23203
N    -0.88616   0.22895   1.55996
N     0.05840   1.03203   1.87670
C    -0.22956   2.20219   2.44617
N    -0.34002   3.25879   2.93189
C     1.10858   0.83797  -0.26434
C     1.99499   1.92334   0.17334
C     3.22987   1.50889   0.91825
O     1.70651   3.08418  -0.07121
H     0.51545  -2.36884  -4.10952
H    -0.34202  -3.36775  -2.88361
H     1.42936  -3.58552  -3.14278
H    -3.27890  -1.55038   2.04712
H    -3.86317  -0.90535   0.49818
H    -3.80684  -2.69397   0.74600
H     2.97493   0.79829   1.71942
H     3.91358   0.99679   0.22667
H     3.72805   2.39841   1.34218
26

C     0.60925  -2.85539  -3.12941
O     0.93563  -1.89230  -2.10046
C     0.04598  -0.93198  -1.89939
O    -0.95066  -0.74891  -2.55999
C     0.37789  -0.09158  -0.70697
C    -1.04467  -0.52588   0.58914
C    -1.89437  -1.75736   0.39423
C    -3.28249  -1.71955   0.96637
O    -1.43019  -2.68584  -0.23415
N    -0.89495   0.22692   1.56516
N     0.05875   1.03231   1.86435
C    -0.22592   2.20098   2.44191
N    -0.33810   3.25580   2.93097
C     1.09846   0.83457  -0.25259
C     1.99291   1.92111   0.17277
C     3.22915   1.50745   0.91638
O     1.70614   3.08162  -0.07448
H     0.51600  -2.36811  -4.10923
H    -0.34157  -3.36696  -2.88326
H     1.42988  -3.58465  -3.14223
H    -3.27627  -1.54839   2.04730
H    -3.86158  -0.90438   0.49831
H    -3.80444  -2.69281   0.74705
H     2.97521   0.79810   1.71923
H     3.91328   0.99638   0.22604
H     3.72777   2.39826   1.34115
26

C     0.61076  -2.85267  -3.12834
O     0.93648  -1.88851  -2.09821
C     0.04422  -0.93180  -1.89595
O    -0.94886  -0.74656  -2.56082
C     0.35721  -0.09968  -0.68374
C    -1.02725  -0.52118   0.57169
C    -1.88743  -1.75341   0.39095
C    -3.27506  -1.71450   0.96740
O    -1.42969  -2.68661  -0.23626
N    -0.90374   0.22489   1.57036
N     0.05910   1.03258   1.85200
C    -0.22228   2.19978   2.43765
N    -0.33619   3.25280   2.93005
C     1.08834   0.83116  -0.24084
C     1.99082   1.91888   0.17221
C     3.22842   1.50600   0.91452
O     1.70578   3.07907  -0.07776
H     0.51656  -2.36738  -4.10893
H    -0.34113  -3.36616  -2.88292
H     1.43039  -3.58377  -3.14168
H    -3.27364  -1.54639   2.04748
H    -3.86000  -0.90342   0.49843
H    -3.80204  -2.69165   0.74811
H     2.97549   0.79791   1.71904
H     3.91298   0.99596   0.22541
H     3.72750   2.39811   1.34013
26

C     0.61227  -2.84996  -3.12728
O     0.93733  -1.88472  -2.09595
C     0.04246  -0.93162  -1.89252
O    -0.94706  -0.74422  -2.56165
C     0.33653  -0.10778  -0.66051
C    -1.00983  -0.51649   0.55425
C    -1.88049  -1.74947   0.38767
C    -3.26763  -1.70944   0.96843
O    -1.42920  -2.68738  -0.23838
N    -0.91253   0.22286   1.57556
N     0.05945   1.03286   1.83964
C    -0.21864   2.19858   2.43340
N    -0.33428   3.24981   2.92913
C     1.07822   0.82775  -0.22909
C     1.98874   1.91665   0.17164
C     3.22770   1.50456   0.91266
O     1.70542   3.07652  -0.08104
H     0.51711  -2.36665  -4.10864
H    -0.34068  -3.36537  -2.88257
H     1.43090  -3.58290  -3.14114
H    -3.27101  -1.54440   2.04766
H    -3.85841  -0.90245   0.49855
H    -3.79964  -2.69050   0.74917
H     2.97577   0.79772   1.71885
H     3.91268   0.99554   0.22479
H     3.72723   2.39797   1.33910
26

C     0.61379  -2.84724  -3.12622
O     0.93819  -1.88093  -2.09370
C     0.04069  -0.93143  -1.88909
O    -0.94526  -0.74187  -2.56248
C     0.31585  -0.11588  -0.63728
C    -0.99241  -0.51180   0.53680
C    -1.87356  -1.74553   0.38439
C    -3.26020  -1.70438   0.96946
O    -1.42871  -2.68815  -0.24050
N    -0.92132   0.22083   1.58077
N     0.05980   1.03314   1.82729
C    -0.21500   2.19738   2.42914
N    -0.33237   3.24682   2.92821
C     1.06811   0.82435  -0.21735
C     1.98665   1.91441   0.17107
C     3.22698   1.50312   0.91080
O     1.70505   3.07396  -0.08431
H     0.51767  -2.36593  -4.10835
H    -0.34023  -3.36457  -2.88223
H     1.43142  -3.58202  -3.14059
H    -3.26839  -1.54241   2.04784
H    -3.85683  -0.90148   0.49867
H    -3.79723  -2.68934   0.75022
H     2.97605   0.79753   1.71866
H     3.91237   0.99513   0.22416
H     3.72696   2.39782   1.33808
26

C     0.61530  -2.84453  -3.12515
O     0.93904  -1.87715  -2.09144
C     0.03893  -0.93125  -1.88565
O    -0.94346  -0.73953  -2.56331
C     0.29517  -0.12398  -0.61405
C    -0.97499  -0.50710   0.51935
C    -1.86662  -1.74159   0.38111
C    -3.25277  -1.69933   0.97049
O    -1.42822  -2.68892  -0.24261
N    -0.93011   0.21880   1.58597
N     0.06015   1.03342   1.81494
C    -0.21136   2.19618   2.42489
N    -0.33045   3.24382   2.92729
C     1.05799   0.82094  -0.20560
C     1.98457   1.91218   0.17051
C     3.22626   1.50168   0.90894
O     1.70469   3.07141  -0.08759
H     0.51822  -2.36520  -4.10805
H    -0.33978  -3.36378  -2.88188
H     1.43193  -3.58114  -3.14005
H    -3.26576  -1.54041   2.04802
H    -3.85524  -0.90051   0.49879
H    -3.79483  -2.68818   0.75128
H     2.97633   0.79734   1.71847
H     3.91207   0.99471   0.22353
H     3.72668   2.39768   1.33705
