14

O 0.484545753 3.124987558 3.188474986
C 1.104954650 1.086610058 1.606920616
C 0.781155483 1.668350832 -1.172055688
C 0.035768150 -0.680691671 -2.502306662
C -0.050804512 -2.818432577 -0.609125229
C -1.069866669 -0.774540648 1.158488154
N -1.919505752 0.816146106 -1.154143163
H 2.902055414 0.340348708 2.291518540
H 1.360709711 3.363515309 -2.160953148
H 0.048127753 -0.804832372 -4.544546175
H 1.694353482 -3.786382857 -0.082657150
H -1.502173759 -4.190252971 -1.111240711
H -1.037124159 3.891080979 2.554578546
H -2.406058526 -1.178494722 2.665503126

