11

O 3.955717493 4.377784705 -0.047541711
C 3.169935487 2.321638715 -0.033725526
N 2.490482305 0.174823817 0.217961521
C 1.050926058 -1.647368125 -1.180621042
C -1.658139999 -0.846017763 -1.643614940
H -2.814751673 -2.317047418 -2.494200284
C -2.837036231 1.249713511 -0.364904055
H -3.731235811 2.125454738 1.249385341
N -2.164177002 1.812930168 -2.552747099
H 1.050149456 -3.411905280 -0.113023159
H 1.971186492 -2.026898075 -2.993411446

