13

O 3.382563559 4.075071461 -0.275162360
C 2.464219213 2.108736444 0.044546344
N 2.571458279 -0.207329431 0.760225935
C 1.101792968 -1.931348590 -0.802390052
C -1.434179977 -0.607006412 -1.321529169
C -2.547339326 0.773981554 0.738982881
N -1.215674498 2.136361557 -0.867843438
H 0.519133448 -0.118005894 2.647007829
H 0.888108974 -3.719050801 0.200331000
H 2.066548214 -2.289965299 -2.589956052
H -2.531591388 -1.264261397 -2.923264718
H -4.313929385 1.080883205 1.719183822
H -1.134152771 -0.017574188 3.007425976

