17

C 4.264921794 1.394323158 -0.461832020
C 1.811957942 0.167679178 0.094171497
O 0.580114645 0.484935055 2.269249214
C -1.190840813 -1.429040148 1.543706953
C -3.804198704 -0.219482543 1.254653009
C -2.844825852 0.770621678 -1.294952420
C -0.335367371 -0.883606210 -1.251985868
H 3.983997074 3.370541688 -1.006980099
H 5.486649425 1.340095521 1.194519864
H 5.203245894 0.424911080 -2.016346581
H 2.473125794 -3.075859762 1.100514096
H 0.993913795 -3.434414337 1.797725205
H -4.296621818 1.178375253 2.679831200
H -5.300657005 -1.622252418 1.093367870
H -4.001326052 0.226979843 -2.904862489
H -2.484984827 2.793124760 -1.364843374
H -0.105043299 -2.256711713 -2.755179569

