15

C -3.678776088 -1.064351352 -0.119938876
C -1.225305959 0.278675247 -0.574431105
N -0.998836173 2.979773047 0.265722743
C 1.504631782 2.369555537 1.514892107
C 1.208053024 -0.176554221 0.298990842
N 2.429477637 -1.848305520 -1.092235244
O 4.351488183 -3.189076051 0.144713961
H -5.046521968 -0.647634957 -1.605745075
H -4.493792724 -0.458280241 1.681207281
H -3.393994494 -3.107565662 -0.089421613
H 0.134585595 -1.709803845 -2.306918901
H -0.708613017 4.169844174 -1.209065162
H 1.311683054 2.439111007 3.562749890
H 3.141203713 3.466717826 0.908265700
H 5.493169112 -3.635039681 -1.195390555

