26

C    -0.96848   2.91608  -1.20708
C    -1.06569   2.43491   0.20606
O    -0.14266   1.70172   0.80780
C     1.12151   1.41164   0.63942
C     1.96712   2.08413  -0.38896
C     1.72711   0.62210   1.75217
C    -0.42360  -0.75922  -1.40629
C     0.97835  -1.25731  -1.10603
O     1.90842  -0.88107  -1.89210
O     1.16104  -2.03159  -0.10955
C    -1.51019  -0.91439  -0.62997
C    -1.60300  -1.60735   0.72262
O    -1.84948  -2.83777   0.71462
O    -1.50470  -0.86392   1.74978
H    -0.07004   3.53439  -1.44876
H    -1.83233   3.34807  -1.52008
H    -0.77765   1.97542  -1.92508
H    -2.00249   2.15813   0.58856
H     3.04222   1.75891  -0.27007
H     2.05125   3.23613  -0.11096
H     1.66205   2.02364  -1.35718
H     2.37144   1.25933   2.47561
H     2.44449  -0.13567   1.37549
H     0.98057   0.13228   2.35554
H    -0.61933  -0.35258  -2.42799
H    -2.54195  -0.66220  -1.03767
26

C    -0.95855   2.90508  -1.21112
C    -1.05905   2.43391   0.20459
O    -0.13595   1.70165   0.81055
C     1.12834   1.41639   0.64543
C     1.97393   2.09309  -0.37972
C     1.73326   0.62406   1.75637
C    -0.43349  -0.77136  -1.41344
C     0.97132  -1.25281  -1.10864
O     1.89666  -0.86613  -1.89306
O     1.15850  -2.02175  -0.11058
C    -1.51852  -0.92919  -0.63567
C    -1.60605  -1.61124   0.72163
O    -1.84779  -2.84227   0.72422
O    -1.50944  -0.86000   1.74145
H    -0.06828   3.53223  -1.45081
H    -1.83004   3.34238  -1.52342
H    -0.77237   1.97085  -1.92391
H    -2.00072   2.15669   0.58695
H     3.04506   1.76450  -0.26501
H     2.04960   3.23889  -0.10928
H     1.66640   2.02436  -1.35501
H     2.37363   1.25930   2.47696
H     2.44586  -0.13518   1.37614
H     0.98221   0.13288   2.35660
H    -0.62330  -0.35888  -2.43122
H    -2.54523  -0.67011  -1.04015
26

C    -0.94862   2.89407  -1.21516
C    -1.05241   2.43292   0.20313
O    -0.12925   1.70157   0.81329
C     1.13518   1.42114   0.65143
C     1.98074   2.10205  -0.37048
C     1.73942   0.62601   1.76057
C    -0.44339  -0.78350  -1.42058
C     0.96429  -1.24831  -1.11124
O     1.88491  -0.85118  -1.89401
O     1.15595  -2.01192  -0.11160
C    -1.52685  -0.94398  -0.64136
C    -1.60910  -1.61514   0.72064
O    -1.84609  -2.84677   0.73383
O    -1.51419  -0.85608   1.73313
H    -0.06651   3.53006  -1.45285
H    -1.82776   3.33669  -1.52675
H    -0.76709   1.96629  -1.92275
H    -1.99895   2.15524   0.58535
H     3.04789   1.77010  -0.25995
H     2.04795   3.24166  -0.10759
H     1.67075   2.02508  -1.35284
H     2.37582   1.25927   2.47832
H     2.44723  -0.13469   1.37678
H     0.98385   0.13349   2.35765
H    -0.62727  -0.36517  -2.43445
H    -2.54851  -0.67801  -1.04264
26

C    -0.93869   2.88307  -1.21921
C    -1.04577   2.43193   0.20167
O    -0.12255   1.70150   0.81604
C     1.14202   1.42589   0.65744
C     1.98755   2.11101  -0.36124
C     1.74557   0.62797   1.76477
C    -0.45328  -0.79564  -1.42772
C     0.95725  -1.24381  -1.11384
O     1.87316  -0.83624  -1.89497
O     1.15340  -2.00208  -0.11263
C    -1.53518  -0.95878  -0.64705
C    -1.61215  -1.61904   0.71965
O    -1.84440  -2.85127   0.74343
O    -1.51893  -0.85216   1.72480
H    -0.06475   3.52790  -1.45489
H    -1.82547   3.33099  -1.53009
H    -0.76180   1.96172  -1.92158
H    -1.99719   2.15380   0.58374
H     3.05072   1.77569  -0.25489
H     2.04629   3.24442  -0.10590
H     1.67510   2.02580  -1.35068
H     2.37800   1.25924   2.47968
H     2.44859  -0.13419   1.37743
H     0.98549   0.13410   2.35870
H    -0.63124  -0.37146  -2.43768
H    -2.55179  -0.68591  -1.04512
26

C    -0.92876   2.87207  -1.22325
C    -1.03912   2.43094   0.20021
O    -0.11584   1.70142   0.81879
C     1.14885   1.43064   0.66344
C     1.99436   2.11997  -0.35199
C     1.75172   0.62992   1.76897
C    -0.46317  -0.80778  -1.43486
C     0.95022  -1.23931  -1.11644
O     1.86141  -0.82130  -1.89592
O     1.15085  -1.99224  -0.11366
C    -1.54351  -0.97357  -0.65274
C    -1.61520  -1.62294   0.71866
O    -1.84270  -2.85576   0.75304
O    -1.52368  -0.84824   1.71648
H    -0.06298   3.52574  -1.45693
H    -1.82318   3.32530  -1.53343
H    -0.75652   1.95715  -1.92042
H    -1.99542   2.15236   0.58213
H     3.05356   1.78128  -0.24983
H     2.04464   3.24719  -0.10421
H     1.67944   2.02651  -1.34851
H     2.38019   1.25921   2.48103
H     2.44996  -0.13370   1.37808
H     0.98713   0.13471   2.35975
H    -0.63521  -0.37775  -2.44091
H    -2.55507  -0.69382  -1.04761
26

C    -0.91883   2.86107  -1.22729
C    -1.03248   2.42995   0.19875
O    -0.10914   1.70135   0.82153
C     1.15569   1.43539   0.66945
C     2.00117   2.12893  -0.34275
C     1.75787   0.63188   1.77317
C    -0.47307  -0.81992  -1.44200
C     0.94319  -1.23481  -1.11904
O     1.84966  -0.80635  -1.89688
O     1.14831  -1.98240  -0.11469
C    -1.55184  -0.98837  -0.65844
C    -1.61824  -1.62684   0.71767
O    -1.84101  -2.86026   0.76264
O    -1.52842  -0.84432   1.70815
H    -0.06122   3.52357  -1.45898
H    -1.82089   3.31961  -1.53676
H    -0.75124   1.95259  -1.91925
H    -1.99365   2.15091   0.58053
H     3.05639   1.78688  -0.24477
H     2.04299   3.24996  -0.10252
H     1.68379   2.02723  -1.34634
H     2.38238   1.25918   2.48239
H     2.45133  -0.13321   1.37872
H     0.98876   0.13532   2.36081
H    -0.63918  -0.38404  -2.44414
H    -2.55835  -0.70172  -1.05010
26

C    -0.90890   2.85007  -1.23133
C    -1.02584   2.42895   0.19729
O    -0.10243   1.70127   0.82428
C     1.16253   1.44014   0.67545
C     2.00798   2.13789  -0.33351
C     1.76403   0.63383   1.77737
C    -0.48296  -0.83206  -1.44915
C     0.93616  -1.23031  -1.12165
O     1.83791  -0.79141  -1.89783
O     1.14576  -1.97256  -0.11572
C    -1.56017  -1.00316  -0.66413
C    -1.62129  -1.63073   0.71668
O    -1.83931  -2.86476   0.77224
O    -1.53317  -0.84039   1.69982
H    -0.05946   3.52141  -1.46102
H    -1.81860   3.31392  -1.54010
H    -0.74596   1.94802  -1.91809
H    -1.99188   2.14947   0.57892
H     3.05922   1.79247  -0.23971
H     2.04134   3.25272  -0.10083
H     1.68814   2.02795  -1.34418
H     2.38456   1.25915   2.48375
H     2.45270  -0.13272   1.37937
H     0.99040   0.13592   2.36186
H    -0.64315  -0.39033  -2.44737
H    -2.56163  -0.70963  -1.05258
26

C    -0.89898   2.83907  -1.23537
C    -1.01920   2.42796   0.19583
O    -0.09573   1.70120   0.82703
C     1.16936   1.44489   0.68146
C     2.01479   2.14685  -0.32427
C     1.77018   0.63579   1.78157
C    -0.49286  -0.84420  -1.45629
C     0.92912  -1.22581  -1.12425
O     1.82616  -0.77646  -1.89879
O     1.14321  -1.96272  -0.11674
C    -1.56850  -1.01796  -0.66982
C    -1.62434  -1.63463   0.71569
O    -1.83762  -2.86925   0.78185
O    -1.53792  -0.83647   1.69150
H    -0.05769   3.51925  -1.46306
H    -1.81631   3.30822  -1.54344
H    -0.74068   1.94346  -1.91692
H    -1.99011   2.14802   0.57732
H     3.06206   1.79806  -0.23465
H     2.03968   3.25549  -0.09915
H     1.69249   2.02867  -1.34201
H     2.38675   1.25912   2.48510
H     2.45406  -0.13222   1.38001
H     0.99204   0.13653   2.36291
H    -0.64712  -0.39662  -2.45060
H    -2.56491  -0.71753  -1.05507
26

C    -0.88905   2.82806  -1.23941
C    -1.01256   2.42697   0.19437
O    -0.08902   1.70112   0.82977
C     1.17620   1.44964   0.68746
C     2.02160   2.15581  -0.31502
C     1.77633   0.63774   1.78577
C    -0.50275  -0.85634  -1.46343
C     0.92209  -1.22132  -1.12685
O     1.81440  -0.76152  -1.89975
O     1.14066  -1.95289  -0.11777
C    -1.57684  -1.03275  -0.67552
C    -1.62739  -1.63853   0.71470
O    -1.83592  -2.87375   0.79145
O    -1.54266  -0.83255   1.68317
H    -0.05593   3.51708  -1.46510
H    -1.81402   3.30253  -1.54677
H    -0.73539   1.93889  -1.91575
H    -1.98834   2.14658   0.57571
H     3.06489   1.80366  -0.22959
H     2.03803   3.25825  -0.09746
H     1.69683   2.02939  -1.33984
H     2.38894   1.25909   2.48646
H     2.45543  -0.13173   1.38066
H     0.99368   0.13714   2.36397
H    -0.65109  -0.40291  -2.45383
H    -2.56819  -0.72543  -1.05755
26

C    -0.87912   2.81706  -1.24345
C    -1.00592   2.42598   0.19291
O    -0.08232   1.70105   0.83252
C     1.18304   1.45439   0.69347
C     2.02841   2.16477  -0.30578
C     1.78249   0.63970   1.78997
C    -0.51265  -0.86848  -1.47057
C     0.91506  -1.21682  -1.12945
O     1.80265  -0.74658  -1.90070
O     1.13812  -1.94305  -0.11880
C    -1.58517  -1.04755  -0.68121
C    -1.63044  -1.64243   0.71371
O    -1.83423  -2.87825   0.80106
O    -1.54741  -0.82863   1.67484
H    -0.05416   3.51492  -1.46715
H    -1.81174   3.29684  -1.55011
H    -0.73011   1.93433  -1.91459
H    -1.98657   2.14514   0.57410
H     3.06772   1.80925  -0.22453
H     2.03638   3.26102  -0.09577
H     1.70118   2.03010  -1.33768
H     2.39112   1.25906   2.48782
H     2.45680  -0.13124   1.38130
H     0.99532   0.13775   2.36502
H    -0.65506  -0.40920  -2.45706
H    -2.57147  -0.73334  -1.06004
26

C    -0.86919   2.80606  -1.24750
C    -0.99928   2.42499   0.19145
O    -0.07562   1.70097   0.83526
C     1.18987   1.45914   0.69947
C     2.03522   2.17373  -0.29654
C     1.78864   0.64165   1.79417
C    -0.52254  -0.88061  -1.47772
C     0.90803  -1.21232  -1.13206
O     1.79090  -0.73163  -1.90166
O     1.13557  -1.93321  -0.11983
C    -1.59350  -1.06234  -0.68690
C    -1.63348  -1.64633   0.71272
O    -1.83253  -2.88275   0.81066
O    -1.55215  -0.82471   1.66652
H    -0.05240   3.51276  -1.46919
H    -1.80945   3.29115  -1.55345
H    -0.72483   1.92976  -1.91342
H    -1.98481   2.14369   0.57250
H     3.07056   1.81485  -0.21947
H     2.03473   3.26378  -0.09408
H     1.70553   2.03082  -1.33551
H     2.39331   1.25903   2.48917
H     2.45817  -0.13075   1.38195
H     0.99696   0.13835   2.36607
H    -0.65903  -0.41549  -2.46029
H    -2.57475  -0.74124  -1.06253
26

C    -0.85926   2.79506  -1.25154
C    -0.99263   2.42399   0.18999
O    -0.06891   1.70090   0.83801
C     1.19671   1.46389   0.70547
C     2.04202   2.18269  -0.28730
C     1.79479   0.64361   1.79837
C    -0.53244  -0.89275  -1.48486
C     0.90099  -1.20782  -1.13466
O     1.77915  -0.71669  -1.90261
O     1.13302  -1.92337  -0.12086
C    -1.60183  -1.07714  -0.69259
C    -1.63653  -1.65023   0.71173
O    -1.83084  -2.88724   0.82027
O    -1.55690  -0.82079   1.65819
H    -0.05063   3.51059  -1.47123
H    -1.80716   3.28546  -1.55678
H    -0.71955   1.92519  -1.91226
H    -1.98304   2.14225   0.57089
H     3.07339   1.82044  -0.21441
H     2.03308   3.26655  -0.09239
H     1.70988   2.03154  -1.33334
H     2.39550   1.25899   2.49053
H     2.45953  -0.13026   1.38259
H     0.99860   0.13896   2.36713
H    -0.66300  -0.42178  -2.46352
H    -2.57803  -0.74914  -1.06501
26

C    -0.84933   2.78406  -1.25558
C    -0.98599   2.42300   0.18853
O    -0.06221   1.70082   0.84076
C     1.20355   1.46864   0.71148
C     2.04883   2.19165  -0.27805
C     1.80094   0.64556   1.80257
C    -0.54233  -0.90489  -1.49200
C     0.89396  -1.20332  -1.13726
O     1.76740  -0.70174  -1.90357
O     1.13048  -1.91353  -0.12188
C    -1.61016  -1.09193  -0.69829
C    -1.63958  -1.65412   0.71074
O    -1.82914  -2.89174   0.82987
O    -1.56165  -0.81687   1.64987
H    -0.04887   3.50843  -1.47327
H    -1.80487   3.27976  -1.56012
H    -0.71427   1.92063  -1.91109
H    -1.98127   2.14081   0.56928
H     3.07622   1.82603  -0.20935
H     2.03142   3.26931  -0.09070
H     1.71422   2.03226  -1.33118
H     2.39768   1.25896   2.49188
H     2.46090  -0.12976   1.38324
H     1.00024   0.13957   2.36818
H    -0.66697  -0.42807  -2.46675
H    -2.58131  -0.75705  -1.06750
26

C    -0.83940   2.77306  -1.25962
C    -0.97935   2.42201   0.18707
O    -0.05550   1.70075   0.84350
C     1.21038   1.47339   0.71748
C     2.05564   2.20061  -0.26881
C     1.80710   0.64752   1.80677
C    -0.55223  -0.91703  -1.49914
C     0.88693  -1.19882  -1.13986
O     1.75565  -0.68680  -1.90452
O     1.12793  -1.90369  -0.12291
C    -1.61849  -1.10673  -0.70398
C    -1.64263  -1.65802   0.70975
O    -1.82745  -2.89624   0.83947
O    -1.56639  -0.81295   1.64154
H    -0.04710   3.50627  -1.47532
H    -1.80258   3.27407  -1.56346
H    -0.70899   1.91606  -1.90993
H    -1.97950   2.13936   0.56768
H     3.07906   1.83163  -0.20429
H     2.02977   3.27208  -0.08901
H     1.71857   2.03297  -1.32901
H     2.39987   1.25893   2.49324
H     2.46227  -0.12927   1.38388
H     1.00188   0.14018   2.36923
H    -0.67094  -0.43436  -2.46998
H    -2.58460  -0.76495  -1.06998
26

C    -0.82947   2.76205  -1.26366
C    -0.97271   2.42102   0.18561
O    -0.04880   1.70067   0.84625
C     1.21722   1.47814   0.72349
C     2.06245   2.20957  -0.25957
C     1.81325   0.64947   1.81097
C    -0.56212  -0.92917  -1.50628
C     0.87990  -1.19432  -1.14247
O     1.74389  -0.67186  -1.90548
O     1.12538  -1.89385  -0.12394
C    -1.62682  -1.12152  -0.70967
C    -1.64568  -1.66192   0.70876
O    -1.82575  -2.90073   0.84908
O    -1.57114  -0.80903   1.63321
H    -0.04534   3.50410  -1.47736
H    -1.80029   3.26838  -1.56679
H    -0.70370   1.91150  -1.90876
H    -1.97773   2.13792   0.56607
H     3.08189   1.83722  -0.19923
H     2.02812   3.27484  -0.08733
H     1.72292   2.03369  -1.32684
H     2.40206   1.25890   2.49460
H     2.46364  -0.12878   1.38453
H     1.00352   0.14079   2.37028
H    -0.67491  -0.44065  -2.47321
H    -2.58788  -0.77286  -1.07247
26

C    -0.81954   2.75105  -1.26770
C    -0.96607   2.42002   0.18415
O    -0.04209   1.70060   0.84900
C     1.22405   1.48289   0.72949
C     2.06926   2.21853  -0.25032
C     1.81940   0.65143   1.81517
C    -0.57201  -0.94131  -1.51343
C     0.87286  -1.18982  -1.14507
O     1.73214  -0.65691  -1.90643
O     1.12283  -1.88402  -0.12497
C    -1.63515  -1.13632  -0.71537
C    -1.64873  -1.66582   0.70777
O    -1.82406  -2.90523   0.85868
O    -1.57588  -0.80511   1.62489
H    -0.04358   3.50194  -1.47940
H    -1.79800   3.26269  -1.57013
H    -0.69842   1.90693  -1.90760
H    -1.97596   2.13648   0.56447
H     3.08472   1.84281  -0.19417
H     2.02647   3.27761  -0.08564
H     1.72727   2.03441  -1.32468
H     2.40424   1.25887   2.49595
H     2.46501  -0.12829   1.38517
H     1.00516   0.14139   2.37134
H    -0.67888  -0.44694  -2.47644
H    -2.59116  -0.78076  -1.07496
26

C    -0.80961   2.74005  -1.27174
C    -0.95943   2.41903   0.18269
O    -0.03539   1.70052   0.85174
C     1.23089   1.48764   0.73550
C     2.07607   2.22749  -0.24108
C     1.82556   0.65338   1.81937
C    -0.58191  -0.95345  -1.52057
C     0.86583  -1.18532  -1.14767
O     1.72039  -0.64197  -1.90739
O     1.12029  -1.87418  -0.12599
C    -1.64348  -1.15111  -0.72106
C    -1.65177  -1.66972   0.70678
O    -1.82236  -2.90973   0.86829
O    -1.58063  -0.80119   1.61656
H    -0.04181   3.49978  -1.48144
H    -1.79572   3.25700  -1.57347
H    -0.69314   1.90236  -1.90643
H    -1.97420   2.13503   0.56286
H     3.08756   1.84841  -0.18911
H     2.02482   3.28037  -0.08395
H     1.73162   2.03513  -1.32251
H     2.40643   1.25884   2.49731
H     2.46637  -0.12779   1.38582
H     1.00680   0.14200   2.37239
H    -0.68285  -0.45323  -2.47967
H    -2.59444  -0.78866  -1.07744
26

C    -0.79968   2.72905  -1.27579
C    -0.95279   2.41804   0.18123
O    -0.02869   1.70045   0.85449
C     1.23773   1.49240   0.74150
C     2.08288   2.23645  -0.23184
C     1.83171   0.65534   1.82357
C    -0.59180  -0.96559  -1.52771
C     0.85880  -1.18082  -1.15027
O     1.70864  -0.62702  -1.90834
O     1.11774  -1.86434  -0.12702
C    -1.65181  -1.16591  -0.72675
C    -1.65482  -1.67362   0.70579
O    -1.82067  -2.91423   0.87789
O    -1.58537  -0.79727   1.60824
H    -0.04005   3.49761  -1.48349
H    -1.79343   3.25130  -1.57680
H    -0.68786   1.89780  -1.90527
H    -1.97243   2.13359   0.56125
H     3.09039   1.85400  -0.18405
H     2.02316   3.28314  -0.08226
H     1.73596   2.03585  -1.32034
H     2.40862   1.25881   2.49867
H     2.46774  -0.12730   1.38646
H     1.00844   0.14261   2.37344
H    -0.68682  -0.45952  -2.48290
H    -2.59772  -0.79657  -1.07993
26

C    -0.78975   2.71805  -1.27983
C    -0.94615   2.41705   0.17977
O    -0.02198   1.70037   0.85724
C     1.24456   1.49715   0.74751
C     2.08969   2.24541  -0.22260
C     1.83786   0.65729   1.82777
C    -0.60170  -0.97773  -1.53485
C     0.85177  -1.17632  -1.15288
O     1.69689  -0.61208  -1.90930
O     1.11519  -1.85450  -0.12805
C    -1.66014  -1.18070  -0.73244
C    -1.65787  -1.67751   0.70480
O    -1.81897  -2.91872   0.88750
O    -1.59012  -0.79335   1.59991
H    -0.03828   3.49545  -1.48553
H    -1.79114   3.24561  -1.58014
H    -0.68258   1.89323  -1.90410
H    -1.97066   2.13215   0.55965
H     3.09322   1.85959  -0.17898
H     2.02151   3.28590  -0.08057
H     1.74031   2.03656  -1.31818
H     2.41080   1.25878   2.50002
H     2.46911  -0.12681   1.38711
H     1.01008   0.14322   2.37450
H    -0.69079  -0.46581  -2.48613
H    -2.60100  -0.80447  -1.08241
26

C    -0.77982   2.70705  -1.28387
C    -0.93950   2.41606   0.17831
O    -0.01528   1.70030   0.85998
C     1.25140   1.50190   0.75351
C     2.09650   2.25438  -0.21335
C     1.84401   0.65925   1.83197
C    -0.61159  -0.98987  -1.54199
C     0.84473  -1.17182  -1.15548
O     1.68514  -0.59714  -1.91025
O     1.11264  -1.84466  -0.12908
C    -1.66848  -1.19550  -0.73814
C    -1.66092  -1.68141   0.70381
O    -1.81728  -2.92322   0.89710
O    -1.59487  -0.78943   1.59158
H    -0.03652   3.49329  -1.48757
H    -1.78885   3.23992  -1.58348
H    -0.67730   1.88867  -1.90294
H    -1.96889   2.13070   0.55804
H     3.09606   1.86519  -0.17392
H     2.01986   3.28867  -0.07888
H     1.74466   2.03728  -1.31601
H     2.41299   1.25875   2.50138
H     2.47048  -0.12632   1.38775
H     1.01172   0.14382   2.37555
H    -0.69476  -0.47210  -2.48937
H    -2.60428  -0.81237  -1.08490
26

C    -0.76989   2.69605  -1.28791
C    -0.93286   2.41506   0.17685
O    -0.00857   1.70022   0.86273
C     1.25824   1.50665   0.75952
C     2.10331   2.26334  -0.20411
C     1.85017   0.66120   1.83617
C    -0.62149  -1.00201  -1.54914
C     0.83770  -1.16732  -1.15808
O     1.67339  -0.58219  -1.91121
O     1.11010  -1.83482  -0.13011
C    -1.67681  -1.21029  -0.74383
C    -1.66397  -1.68531   0.70282
O    -1.81558  -2.92772   0.90670
O    -1.59961  -0.78551   1.58326
H    -0.03475   3.49112  -1.48961
H    -1.78656   3.23423  -1.58681
H    -0.67201   1.88410  -1.90177
H    -1.96712   2.12926   0.55643
H     3.09889   1.87078  -0.16886
H     2.01821   3.29143  -0.07720
H     1.74901   2.03800  -1.31384
H     2.41518   1.25872   2.50274
H     2.47184  -0.12582   1.38840
H     1.01336   0.14443   2.37660
H    -0.69873  -0.47839  -2.49260
H    -2.60756  -0.82028  -1.08739
26

C    -0.77982   2.70705  -1.28387
C    -0.93950   2.41606   0.17831
O    -0.01528   1.70030   0.85998
C     1.25140   1.50190   0.75351
C     2.09650   2.25438  -0.21335
C     1.84401   0.65925   1.83197
C    -0.61159  -0.98987  -1.54199
C     0.84473  -1.17182  -1.15548
O     1.68514  -0.59714  -1.91025
O     1.11264  -1.84466  -0.12908
C    -1.66848  -1.19550  -0.73814
C    -1.66092  -1.68141   0.70381
O    -1.81728  -2.92322   0.89710
O    -1.59487  -0.78943   1.59158
H    -0.03652   3.49329  -1.48757
H    -1.78885   3.23992  -1.58348
H    -0.67730   1.88867  -1.90294
H    -1.96889   2.13070   0.55804
H     3.09606   1.86519  -0.17392
H     2.01986   3.28867  -0.07888
H     1.74466   2.03728  -1.31601
H     2.41299   1.25875   2.50138
H     2.47048  -0.12632   1.38775
H     1.01172   0.14382   2.37555
H    -0.69476  -0.47210  -2.48937
H    -2.60428  -0.81237  -1.08490
26

C    -0.78975   2.71805  -1.27983
C    -0.94615   2.41705   0.17977
O    -0.02198   1.70037   0.85724
C     1.24456   1.49715   0.74751
C     2.08969   2.24541  -0.22260
C     1.83786   0.65729   1.82777
C    -0.60170  -0.97773  -1.53485
C     0.85177  -1.17632  -1.15288
O     1.69689  -0.61208  -1.90930
O     1.11519  -1.85450  -0.12805
C    -1.66014  -1.18070  -0.73244
C    -1.65787  -1.67751   0.70480
O    -1.81897  -2.91872   0.88750
O    -1.59012  -0.79335   1.59991
H    -0.03828   3.49545  -1.48553
H    -1.79114   3.24561  -1.58014
H    -0.68258   1.89323  -1.90410
H    -1.97066   2.13215   0.55965
H     3.09322   1.85959  -0.17898
H     2.02151   3.28590  -0.08057
H     1.74031   2.03656  -1.31818
H     2.41080   1.25878   2.50002
H     2.46911  -0.12681   1.38711
H     1.01008   0.14322   2.37450
H    -0.69079  -0.46581  -2.48613
H    -2.60100  -0.80447  -1.08241
26

C    -0.79968   2.72905  -1.27579
C    -0.95279   2.41804   0.18123
O    -0.02869   1.70045   0.85449
C     1.23773   1.49240   0.74150
C     2.08288   2.23645  -0.23184
C     1.83171   0.65534   1.82357
C    -0.59180  -0.96559  -1.52771
C     0.85880  -1.18082  -1.15027
O     1.70864  -0.62702  -1.90834
O     1.11774  -1.86434  -0.12702
C    -1.65181  -1.16591  -0.72675
C    -1.65482  -1.67362   0.70579
O    -1.82067  -2.91423   0.87789
O    -1.58537  -0.79727   1.60824
H    -0.04005   3.49761  -1.48349
H    -1.79343   3.25130  -1.57680
H    -0.68786   1.89780  -1.90527
H    -1.97243   2.13359   0.56125
H     3.09039   1.85400  -0.18405
H     2.02316   3.28314  -0.08226
H     1.73596   2.03585  -1.32034
H     2.40862   1.25881   2.49867
H     2.46774  -0.12730   1.38646
H     1.00844   0.14261   2.37344
H    -0.68682  -0.45952  -2.48290
H    -2.59772  -0.79657  -1.07993
26

C    -0.80961   2.74005  -1.27174
C    -0.95943   2.41903   0.18269
O    -0.03539   1.70052   0.85174
C     1.23089   1.48764   0.73550
C     2.07607   2.22749  -0.24108
C     1.82556   0.65338   1.81937
C    -0.58191  -0.95345  -1.52057
C     0.86583  -1.18532  -1.14767
O     1.72039  -0.64197  -1.90739
O     1.12029  -1.87418  -0.12599
C    -1.64348  -1.15111  -0.72106
C    -1.65177  -1.66972   0.70678
O    -1.82236  -2.90973   0.86829
O    -1.58063  -0.80119   1.61656
H    -0.04181   3.49978  -1.48144
H    -1.79572   3.25700  -1.57347
H    -0.69314   1.90236  -1.90643
H    -1.97420   2.13503   0.56286
H     3.08756   1.84841  -0.18911
H     2.02482   3.28037  -0.08395
H     1.73162   2.03513  -1.32251
H     2.40643   1.25884   2.49731
H     2.46637  -0.12779   1.38582
H     1.00680   0.14200   2.37239
H    -0.68285  -0.45323  -2.47967
H    -2.59444  -0.78866  -1.07744
26

C    -0.81954   2.75105  -1.26770
C    -0.96607   2.42002   0.18415
O    -0.04209   1.70060   0.84900
C     1.22405   1.48289   0.72949
C     2.06926   2.21853  -0.25032
C     1.81940   0.65143   1.81517
C    -0.57201  -0.94131  -1.51343
C     0.87286  -1.18982  -1.14507
O     1.73214  -0.65691  -1.90643
O     1.12283  -1.88402  -0.12497
C    -1.63515  -1.13632  -0.71537
C    -1.64873  -1.66582   0.70777
O    -1.82406  -2.90523   0.85868
O    -1.57588  -0.80511   1.62489
H    -0.04358   3.50194  -1.47940
H    -1.79800   3.26269  -1.57013
H    -0.69842   1.90693  -1.90760
H    -1.97596   2.13648   0.56447
H     3.08472   1.84281  -0.19417
H     2.02647   3.27761  -0.08564
H     1.72727   2.03441  -1.32468
H     2.40424   1.25887   2.49595
H     2.46501  -0.12829   1.38517
H     1.00516   0.14139   2.37134
H    -0.67888  -0.44694  -2.47644
H    -2.59116  -0.78076  -1.07496
26

C    -0.82947   2.76205  -1.26366
C    -0.97271   2.42102   0.18561
O    -0.04880   1.70067   0.84625
C     1.21722   1.47814   0.72349
C     2.06245   2.20957  -0.25957
C     1.81325   0.64947   1.81097
C    -0.56212  -0.92917  -1.50628
C     0.87990  -1.19432  -1.14247
O     1.74389  -0.67186  -1.90548
O     1.12538  -1.89385  -0.12394
C    -1.62682  -1.12152  -0.70967
C    -1.64568  -1.66192   0.70876
O    -1.82575  -2.90073   0.84908
O    -1.57114  -0.80903   1.63321
H    -0.04534   3.50410  -1.47736
H    -1.80029   3.26838  -1.56679
H    -0.70370   1.91150  -1.90876
H    -1.97773   2.13792   0.56607
H     3.08189   1.83722  -0.19923
H     2.02812   3.27484  -0.08733
H     1.72292   2.03369  -1.32684
H     2.40206   1.25890   2.49460
H     2.46364  -0.12878   1.38453
H     1.00352   0.14079   2.37028
H    -0.67491  -0.44065  -2.47321
H    -2.58788  -0.77286  -1.07247
26

C    -0.83940   2.77306  -1.25962
C    -0.97935   2.42201   0.18707
O    -0.05550   1.70075   0.84350
C     1.21038   1.47339   0.71748
C     2.05564   2.20061  -0.26881
C     1.80710   0.64752   1.80677
C    -0.55223  -0.91703  -1.49914
C     0.88693  -1.19882  -1.13986
O     1.75565  -0.68680  -1.90452
O     1.12793  -1.90369  -0.12291
C    -1.61849  -1.10673  -0.70398
C    -1.64263  -1.65802   0.70975
O    -1.82745  -2.89624   0.83947
O    -1.56639  -0.81295   1.64154
H    -0.04710   3.50627  -1.47532
H    -1.80258   3.27407  -1.56346
H    -0.70899   1.91606  -1.90993
H    -1.97950   2.13936   0.56768
H     3.07906   1.83163  -0.20429
H     2.02977   3.27208  -0.08901
H     1.71857   2.03297  -1.32901
H     2.39987   1.25893   2.49324
H     2.46227  -0.12927   1.38388
H     1.00188   0.14018   2.36923
H    -0.67094  -0.43436  -2.46998
H    -2.58460  -0.76495  -1.06998
26

C    -0.84933   2.78406  -1.25558
C    -0.98599   2.42300   0.18853
O    -0.06221   1.70082   0.84076
C     1.20355   1.46864   0.71148
C     2.04883   2.19165  -0.27805
C     1.80094   0.64556   1.80257
C    -0.54233  -0.90489  -1.49200
C     0.89396  -1.20332  -1.13726
O     1.76740  -0.70174  -1.90357
O     1.13048  -1.91353  -0.12188
C    -1.61016  -1.09193  -0.69829
C    -1.63958  -1.65412   0.71074
O    -1.82914  -2.89174   0.82987
O    -1.56165  -0.81687   1.64987
H    -0.04887   3.50843  -1.47327
H    -1.80487   3.27976  -1.56012
H    -0.71427   1.92063  -1.91109
H    -1.98127   2.14081   0.56928
H     3.07622   1.82603  -0.20935
H     2.03142   3.26931  -0.09070
H     1.71422   2.03226  -1.33118
H     2.39768   1.25896   2.49188
H     2.46090  -0.12976   1.38324
H     1.00024   0.13957   2.36818
H    -0.66697  -0.42807  -2.46675
H    -2.58131  -0.75705  -1.06750
26

C    -0.85926   2.79506  -1.25154
C    -0.99263   2.42399   0.18999
O    -0.06891   1.70090   0.83801
C     1.19671   1.46389   0.70547
C     2.04202   2.18269  -0.28730
C     1.79479   0.64361   1.79837
C    -0.53244  -0.89275  -1.48486
C     0.90099  -1.20782  -1.13466
O     1.77915  -0.71669  -1.90261
O     1.13302  -1.92337  -0.12086
C    -1.60183  -1.07714  -0.69259
C    -1.63653  -1.65023   0.71173
O    -1.83084  -2.88724   0.82027
O    -1.55690  -0.82079   1.65819
H    -0.05063   3.51059  -1.47123
H    -1.80716   3.28546  -1.55678
H    -0.71955   1.92519  -1.91226
H    -1.98304   2.14225   0.57089
H     3.07339   1.82044  -0.21441
H     2.03308   3.26655  -0.09239
H     1.70988   2.03154  -1.33334
H     2.39550   1.25899   2.49053
H     2.45953  -0.13026   1.38259
H     0.99860   0.13896   2.36713
H    -0.66300  -0.42178  -2.46352
H    -2.57803  -0.74914  -1.06501
26

C    -0.86919   2.80606  -1.24750
C    -0.99928   2.42499   0.19145
O    -0.07562   1.70097   0.83526
C     1.18987   1.45914   0.69947
C     2.03522   2.17373  -0.29654
C     1.78864   0.64165   1.79417
C    -0.52254  -0.88061  -1.47772
C     0.90803  -1.21232  -1.13206
O     1.79090  -0.73163  -1.90166
O     1.13557  -1.93321  -0.11983
C    -1.59350  -1.06234  -0.68690
C    -1.63348  -1.64633   0.71272
O    -1.83253  -2.88275   0.81066
O    -1.55215  -0.82471   1.66652
H    -0.05240   3.51276  -1.46919
H    -1.80945   3.29115  -1.55345
H    -0.72483   1.92976  -1.91342
H    -1.98481   2.14369   0.57250
H     3.07056   1.81485  -0.21947
H     2.03473   3.26378  -0.09408
H     1.70553   2.03082  -1.33551
H     2.39331   1.25903   2.48917
H     2.45817  -0.13075   1.38195
H     0.99696   0.13835   2.36607
H    -0.65903  -0.41549  -2.46029
H    -2.57475  -0.74124  -1.06253
26

C    -0.87912   2.81706  -1.24345
C    -1.00592   2.42598   0.19291
O    -0.08232   1.70105   0.83252
C     1.18304   1.45439   0.69347
C     2.02841   2.16477  -0.30578
C     1.78249   0.63970   1.78997
C    -0.51265  -0.86848  -1.47057
C     0.91506  -1.21682  -1.12945
O     1.80265  -0.74658  -1.90070
O     1.13812  -1.94305  -0.11880
C    -1.58517  -1.04755  -0.68121
C    -1.63044  -1.64243   0.71371
O    -1.83423  -2.87825   0.80106
O    -1.54741  -0.82863   1.67484
H    -0.05416   3.51492  -1.46715
H    -1.81174   3.29684  -1.55011
H    -0.73011   1.93433  -1.91459
H    -1.98657   2.14514   0.57410
H     3.06772   1.80925  -0.22453
H     2.03638   3.26102  -0.09577
H     1.70118   2.03010  -1.33768
H     2.39112   1.25906   2.48782
H     2.45680  -0.13124   1.38130
H     0.99532   0.13775   2.36502
H    -0.65506  -0.40920  -2.45706
H    -2.57147  -0.73334  -1.06004
26

C    -0.88905   2.82806  -1.23941
C    -1.01256   2.42697   0.19437
O    -0.08902   1.70112   0.82977
C     1.17620   1.44964   0.68746
C     2.02160   2.15581  -0.31502
C     1.77633   0.63774   1.78577
C    -0.50275  -0.85634  -1.46343
C     0.92209  -1.22132  -1.12685
O     1.81440  -0.76152  -1.89975
O     1.14066  -1.95289  -0.11777
C    -1.57684  -1.03275  -0.67552
C    -1.62739  -1.63853   0.71470
O    -1.83592  -2.87375   0.79145
O    -1.54266  -0.83255   1.68317
H    -0.05593   3.51708  -1.46510
H    -1.81402   3.30253  -1.54677
H    -0.73539   1.93889  -1.91575
H    -1.98834   2.14658   0.57571
H     3.06489   1.80366  -0.22959
H     2.03803   3.25825  -0.09746
H     1.69683   2.02939  -1.33984
H     2.38894   1.25909   2.48646
H     2.45543  -0.13173   1.38066
H     0.99368   0.13714   2.36397
H    -0.65109  -0.40291  -2.45383
H    -2.56819  -0.72543  -1.05755
26

C    -0.89898   2.83907  -1.23537
C    -1.01920   2.42796   0.19583
O    -0.09573   1.70120   0.82703
C     1.16936   1.44489   0.68146
C     2.01479   2.14685  -0.32427
C     1.77018   0.63579   1.78157
C    -0.49286  -0.84420  -1.45629
C     0.92912  -1.22581  -1.12425
O     1.82616  -0.77646  -1.89879
O     1.14321  -1.96272  -0.11674
C    -1.56850  -1.01796  -0.66982
C    -1.62434  -1.63463   0.71569
O    -1.83762  -2.86925   0.78185
O    -1.53792  -0.83647   1.69150
H    -0.05769   3.51925  -1.46306
H    -1.81631   3.30822  -1.54344
H    -0.74068   1.94346  -1.91692
H    -1.99011   2.14802   0.57732
H     3.06206   1.79806  -0.23465
H     2.03968   3.25549  -0.09915
H     1.69249   2.02867  -1.34201
H     2.38675   1.25912   2.48510
H     2.45406  -0.13222   1.38001
H     0.99204   0.13653   2.36291
H    -0.64712  -0.39662  -2.45060
H    -2.56491  -0.71753  -1.05507
26

C    -0.90890   2.85007  -1.23133
C    -1.02584   2.42895   0.19729
O    -0.10243   1.70127   0.82428
C     1.16253   1.44014   0.67545
C     2.00798   2.13789  -0.33351
C     1.76403   0.63383   1.77737
C    -0.48296  -0.83206  -1.44915
C     0.93616  -1.23031  -1.12165
O     1.83791  -0.79141  -1.89783
O     1.14576  -1.97256  -0.11572
C    -1.56017  -1.00316  -0.66413
C    -1.62129  -1.63073   0.71668
O    -1.83931  -2.86476   0.77224
O    -1.53317  -0.84039   1.69982
H    -0.05946   3.52141  -1.46102
H    -1.81860   3.31392  -1.54010
H    -0.74596   1.94802  -1.91809
H    -1.99188   2.14947   0.57892
H     3.05922   1.79247  -0.23971
H     2.04134   3.25272  -0.10083
H     1.68814   2.02795  -1.34418
H     2.38456   1.25915   2.48375
H     2.45270  -0.13272   1.37937
H     0.99040   0.13592   2.36186
H    -0.64315  -0.39033  -2.44737
H    -2.56163  -0.70963  -1.05258
26

C    -0.91883   2.86107  -1.22729
C    -1.03248   2.42995   0.19875
O    -0.10914   1.70135   0.82153
C     1.15569   1.43539   0.66945
C     2.00117   2.12893  -0.34275
C     1.75787   0.63188   1.77317
C    -0.47307  -0.81992  -1.44200
C     0.94319  -1.23481  -1.11904
O     1.84966  -0.80635  -1.89688
O     1.14831  -1.98240  -0.11469
C    -1.55184  -0.98837  -0.65844
C    -1.61824  -1.62684   0.71767
O    -1.84101  -2.86026   0.76264
O    -1.52842  -0.84432   1.70815
H    -0.06122   3.52357  -1.45898
H    -1.82089   3.31961  -1.53676
H    -0.75124   1.95259  -1.91925
H    -1.99365   2.15091   0.58053
H     3.05639   1.78688  -0.24477
H     2.04299   3.24996  -0.10252
H     1.68379   2.02723  -1.34634
H     2.38238   1.25918   2.48239
H     2.45133  -0.13321   1.37872
H     0.98876   0.13532   2.36081
H    -0.63918  -0.38404  -2.44414
H    -2.55835  -0.70172  -1.05010
26

C    -0.92876   2.87207  -1.22325
C    -1.03912   2.43094   0.20021
O    -0.11584   1.70142   0.81879
C     1.14885   1.43064   0.66344
C     1.99436   2.11997  -0.35199
C     1.75172   0.62992   1.76897
C    -0.46317  -0.80778  -1.43486
C     0.95022  -1.23931  -1.11644
O     1.86141  -0.82130  -1.89592
O     1.15085  -1.99224  -0.11366
C    -1.54351  -0.97357  -0.65274
C    -1.61520  -1.62294   0.71866
O    -1.84270  -2.85576   0.75304
O    -1.52368  -0.84824   1.71648
H    -0.06298   3.52574  -1.45693
H    -1.82318   3.32530  -1.53343
H    -0.75652   1.95715  -1.92042
H    -1.99542   2.15236   0.58213
H     3.05356   1.78128  -0.24983
H     2.04464   3.24719  -0.10421
H     1.67944   2.02651  -1.34851
H     2.38019   1.25921   2.48103
H     2.44996  -0.13370   1.37808
H     0.98713   0.13471   2.35975
H    -0.63521  -0.37775  -2.44091
H    -2.55507  -0.69382  -1.04761
26

C    -0.93869   2.88307  -1.21921
C    -1.04577   2.43193   0.20167
O    -0.12255   1.70150   0.81604
C     1.14202   1.42589   0.65744
C     1.98755   2.11101  -0.36124
C     1.74557   0.62797   1.76477
C    -0.45328  -0.79564  -1.42772
C     0.95725  -1.24381  -1.11384
O     1.87316  -0.83624  -1.89497
O     1.15340  -2.00208  -0.11263
C    -1.53518  -0.95878  -0.64705
C    -1.61215  -1.61904   0.71965
O    -1.84440  -2.85127   0.74343
O    -1.51893  -0.85216   1.72480
H    -0.06475   3.52790  -1.45489
H    -1.82547   3.33099  -1.53009
H    -0.76180   1.96172  -1.92158
H    -1.99719   2.15380   0.58374
H     3.05072   1.77569  -0.25489
H     2.04629   3.24442  -0.10590
H     1.67510   2.02580  -1.35068
H     2.37800   1.25924   2.47968
H     2.44859  -0.13419   1.37743
H     0.98549   0.13410   2.35870
H    -0.63124  -0.37146  -2.43768
H    -2.55179  -0.68591  -1.04512
26

C    -0.94862   2.89407  -1.21516
C    -1.05241   2.43292   0.20313
O    -0.12925   1.70157   0.81329
C     1.13518   1.42114   0.65143
C     1.98074   2.10205  -0.37048
C     1.73942   0.62601   1.76057
C    -0.44339  -0.78350  -1.42058
C     0.96429  -1.24831  -1.11124
O     1.88491  -0.85118  -1.89401
O     1.15595  -2.01192  -0.11160
C    -1.52685  -0.94398  -0.64136
C    -1.60910  -1.61514   0.72064
O    -1.84609  -2.84677   0.73383
O    -1.51419  -0.85608   1.73313
H    -0.06651   3.53006  -1.45285
H    -1.82776   3.33669  -1.52675
H    -0.76709   1.96629  -1.92275
H    -1.99895   2.15524   0.58535
H     3.04789   1.77010  -0.25995
H     2.04795   3.24166  -0.10759
H     1.67075   2.02508  -1.35284
H     2.37582   1.25927   2.47832
H     2.44723  -0.13469   1.37678
H     0.98385   0.13349   2.35765
H    -0.62727  -0.36517  -2.43445
H    -2.54851  -0.67801  -1.04264
26

C    -0.95855   2.90508  -1.21112
C    -1.05905   2.43391   0.20459
O    -0.13595   1.70165   0.81055
C     1.12834   1.41639   0.64543
C     1.97393   2.09309  -0.37972
C     1.73326   0.62406   1.75637
C    -0.43349  -0.77136  -1.41344
C     0.97132  -1.25281  -1.10864
O     1.89666  -0.86613  -1.89306
O     1.15850  -2.02175  -0.11058
C    -1.51852  -0.92919  -0.63567
C    -1.60605  -1.61124   0.72163
O    -1.84779  -2.84227   0.72422
O    -1.50944  -0.86000   1.74145
H    -0.06828   3.53223  -1.45081
H    -1.83004   3.34238  -1.52342
H    -0.77237   1.97085  -1.92391
H    -2.00072   2.15669   0.58695
H     3.04506   1.76450  -0.26501
H     2.04960   3.23889  -0.10928
H     1.66640   2.02436  -1.35501
H     2.37363   1.25930   2.47696
H     2.44586  -0.13518   1.37614
H     0.98221   0.13288   2.35660
H    -0.62330  -0.35888  -2.43122
H    -2.54523  -0.67011  -1.04015
