12

C -3.116466726 -0.360954244 -0.015506526
C -0.476300141 0.684922277 -0.001065749
C 1.596878234 -1.221118080 -0.110601267
C 4.203220007 -0.402064933 -0.188552451
N 3.602007798 -1.109057151 1.964657413
N 0.125156958 2.999809019 0.103768339
H -4.524966780 1.136954611 0.093247477
H -3.443019734 -1.455869252 -1.736041937
H -3.378984720 -1.647127677 1.578411018
H 1.081662415 -3.113036816 -0.718653000
H 5.791579242 0.393335211 -1.192295430
H -1.431725204 4.121840501 0.222473394

