17

C -4.796009858 -1.116819107 -1.299286564
C -2.631240558 0.763896482 -1.258829058
C -0.210984747 -0.270698732 -0.149729615
O -0.128642936 -2.324187483 0.854009207
C 2.112672177 1.383892229 -0.360359547
C 4.306788356 0.477856689 1.262843460
O 5.216822820 -1.901717684 0.499820447
H -6.490974364 -0.255711805 -2.094699898
H -4.316300897 -2.769953467 -2.432004163
H -5.230807644 -1.779469619 0.601343488
H -2.203768409 1.476768508 -3.154159978
H -3.124643854 2.442703679 -0.149830961
H 3.728129158 0.449516089 3.254685773
H 3.847126384 -3.072098564 0.756910637
H 1.599813035 3.332841822 0.107760404
H 2.679436984 1.396810378 -2.352516878
H 5.881593095 1.798480831 1.091738095

