12

O 0.440280487 0.863417491 -3.402338768
C 0.180747088 0.223047398 -0.969065352
C -2.474383955 -0.688351695 -0.481055429
C -3.048110891 -1.150239386 2.171389917
N -3.555575790 -1.501757943 4.246310638
C 2.086907159 0.486823364 0.778243056
C 4.366508501 0.947177221 1.589323525
H 2.193369699 1.235385702 -3.730440936
H 0.448804588 1.948222937 1.411695675
H -3.846985845 0.649518409 -1.250837104
H -2.708773395 -2.450000611 -1.537187152
H 5.768190423 -0.539804595 1.301590234

