20

C 5.557910940 -0.328971366 -0.294397750
C 2.755876840 -0.964435731 -0.133337715
C 1.125015869 1.039174285 -1.394255563
N -1.568640869 0.464337343 -1.275652761
C -3.716668877 2.432668818 -1.524645380
C -3.081340875 1.226781231 0.934223262
C -4.785032854 -0.741843303 2.079143049
H 5.967106944 1.473080499 0.625488897
H 6.181806553 -0.187702225 -2.257073501
H 6.701209041 -1.775856879 0.625046304
H 2.404982043 -2.796619525 -1.028721568
H 2.183572169 -1.154566367 1.843806214
H 1.637469287 1.258638460 -3.385015819
H 1.381304778 2.879213104 -0.496240398
H -2.026454650 -1.225847082 -2.035955097
H -2.716993854 4.244061901 -1.673637964
H -1.873807412 2.170112103 2.318539867
H -6.147142135 0.190627313 3.316138231
H -5.857144896 -1.694270637 0.596942108
H -3.746800560 -2.135101808 3.199509021

