29

C     2.16584  -2.22318  -1.38271
C     2.46174  -1.27669  -0.24816
O     2.92912  -1.68605   0.81692
C     2.22571   0.15039  -0.41830
C     2.57798   1.05693   0.60871
N     2.91214   1.79281   1.44976
N     1.44373   0.61279  -1.38349
C     0.64927   1.01448  -2.20337
C    -1.36370   0.57593  -0.32953
Cl   -1.49744   2.30593  -0.22908
C    -2.14322  -0.26037  -1.32470
C    -3.36112  -0.65921  -0.41776
C    -2.71382  -1.61577   0.62896
C    -1.20973  -1.63899   0.20570
C    -1.33967  -1.57491  -1.32772
C    -0.77797  -0.21615   0.51836
Cl   -0.20635   0.24729   2.11036
H     1.84583  -1.72437  -2.30611
H     1.39152  -2.94256  -1.07186
H     3.08522  -2.79296  -1.57674
H     0.05145   1.38870  -2.92220
H    -2.38648   0.17112  -2.30696
H    -3.76638   0.27390   0.04270
H    -4.11391  -1.12761  -0.99549
H    -2.80169  -1.23708   1.66945
H    -3.12480  -2.59782   0.56966
H    -0.59364  -2.44547   0.63994
H    -0.38701  -1.53296  -1.87293
H    -1.93107  -2.42805  -1.71465
29

C     2.16558  -2.22307  -1.38268
C     2.45870  -1.27683  -0.24736
O     2.92894  -1.68546   0.81695
C     2.21412   0.14897  -0.41500
C     2.57503   1.05536   0.60899
N     2.91140   1.79145   1.44890
N     1.44706   0.61675  -1.39087
C     0.62690   1.00708  -2.17758
C    -1.34391   0.57798  -0.34703
Cl   -1.49834   2.30484  -0.22760
C    -2.14054  -0.26079  -1.32615
C    -3.35659  -0.65464  -0.41675
C    -2.71080  -1.61196   0.62971
C    -1.20649  -1.63819   0.20538
C    -1.33932  -1.57650  -1.32811
C    -0.76675  -0.21818   0.51493
Cl   -0.20987   0.24807   2.10778
H     1.84590  -1.72418  -2.30606
H     1.39143  -2.94272  -1.07227
H     3.08529  -2.79276  -1.57648
H     0.04810   1.38690  -2.91638
H    -2.38612   0.17023  -2.30761
H    -3.76442   0.27551   0.04303
H    -4.11300  -1.12585  -0.99498
H    -2.80084  -1.23622   1.66973
H    -3.12363  -2.59682   0.56961
H    -0.59355  -2.44565   0.64021
H    -0.38718  -1.53436  -1.87359
H    -1.93157  -2.42845  -1.71384
29

C     2.16531  -2.22295  -1.38266
C     2.45566  -1.27697  -0.24655
O     2.92877  -1.68487   0.81697
C     2.20252   0.14755  -0.41170
C     2.57207   1.05379   0.60926
N     2.91067   1.79009   1.44805
N     1.45038   0.62072  -1.39824
C     0.60453   0.99969  -2.15179
C    -1.32412   0.58003  -0.36454
Cl   -1.49925   2.30375  -0.22612
C    -2.13786  -0.26120  -1.32760
C    -3.35205  -0.65006  -0.41574
C    -2.70778  -1.60814   0.63045
C    -1.20325  -1.63738   0.20507
C    -1.33897  -1.57809  -1.32850
C    -0.75554  -0.22020   0.51149
Cl   -0.21338   0.24884   2.10520
H     1.84596  -1.72398  -2.30602
H     1.39134  -2.94287  -1.07267
H     3.08536  -2.79256  -1.57622
H     0.04475   1.38509  -2.91057
H    -2.38577   0.16934  -2.30827
H    -3.76247   0.27711   0.04337
H    -4.11210  -1.12408  -0.99447
H    -2.79998  -1.23535   1.67000
H    -3.12246  -2.59581   0.56955
H    -0.59346  -2.44583   0.64048
H    -0.38736  -1.53577  -1.87425
H    -1.93207  -2.42885  -1.71304
29

C     2.16505  -2.22283  -1.38263
C     2.45262  -1.27711  -0.24575
O     2.92859  -1.68428   0.81699
C     2.19092   0.14613  -0.40841
C     2.56911   1.05221   0.60954
N     2.90993   1.78873   1.44720
N     1.45370   0.62469  -1.40562
C     0.58215   0.99230  -2.12600
C    -1.30433   0.58208  -0.38205
Cl   -1.50015   2.30266  -0.22464
C    -2.13518  -0.26162  -1.32904
C    -3.34752  -0.64549  -0.41474
C    -2.70476  -1.60432   0.63119
C    -1.20001  -1.63658   0.20476
C    -1.33861  -1.57968  -1.32888
C    -0.74432  -0.22223   0.50806
Cl   -0.21689   0.24962   2.10262
H     1.84603  -1.72379  -2.30597
H     1.39125  -2.94303  -1.07307
H     3.08543  -2.79236  -1.57595
H     0.04140   1.38329  -2.90475
H    -2.38541   0.16846  -2.30892
H    -3.76051   0.27872   0.04371
H    -4.11120  -1.12232  -0.99395
H    -2.79912  -1.23449   1.67027
H    -3.12129  -2.59481   0.56949
H    -0.59337  -2.44601   0.64075
H    -0.38753  -1.53717  -1.87492
H    -1.93258  -2.42925  -1.71223
29

C     2.16479  -2.22271  -1.38261
C     2.44958  -1.27725  -0.24494
O     2.92841  -1.68369   0.81702
C     2.17933   0.14471  -0.40511
C     2.56615   1.05064   0.60981
N     2.90920   1.78737   1.44635
N     1.45702   0.62866  -1.41300
C     0.55978   0.98490  -2.10021
C    -1.28453   0.58413  -0.39955
Cl   -1.50105   2.30158  -0.22316
C    -2.13250  -0.26204  -1.33049
C    -3.34299  -0.64092  -0.41373
C    -2.70174  -1.60050   0.63194
C    -1.19677  -1.63578   0.20444
C    -1.33826  -1.58127  -1.32927
C    -0.73310  -0.22425   0.50462
Cl   -0.22040   0.25040   2.10004
H     1.84610  -1.72360  -2.30592
H     1.39116  -2.94319  -1.07348
H     3.08551  -2.79216  -1.57569
H     0.03804   1.38149  -2.89893
H    -2.38506   0.16757  -2.30957
H    -3.75856   0.28032   0.04404
H    -4.11029  -1.12056  -0.99344
H    -2.79827  -1.23363   1.67054
H    -3.12013  -2.59381   0.56944
H    -0.59328  -2.44619   0.64101
H    -0.38771  -1.53858  -1.87558
H    -1.93308  -2.42965  -1.71143
29

C     2.16453  -2.22259  -1.38258
C     2.44654  -1.27739  -0.24414
O     2.92824  -1.68309   0.81704
C     2.16773   0.14329  -0.40181
C     2.56319   1.04907   0.61009
N     2.90846   1.78601   1.44549
N     1.46034   0.63263  -1.42038
C     0.53740   0.97751  -2.07442
C    -1.26474   0.58618  -0.41706
Cl   -1.50195   2.30049  -0.22168
C    -2.12982  -0.26246  -1.33194
C    -3.33845  -0.63634  -0.41272
C    -2.69872  -1.59669   0.63268
C    -1.19352  -1.63498   0.20413
C    -1.33791  -1.58286  -1.32966
C    -0.72189  -0.22628   0.50119
Cl   -0.22392   0.25118   2.09746
H     1.84617  -1.72340  -2.30588
H     1.39106  -2.94335  -1.07388
H     3.08558  -2.79196  -1.57542
H     0.03469   1.37969  -2.89312
H    -2.38470   0.16668  -2.31023
H    -3.75661   0.28193   0.04438
H    -4.10939  -1.11880  -0.99293
H    -2.79741  -1.23277   1.67081
H    -3.11896  -2.59281   0.56938
H    -0.59319  -2.44637   0.64128
H    -0.38788  -1.53998  -1.87624
H    -1.93358  -2.43004  -1.71062
29

C     2.16427  -2.22248  -1.38256
C     2.44351  -1.27754  -0.24333
O     2.92806  -1.68250   0.81707
C     2.15614   0.14187  -0.39852
C     2.56024   1.04749   0.61036
N     2.90773   1.78465   1.44464
N     1.46366   0.63659  -1.42775
C     0.51503   0.97012  -2.04863
C    -1.24495   0.58823  -0.43456
Cl   -1.50286   2.29940  -0.22020
C    -2.12715  -0.26287  -1.33339
C    -3.33392  -0.63177  -0.41171
C    -2.69570  -1.59287   0.63342
C    -1.19028  -1.63417   0.20382
C    -1.33755  -1.58445  -1.33004
C    -0.71067  -0.22831   0.49775
Cl   -0.22743   0.25196   2.09489
H     1.84624  -1.72321  -2.30583
H     1.39097  -2.94351  -1.07428
H     3.08565  -2.79176  -1.57516
H     0.03134   1.37788  -2.88730
H    -2.38435   0.16579  -2.31088
H    -3.75465   0.28354   0.04471
H    -4.10849  -1.11704  -0.99242
H    -2.79656  -1.23191   1.67108
H    -3.11779  -2.59181   0.56933
H    -0.59311  -2.44655   0.64155
H    -0.38805  -1.54138  -1.87690
H    -1.93409  -2.43044  -1.70982
29

C     2.16400  -2.22236  -1.38253
C     2.44047  -1.27768  -0.24253
O     2.92788  -1.68191   0.81709
C     2.14454   0.14045  -0.39522
C     2.55728   1.04592   0.61063
N     2.90699   1.78329   1.44379
N     1.46698   0.64056  -1.43513
C     0.49265   0.96272  -2.02284
C    -1.22516   0.59029  -0.45207
Cl   -1.50376   2.29831  -0.21872
C    -2.12447  -0.26329  -1.33483
C    -3.32938  -0.62719  -0.41070
C    -2.69268  -1.58905   0.63417
C    -1.18704  -1.63337   0.20350
C    -1.33720  -1.58604  -1.33043
C    -0.69945  -0.23033   0.49432
Cl   -0.23094   0.25274   2.09231
H     1.84631  -1.72302  -2.30578
H     1.39088  -2.94366  -1.07469
H     3.08572  -2.79156  -1.57490
H     0.02799   1.37608  -2.88148
H    -2.38400   0.16491  -2.31153
H    -3.75270   0.28514   0.04505
H    -4.10758  -1.11528  -0.99190
H    -2.79570  -1.23104   1.67136
H    -3.11662  -2.59081   0.56927
H    -0.59302  -2.44673   0.64182
H    -0.38823  -1.54279  -1.87757
H    -1.93459  -2.43084  -1.70901
29

C     2.16374  -2.22224  -1.38250
C     2.43743  -1.27782  -0.24172
O     2.92770  -1.68132   0.81711
C     2.13295   0.13903  -0.39192
C     2.55432   1.04435   0.61091
N     2.90626   1.78193   1.44293
N     1.47031   0.64453  -1.44251
C     0.47028   0.95533  -1.99705
C    -1.20537   0.59234  -0.46957
Cl   -1.50466   2.29723  -0.21723
C    -2.12179  -0.26371  -1.33628
C    -3.32485  -0.62262  -0.40970
C    -2.68966  -1.58524   0.63491
C    -1.18380  -1.63257   0.20319
C    -1.33684  -1.58763  -1.33082
C    -0.68823  -0.23236   0.49088
Cl   -0.23445   0.25352   2.08973
H     1.84638  -1.72283  -2.30573
H     1.39079  -2.94382  -1.07509
H     3.08579  -2.79136  -1.57463
H     0.02463   1.37428  -2.87567
H    -2.38364   0.16402  -2.31219
H    -3.75074   0.28675   0.04539
H    -4.10668  -1.11352  -0.99139
H    -2.79484  -1.23018   1.67163
H    -3.11545  -2.58981   0.56922
H    -0.59293  -2.44691   0.64209
H    -0.38840  -1.54419  -1.87823
H    -1.93510  -2.43124  -1.70821
29

C     2.16348  -2.22212  -1.38248
C     2.43439  -1.27796  -0.24092
O     2.92753  -1.68073   0.81714
C     2.12135   0.13761  -0.38863
C     2.55136   1.04277   0.61118
N     2.90552   1.78057   1.44208
N     1.47363   0.64850  -1.44989
C     0.44791   0.94794  -1.97126
C    -1.18558   0.59439  -0.48708
Cl   -1.50556   2.29614  -0.21575
C    -2.11911  -0.26412  -1.33773
C    -3.32032  -0.61804  -0.40869
C    -2.68664  -1.58142   0.63565
C    -1.18056  -1.63177   0.20288
C    -1.33649  -1.58922  -1.33121
C    -0.67702  -0.23439   0.48744
Cl   -0.23797   0.25429   2.08715
H     1.84645  -1.72263  -2.30569
H     1.39070  -2.94398  -1.07549
H     3.08587  -2.79116  -1.57437
H     0.02128   1.37248  -2.86985
H    -2.38329   0.16313  -2.31284
H    -3.74879   0.28835   0.04572
H    -4.10578  -1.11175  -0.99088
H    -2.79399  -1.22932   1.67190
H    -3.11428  -2.58881   0.56916
H    -0.59284  -2.44709   0.64235
H    -0.38858  -1.54560  -1.87889
H    -1.93560  -2.43164  -1.70740
29

C     2.16322  -2.22200  -1.38245
C     2.43135  -1.27810  -0.24011
O     2.92735  -1.68014   0.81716
C     2.10976   0.13619  -0.38533
C     2.54840   1.04120   0.61146
N     2.90479   1.77921   1.44123
N     1.47695   0.65247  -1.45727
C     0.42553   0.94054  -1.94548
C    -1.16579   0.59644  -0.50459
Cl   -1.50647   2.29505  -0.21427
C    -2.11643  -0.26454  -1.33918
C    -3.31578  -0.61347  -0.40768
C    -2.68362  -1.57760   0.63640
C    -1.17732  -1.63097   0.20256
C    -1.33614  -1.59081  -1.33159
C    -0.66580  -0.23641   0.48401
Cl   -0.24148   0.25507   2.08457
H     1.84652  -1.72244  -2.30564
H     1.39061  -2.94414  -1.07590
H     3.08594  -2.79096  -1.57410
H     0.01793   1.37067  -2.86403
H    -2.38293   0.16225  -2.31350
H    -3.74684   0.28996   0.04606
H    -4.10488  -1.10999  -0.99037
H    -2.79313  -1.22846   1.67217
H    -3.11311  -2.58780   0.56910
H    -0.59275  -2.44727   0.64262
H    -0.38875  -1.54700  -1.87956
H    -1.93610  -2.43203  -1.70660
29

C     2.16295  -2.22189  -1.38243
C     2.42831  -1.27824  -0.23931
O     2.92717  -1.67954   0.81718
C     2.09816   0.13477  -0.38203
C     2.54544   1.03963   0.61173
N     2.90406   1.77785   1.44037
N     1.48027   0.65643  -1.46464
C     0.40316   0.93315  -1.91969
C    -1.14600   0.59849  -0.52209
Cl   -1.50737   2.29396  -0.21279
C    -2.11375  -0.26496  -1.34062
C    -3.31125  -0.60890  -0.40667
C    -2.68060  -1.57379   0.63714
C    -1.17408  -1.63016   0.20225
C    -1.33578  -1.59240  -1.33198
C    -0.65458  -0.23844   0.48057
Cl   -0.24499   0.25585   2.08199
H     1.84659  -1.72225  -2.30559
H     1.39052  -2.94430  -1.07630
H     3.08601  -2.79076  -1.57384
H     0.01458   1.36887  -2.85822
H    -2.38258   0.16136  -2.31415
H    -3.74488   0.29156   0.04640
H    -4.10397  -1.10823  -0.98985
H    -2.79228  -1.22759   1.67244
H    -3.11194  -2.58680   0.56905
H    -0.59266  -2.44745   0.64289
H    -0.38893  -1.54840  -1.88022
H    -1.93661  -2.43243  -1.70579
29

C     2.16269  -2.22177  -1.38240
C     2.42527  -1.27838  -0.23850
O     2.92700  -1.67895   0.81721
C     2.08657   0.13335  -0.37873
C     2.54249   1.03805   0.61200
N     2.90332   1.77649   1.43952
N     1.48359   0.66040  -1.47202
C     0.38078   0.92576  -1.89390
C    -1.12621   0.60054  -0.53960
Cl   -1.50827   2.29288  -0.21131
C    -2.11108  -0.26538  -1.34207
C    -3.30671  -0.60432  -0.40567
C    -2.67758  -1.56997   0.63788
C    -1.17084  -1.62936   0.20193
C    -1.33543  -1.59398  -1.33237
C    -0.64336  -0.24046   0.47714
Cl   -0.24850   0.25663   2.07941
H     1.84666  -1.72205  -2.30555
H     1.39043  -2.94446  -1.07671
H     3.08608  -2.79056  -1.57358
H     0.01123   1.36707  -2.85240
H    -2.38222   0.16047  -2.31480
H    -3.74293   0.29317   0.04673
H    -4.10307  -1.10647  -0.98934
H    -2.79142  -1.22673   1.67272
H    -3.11078  -2.58580   0.56899
H    -0.59257  -2.44763   0.64316
H    -0.38910  -1.54981  -1.88088
H    -1.93711  -2.43283  -1.70499
29

C     2.16243  -2.22165  -1.38238
C     2.42223  -1.27853  -0.23770
O     2.92682  -1.67836   0.81723
C     2.07497   0.13193  -0.37544
C     2.53953   1.03648   0.61228
N     2.90259   1.77513   1.43867
N     1.48691   0.66437  -1.47940
C     0.35841   0.91836  -1.86811
C    -1.10642   0.60259  -0.55710
Cl   -1.50917   2.29179  -0.20983
C    -2.10840  -0.26579  -1.34352
C    -3.30218  -0.59975  -0.40466
C    -2.67455  -1.56615   0.63863
C    -1.16760  -1.62856   0.20162
C    -1.33508  -1.59557  -1.33275
C    -0.63215  -0.24249   0.47370
Cl   -0.25202   0.25741   2.07683
H     1.84673  -1.72186  -2.30550
H     1.39034  -2.94461  -1.07711
H     3.08615  -2.79036  -1.57331
H     0.00787   1.36527  -2.84658
H    -2.38187   0.15958  -2.31546
H    -3.74097   0.29477   0.04707
H    -4.10217  -1.10471  -0.98883
H    -2.79057  -1.22587   1.67299
H    -3.10961  -2.58480   0.56894
H    -0.59248  -2.44781   0.64342
H    -0.38928  -1.55121  -1.88154
H    -1.93761  -2.43323  -1.70419
29

C     2.16217  -2.22153  -1.38235
C     2.41919  -1.27867  -0.23689
O     2.92664  -1.67777   0.81726
C     2.06338   0.13051  -0.37214
C     2.53657   1.03491   0.61255
N     2.90185   1.77377   1.43782
N     1.49023   0.66834  -1.48678
C     0.33603   0.91097  -1.84232
C    -1.08663   0.60464  -0.57461
Cl   -1.51008   2.29070  -0.20835
C    -2.10572  -0.26621  -1.34497
C    -3.29765  -0.59517  -0.40365
C    -2.67153  -1.56234   0.63937
C    -1.16436  -1.62776   0.20131
C    -1.33472  -1.59716  -1.33314
C    -0.62093  -0.24452   0.47027
Cl   -0.25553   0.25819   2.07425
H     1.84680  -1.72167  -2.30545
H     1.39025  -2.94477  -1.07751
H     3.08623  -2.79016  -1.57305
H     0.00452   1.36346  -2.84077
H    -2.38151   0.15870  -2.31611
H    -3.73902   0.29638   0.04740
H    -4.10126  -1.10295  -0.98832
H    -2.78971  -1.22501   1.67326
H    -3.10844  -2.58380   0.56888
H    -0.59239  -2.44799   0.64369
H    -0.38945  -1.55262  -1.88221
H    -1.93812  -2.43363  -1.70338
29

C     2.16191  -2.22141  -1.38233
C     2.41615  -1.27881  -0.23609
O     2.92647  -1.67718   0.81728
C     2.05178   0.12909  -0.36884
C     2.53361   1.03333   0.61283
N     2.90112   1.77241   1.43696
N     1.49356   0.67231  -1.49416
C     0.31366   0.90358  -1.81653
C    -1.06684   0.60669  -0.59211
Cl   -1.51098   2.28961  -0.20687
C    -2.10304  -0.26663  -1.34641
C    -3.29311  -0.59060  -0.40264
C    -2.66851  -1.55852   0.64011
C    -1.16111  -1.62695   0.20099
C    -1.33437  -1.59875  -1.33353
C    -0.60971  -0.24654   0.46683
Cl   -0.25904   0.25897   2.07167
H     1.84687  -1.72148  -2.30541
H     1.39016  -2.94493  -1.07792
H     3.08630  -2.78996  -1.57278
H     0.00117   1.36166  -2.83495
H    -2.38116   0.15781  -2.31677
H    -3.73706   0.29798   0.04774
H    -4.10036  -1.10118  -0.98780
H    -2.78885  -1.22414   1.67353
H    -3.10727  -2.58280   0.56883
H    -0.59230  -2.44817   0.64396
H    -0.38962  -1.55402  -1.88287
H    -1.93862  -2.43403  -1.70258
29

C     2.16164  -2.22130  -1.38230
C     2.41311  -1.27895  -0.23528
O     2.92629  -1.67659   0.81730
C     2.04019   0.12767  -0.36555
C     2.53065   1.03176   0.61310
N     2.90038   1.77105   1.43611
N     1.49688   0.67627  -1.50153
C     0.29128   0.89618  -1.79074
C    -1.04705   0.60875  -0.60962
Cl   -1.51188   2.28852  -0.20539
C    -2.10036  -0.26704  -1.34786
C    -3.28858  -0.58602  -0.40164
C    -2.66549  -1.55470   0.64086
C    -1.15787  -1.62615   0.20068
C    -1.33402  -1.60034  -1.33392
C    -0.59849  -0.24857   0.46339
Cl   -0.26255   0.25974   2.06909
H     1.84694  -1.72128  -2.30536
H     1.39007  -2.94509  -1.07832
H     3.08637  -2.78976  -1.57252
H    -0.00218   1.35986  -2.82913
H    -2.38080   0.15692  -2.31742
H    -3.73511   0.29959   0.04808
H    -4.09946  -1.09942  -0.98729
H    -2.78800  -1.22328   1.67380
H    -3.10610  -2.58180   0.56877
H    -0.59221  -2.44835   0.64423
H    -0.38980  -1.55542  -1.88353
H    -1.93912  -2.43442  -1.70177
29

C     2.16138  -2.22118  -1.38227
C     2.41008  -1.27909  -0.23448
O     2.92611  -1.67599   0.81733
C     2.02859   0.12625  -0.36225
C     2.52770   1.03019   0.61338
N     2.89965   1.76969   1.43526
N     1.50020   0.68024  -1.50891
C     0.26891   0.88879  -1.76495
C    -1.02726   0.61080  -0.62713
Cl   -1.51278   2.28744  -0.20390
C    -2.09768  -0.26746  -1.34931
C    -3.28404  -0.58145  -0.40063
C    -2.66247  -1.55088   0.64160
C    -1.15463  -1.62535   0.20037
C    -1.33366  -1.60193  -1.33430
C    -0.58728  -0.25059   0.45996
Cl   -0.26606   0.26052   2.06651
H     1.84701  -1.72109  -2.30531
H     1.38998  -2.94525  -1.07872
H     3.08644  -2.78956  -1.57225
H    -0.00554   1.35806  -2.82332
H    -2.38045   0.15604  -2.31807
H    -3.73316   0.30119   0.04841
H    -4.09855  -1.09766  -0.98678
H    -2.78714  -1.22242   1.67407
H    -3.10493  -2.58080   0.56871
H    -0.59212  -2.44853   0.64449
H    -0.38997  -1.55683  -1.88419
H    -1.93963  -2.43482  -1.70097
29

C     2.16112  -2.22106  -1.38225
C     2.40704  -1.27923  -0.23367
O     2.92594  -1.67540   0.81735
C     2.01700   0.12483  -0.35895
C     2.52474   1.02861   0.61365
N     2.89891   1.76833   1.43440
N     1.50352   0.68421  -1.51629
C     0.24654   0.88140  -1.73916
C    -1.00747   0.61285  -0.64463
Cl   -1.51369   2.28635  -0.20242
C    -2.09500  -0.26788  -1.35076
C    -3.27951  -0.57688  -0.39962
C    -2.65945  -1.54707   0.64234
C    -1.15139  -1.62455   0.20005
C    -1.33331  -1.60352  -1.33469
C    -0.57606  -0.25262   0.45652
Cl   -0.26958   0.26130   2.06393
H     1.84708  -1.72090  -2.30527
H     1.38988  -2.94540  -1.07913
H     3.08651  -2.78936  -1.57199
H    -0.00889   1.35626  -2.81750
H    -2.38009   0.15515  -2.31873
H    -3.73120   0.30280   0.04875
H    -4.09765  -1.09590  -0.98627
H    -2.78629  -1.22156   1.67435
H    -3.10376  -2.57979   0.56866
H    -0.59203  -2.44871   0.64476
H    -0.39015  -1.55823  -1.88486
H    -1.94013  -2.43522  -1.70016
29

C     2.16086  -2.22094  -1.38222
C     2.40400  -1.27937  -0.23287
O     2.92576  -1.67481   0.81738
C     2.00540   0.12341  -0.35566
C     2.52178   1.02704   0.61392
N     2.89818   1.76697   1.43355
N     1.50684   0.68818  -1.52367
C     0.22416   0.87400  -1.71337
C    -0.98768   0.61490  -0.66214
Cl   -1.51459   2.28526  -0.20094
C    -2.09233  -0.26830  -1.35220
C    -3.27498  -0.57230  -0.39861
C    -2.65643  -1.54325   0.64309
C    -1.14815  -1.62374   0.19974
C    -1.33295  -1.60511  -1.33508
C    -0.56484  -0.25465   0.45309
Cl   -0.27309   0.26208   2.06135
H     1.84715  -1.72070  -2.30522
H     1.38979  -2.94556  -1.07953
H     3.08658  -2.78916  -1.57173
H    -0.01224   1.35445  -2.81168
H    -2.37974   0.15426  -2.31938
H    -3.72925   0.30440   0.04909
H    -4.09675  -1.09414  -0.98575
H    -2.78543  -1.22070   1.67462
H    -3.10260  -2.57879   0.56860
H    -0.59194  -2.44889   0.64503
H    -0.39032  -1.55964  -1.88552
H    -1.94063  -2.43562  -1.69936
29

C     2.16059  -2.22082  -1.38220
C     2.40096  -1.27951  -0.23206
O     2.92558  -1.67422   0.81740
C     1.99380   0.12199  -0.35236
C     2.51882   1.02547   0.61420
N     2.89744   1.76561   1.43270
N     1.51016   0.69215  -1.53105
C     0.20179   0.86661  -1.68758
C    -0.96789   0.61695  -0.67964
Cl   -1.51549   2.28417  -0.19946
C    -2.08965  -0.26871  -1.35365
C    -3.27044  -0.56773  -0.39761
C    -2.65341  -1.53943   0.64383
C    -1.14491  -1.62294   0.19943
C    -1.33260  -1.60670  -1.33546
C    -0.55362  -0.25667   0.44965
Cl   -0.27660   0.26286   2.05877
H     1.84722  -1.72051  -2.30517
H     1.38970  -2.94572  -1.07993
H     3.08666  -2.78896  -1.57146
H    -0.01559   1.35265  -2.80587
H    -2.37938   0.15337  -2.32004
H    -3.72729   0.30601   0.04942
H    -4.09585  -1.09238  -0.98524
H    -2.78457  -1.21983   1.67489
H    -3.10143  -2.57779   0.56855
H    -0.59185  -2.44907   0.64530
H    -0.39050  -1.56104  -1.88618
H    -1.94114  -2.43602  -1.69855
29

C     2.16086  -2.22094  -1.38222
C     2.40400  -1.27937  -0.23287
O     2.92576  -1.67481   0.81738
C     2.00540   0.12341  -0.35566
C     2.52178   1.02704   0.61392
N     2.89818   1.76697   1.43355
N     1.50684   0.68818  -1.52367
C     0.22416   0.87400  -1.71337
C    -0.98768   0.61490  -0.66214
Cl   -1.51459   2.28526  -0.20094
C    -2.09233  -0.26830  -1.35220
C    -3.27498  -0.57230  -0.39861
C    -2.65643  -1.54325   0.64309
C    -1.14815  -1.62374   0.19974
C    -1.33295  -1.60511  -1.33508
C    -0.56484  -0.25465   0.45309
Cl   -0.27309   0.26208   2.06135
H     1.84715  -1.72070  -2.30522
H     1.38979  -2.94556  -1.07953
H     3.08658  -2.78916  -1.57173
H    -0.01224   1.35445  -2.81168
H    -2.37974   0.15426  -2.31938
H    -3.72925   0.30440   0.04909
H    -4.09675  -1.09414  -0.98575
H    -2.78543  -1.22070   1.67462
H    -3.10260  -2.57879   0.56860
H    -0.59194  -2.44889   0.64503
H    -0.39032  -1.55964  -1.88552
H    -1.94063  -2.43562  -1.69936
29

C     2.16112  -2.22106  -1.38225
C     2.40704  -1.27923  -0.23367
O     2.92594  -1.67540   0.81735
C     2.01700   0.12483  -0.35895
C     2.52474   1.02861   0.61365
N     2.89891   1.76833   1.43440
N     1.50352   0.68421  -1.51629
C     0.24654   0.88140  -1.73916
C    -1.00747   0.61285  -0.64463
Cl   -1.51369   2.28635  -0.20242
C    -2.09500  -0.26788  -1.35076
C    -3.27951  -0.57688  -0.39962
C    -2.65945  -1.54707   0.64234
C    -1.15139  -1.62455   0.20005
C    -1.33331  -1.60352  -1.33469
C    -0.57606  -0.25262   0.45652
Cl   -0.26958   0.26130   2.06393
H     1.84708  -1.72090  -2.30527
H     1.38988  -2.94540  -1.07913
H     3.08651  -2.78936  -1.57199
H    -0.00889   1.35626  -2.81750
H    -2.38009   0.15515  -2.31873
H    -3.73120   0.30280   0.04875
H    -4.09765  -1.09590  -0.98627
H    -2.78629  -1.22156   1.67435
H    -3.10376  -2.57979   0.56866
H    -0.59203  -2.44871   0.64476
H    -0.39015  -1.55823  -1.88486
H    -1.94013  -2.43522  -1.70016
29

C     2.16138  -2.22118  -1.38227
C     2.41008  -1.27909  -0.23448
O     2.92611  -1.67599   0.81733
C     2.02859   0.12625  -0.36225
C     2.52770   1.03019   0.61338
N     2.89965   1.76969   1.43526
N     1.50020   0.68024  -1.50891
C     0.26891   0.88879  -1.76495
C    -1.02726   0.61080  -0.62713
Cl   -1.51278   2.28744  -0.20390
C    -2.09768  -0.26746  -1.34931
C    -3.28404  -0.58145  -0.40063
C    -2.66247  -1.55088   0.64160
C    -1.15463  -1.62535   0.20037
C    -1.33366  -1.60193  -1.33430
C    -0.58728  -0.25059   0.45996
Cl   -0.26606   0.26052   2.06651
H     1.84701  -1.72109  -2.30531
H     1.38998  -2.94525  -1.07872
H     3.08644  -2.78956  -1.57225
H    -0.00554   1.35806  -2.82332
H    -2.38045   0.15604  -2.31807
H    -3.73316   0.30119   0.04841
H    -4.09855  -1.09766  -0.98678
H    -2.78714  -1.22242   1.67407
H    -3.10493  -2.58080   0.56871
H    -0.59212  -2.44853   0.64449
H    -0.38997  -1.55683  -1.88419
H    -1.93963  -2.43482  -1.70097
29

C     2.16164  -2.22130  -1.38230
C     2.41311  -1.27895  -0.23528
O     2.92629  -1.67659   0.81730
C     2.04019   0.12767  -0.36555
C     2.53065   1.03176   0.61310
N     2.90038   1.77105   1.43611
N     1.49688   0.67627  -1.50153
C     0.29128   0.89618  -1.79074
C    -1.04705   0.60875  -0.60962
Cl   -1.51188   2.28852  -0.20539
C    -2.10036  -0.26704  -1.34786
C    -3.28858  -0.58602  -0.40164
C    -2.66549  -1.55470   0.64086
C    -1.15787  -1.62615   0.20068
C    -1.33402  -1.60034  -1.33392
C    -0.59849  -0.24857   0.46339
Cl   -0.26255   0.25974   2.06909
H     1.84694  -1.72128  -2.30536
H     1.39007  -2.94509  -1.07832
H     3.08637  -2.78976  -1.57252
H    -0.00218   1.35986  -2.82913
H    -2.38080   0.15692  -2.31742
H    -3.73511   0.29959   0.04808
H    -4.09946  -1.09942  -0.98729
H    -2.78800  -1.22328   1.67380
H    -3.10610  -2.58180   0.56877
H    -0.59221  -2.44835   0.64423
H    -0.38980  -1.55542  -1.88353
H    -1.93912  -2.43442  -1.70177
29

C     2.16191  -2.22141  -1.38233
C     2.41615  -1.27881  -0.23609
O     2.92647  -1.67718   0.81728
C     2.05178   0.12909  -0.36884
C     2.53361   1.03333   0.61283
N     2.90112   1.77241   1.43696
N     1.49356   0.67231  -1.49416
C     0.31366   0.90358  -1.81653
C    -1.06684   0.60669  -0.59211
Cl   -1.51098   2.28961  -0.20687
C    -2.10304  -0.26663  -1.34641
C    -3.29311  -0.59060  -0.40264
C    -2.66851  -1.55852   0.64011
C    -1.16111  -1.62695   0.20099
C    -1.33437  -1.59875  -1.33353
C    -0.60971  -0.24654   0.46683
Cl   -0.25904   0.25897   2.07167
H     1.84687  -1.72148  -2.30541
H     1.39016  -2.94493  -1.07792
H     3.08630  -2.78996  -1.57278
H     0.00117   1.36166  -2.83495
H    -2.38116   0.15781  -2.31677
H    -3.73706   0.29798   0.04774
H    -4.10036  -1.10118  -0.98780
H    -2.78885  -1.22414   1.67353
H    -3.10727  -2.58280   0.56883
H    -0.59230  -2.44817   0.64396
H    -0.38962  -1.55402  -1.88287
H    -1.93862  -2.43403  -1.70258
29

C     2.16217  -2.22153  -1.38235
C     2.41919  -1.27867  -0.23689
O     2.92664  -1.67777   0.81726
C     2.06338   0.13051  -0.37214
C     2.53657   1.03491   0.61255
N     2.90185   1.77377   1.43782
N     1.49023   0.66834  -1.48678
C     0.33603   0.91097  -1.84232
C    -1.08663   0.60464  -0.57461
Cl   -1.51008   2.29070  -0.20835
C    -2.10572  -0.26621  -1.34497
C    -3.29765  -0.59517  -0.40365
C    -2.67153  -1.56234   0.63937
C    -1.16436  -1.62776   0.20131
C    -1.33472  -1.59716  -1.33314
C    -0.62093  -0.24452   0.47027
Cl   -0.25553   0.25819   2.07425
H     1.84680  -1.72167  -2.30545
H     1.39025  -2.94477  -1.07751
H     3.08623  -2.79016  -1.57305
H     0.00452   1.36346  -2.84077
H    -2.38151   0.15870  -2.31611
H    -3.73902   0.29638   0.04740
H    -4.10126  -1.10295  -0.98832
H    -2.78971  -1.22501   1.67326
H    -3.10844  -2.58380   0.56888
H    -0.59239  -2.44799   0.64369
H    -0.38945  -1.55262  -1.88221
H    -1.93812  -2.43363  -1.70338
29

C     2.16243  -2.22165  -1.38238
C     2.42223  -1.27853  -0.23770
O     2.92682  -1.67836   0.81723
C     2.07497   0.13193  -0.37544
C     2.53953   1.03648   0.61228
N     2.90259   1.77513   1.43867
N     1.48691   0.66437  -1.47940
C     0.35841   0.91836  -1.86811
C    -1.10642   0.60259  -0.55710
Cl   -1.50917   2.29179  -0.20983
C    -2.10840  -0.26579  -1.34352
C    -3.30218  -0.59975  -0.40466
C    -2.67455  -1.56615   0.63863
C    -1.16760  -1.62856   0.20162
C    -1.33508  -1.59557  -1.33275
C    -0.63215  -0.24249   0.47370
Cl   -0.25202   0.25741   2.07683
H     1.84673  -1.72186  -2.30550
H     1.39034  -2.94461  -1.07711
H     3.08615  -2.79036  -1.57331
H     0.00787   1.36527  -2.84658
H    -2.38187   0.15958  -2.31546
H    -3.74097   0.29477   0.04707
H    -4.10217  -1.10471  -0.98883
H    -2.79057  -1.22587   1.67299
H    -3.10961  -2.58480   0.56894
H    -0.59248  -2.44781   0.64342
H    -0.38928  -1.55121  -1.88154
H    -1.93761  -2.43323  -1.70419
29

C     2.16269  -2.22177  -1.38240
C     2.42527  -1.27838  -0.23850
O     2.92700  -1.67895   0.81721
C     2.08657   0.13335  -0.37873
C     2.54249   1.03805   0.61200
N     2.90332   1.77649   1.43952
N     1.48359   0.66040  -1.47202
C     0.38078   0.92576  -1.89390
C    -1.12621   0.60054  -0.53960
Cl   -1.50827   2.29288  -0.21131
C    -2.11108  -0.26538  -1.34207
C    -3.30671  -0.60432  -0.40567
C    -2.67758  -1.56997   0.63788
C    -1.17084  -1.62936   0.20193
C    -1.33543  -1.59398  -1.33237
C    -0.64336  -0.24046   0.47714
Cl   -0.24850   0.25663   2.07941
H     1.84666  -1.72205  -2.30555
H     1.39043  -2.94446  -1.07671
H     3.08608  -2.79056  -1.57358
H     0.01123   1.36707  -2.85240
H    -2.38222   0.16047  -2.31480
H    -3.74293   0.29317   0.04673
H    -4.10307  -1.10647  -0.98934
H    -2.79142  -1.22673   1.67272
H    -3.11078  -2.58580   0.56899
H    -0.59257  -2.44763   0.64316
H    -0.38910  -1.54981  -1.88088
H    -1.93711  -2.43283  -1.70499
29

C     2.16295  -2.22189  -1.38243
C     2.42831  -1.27824  -0.23931
O     2.92717  -1.67954   0.81718
C     2.09816   0.13477  -0.38203
C     2.54544   1.03963   0.61173
N     2.90406   1.77785   1.44037
N     1.48027   0.65643  -1.46464
C     0.40316   0.93315  -1.91969
C    -1.14600   0.59849  -0.52209
Cl   -1.50737   2.29396  -0.21279
C    -2.11375  -0.26496  -1.34062
C    -3.31125  -0.60890  -0.40667
C    -2.68060  -1.57379   0.63714
C    -1.17408  -1.63016   0.20225
C    -1.33578  -1.59240  -1.33198
C    -0.65458  -0.23844   0.48057
Cl   -0.24499   0.25585   2.08199
H     1.84659  -1.72225  -2.30559
H     1.39052  -2.94430  -1.07630
H     3.08601  -2.79076  -1.57384
H     0.01458   1.36887  -2.85822
H    -2.38258   0.16136  -2.31415
H    -3.74488   0.29156   0.04640
H    -4.10397  -1.10823  -0.98985
H    -2.79228  -1.22759   1.67244
H    -3.11194  -2.58680   0.56905
H    -0.59266  -2.44745   0.64289
H    -0.38893  -1.54840  -1.88022
H    -1.93661  -2.43243  -1.70579
29

C     2.16322  -2.22200  -1.38245
C     2.43135  -1.27810  -0.24011
O     2.92735  -1.68014   0.81716
C     2.10976   0.13619  -0.38533
C     2.54840   1.04120   0.61146
N     2.90479   1.77921   1.44123
N     1.47695   0.65247  -1.45727
C     0.42553   0.94054  -1.94548
C    -1.16579   0.59644  -0.50459
Cl   -1.50647   2.29505  -0.21427
C    -2.11643  -0.26454  -1.33918
C    -3.31578  -0.61347  -0.40768
C    -2.68362  -1.57760   0.63640
C    -1.17732  -1.63097   0.20256
C    -1.33614  -1.59081  -1.33159
C    -0.66580  -0.23641   0.48401
Cl   -0.24148   0.25507   2.08457
H     1.84652  -1.72244  -2.30564
H     1.39061  -2.94414  -1.07590
H     3.08594  -2.79096  -1.57410
H     0.01793   1.37067  -2.86403
H    -2.38293   0.16225  -2.31350
H    -3.74684   0.28996   0.04606
H    -4.10488  -1.10999  -0.99037
H    -2.79313  -1.22846   1.67217
H    -3.11311  -2.58780   0.56910
H    -0.59275  -2.44727   0.64262
H    -0.38875  -1.54700  -1.87956
H    -1.93610  -2.43203  -1.70660
29

C     2.16348  -2.22212  -1.38248
C     2.43439  -1.27796  -0.24092
O     2.92753  -1.68073   0.81714
C     2.12135   0.13761  -0.38863
C     2.55136   1.04277   0.61118
N     2.90552   1.78057   1.44208
N     1.47363   0.64850  -1.44989
C     0.44791   0.94794  -1.97126
C    -1.18558   0.59439  -0.48708
Cl   -1.50556   2.29614  -0.21575
C    -2.11911  -0.26412  -1.33773
C    -3.32032  -0.61804  -0.40869
C    -2.68664  -1.58142   0.63565
C    -1.18056  -1.63177   0.20288
C    -1.33649  -1.58922  -1.33121
C    -0.67702  -0.23439   0.48744
Cl   -0.23797   0.25429   2.08715
H     1.84645  -1.72263  -2.30569
H     1.39070  -2.94398  -1.07549
H     3.08587  -2.79116  -1.57437
H     0.02128   1.37248  -2.86985
H    -2.38329   0.16313  -2.31284
H    -3.74879   0.28835   0.04572
H    -4.10578  -1.11175  -0.99088
H    -2.79399  -1.22932   1.67190
H    -3.11428  -2.58881   0.56916
H    -0.59284  -2.44709   0.64235
H    -0.38858  -1.54560  -1.87889
H    -1.93560  -2.43164  -1.70740
29

C     2.16374  -2.22224  -1.38250
C     2.43743  -1.27782  -0.24172
O     2.92770  -1.68132   0.81711
C     2.13295   0.13903  -0.39192
C     2.55432   1.04435   0.61091
N     2.90626   1.78193   1.44293
N     1.47031   0.64453  -1.44251
C     0.47028   0.95533  -1.99705
C    -1.20537   0.59234  -0.46957
Cl   -1.50466   2.29723  -0.21723
C    -2.12179  -0.26371  -1.33628
C    -3.32485  -0.62262  -0.40970
C    -2.68966  -1.58524   0.63491
C    -1.18380  -1.63257   0.20319
C    -1.33684  -1.58763  -1.33082
C    -0.68823  -0.23236   0.49088
Cl   -0.23445   0.25352   2.08973
H     1.84638  -1.72283  -2.30573
H     1.39079  -2.94382  -1.07509
H     3.08579  -2.79136  -1.57463
H     0.02463   1.37428  -2.87567
H    -2.38364   0.16402  -2.31219
H    -3.75074   0.28675   0.04539
H    -4.10668  -1.11352  -0.99139
H    -2.79484  -1.23018   1.67163
H    -3.11545  -2.58981   0.56922
H    -0.59293  -2.44691   0.64209
H    -0.38840  -1.54419  -1.87823
H    -1.93510  -2.43124  -1.70821
29

C     2.16400  -2.22236  -1.38253
C     2.44047  -1.27768  -0.24253
O     2.92788  -1.68191   0.81709
C     2.14454   0.14045  -0.39522
C     2.55728   1.04592   0.61063
N     2.90699   1.78329   1.44379
N     1.46698   0.64056  -1.43513
C     0.49265   0.96272  -2.02284
C    -1.22516   0.59029  -0.45207
Cl   -1.50376   2.29831  -0.21872
C    -2.12447  -0.26329  -1.33483
C    -3.32938  -0.62719  -0.41070
C    -2.69268  -1.58905   0.63417
C    -1.18704  -1.63337   0.20350
C    -1.33720  -1.58604  -1.33043
C    -0.69945  -0.23033   0.49432
Cl   -0.23094   0.25274   2.09231
H     1.84631  -1.72302  -2.30578
H     1.39088  -2.94366  -1.07469
H     3.08572  -2.79156  -1.57490
H     0.02799   1.37608  -2.88148
H    -2.38400   0.16491  -2.31153
H    -3.75270   0.28514   0.04505
H    -4.10758  -1.11528  -0.99190
H    -2.79570  -1.23104   1.67136
H    -3.11662  -2.59081   0.56927
H    -0.59302  -2.44673   0.64182
H    -0.38823  -1.54279  -1.87757
H    -1.93459  -2.43084  -1.70901
29

C     2.16427  -2.22248  -1.38256
C     2.44351  -1.27754  -0.24333
O     2.92806  -1.68250   0.81707
C     2.15614   0.14187  -0.39852
C     2.56024   1.04749   0.61036
N     2.90773   1.78465   1.44464
N     1.46366   0.63659  -1.42775
C     0.51503   0.97012  -2.04863
C    -1.24495   0.58823  -0.43456
Cl   -1.50286   2.29940  -0.22020
C    -2.12715  -0.26287  -1.33339
C    -3.33392  -0.63177  -0.41171
C    -2.69570  -1.59287   0.63342
C    -1.19028  -1.63417   0.20382
C    -1.33755  -1.58445  -1.33004
C    -0.71067  -0.22831   0.49775
Cl   -0.22743   0.25196   2.09489
H     1.84624  -1.72321  -2.30583
H     1.39097  -2.94351  -1.07428
H     3.08565  -2.79176  -1.57516
H     0.03134   1.37788  -2.88730
H    -2.38435   0.16579  -2.31088
H    -3.75465   0.28354   0.04471
H    -4.10849  -1.11704  -0.99242
H    -2.79656  -1.23191   1.67108
H    -3.11779  -2.59181   0.56933
H    -0.59311  -2.44655   0.64155
H    -0.38805  -1.54138  -1.87690
H    -1.93409  -2.43044  -1.70982
29

C     2.16453  -2.22259  -1.38258
C     2.44654  -1.27739  -0.24414
O     2.92824  -1.68309   0.81704
C     2.16773   0.14329  -0.40181
C     2.56319   1.04907   0.61009
N     2.90846   1.78601   1.44549
N     1.46034   0.63263  -1.42038
C     0.53740   0.97751  -2.07442
C    -1.26474   0.58618  -0.41706
Cl   -1.50195   2.30049  -0.22168
C    -2.12982  -0.26246  -1.33194
C    -3.33845  -0.63634  -0.41272
C    -2.69872  -1.59669   0.63268
C    -1.19352  -1.63498   0.20413
C    -1.33791  -1.58286  -1.32966
C    -0.72189  -0.22628   0.50119
Cl   -0.22392   0.25118   2.09746
H     1.84617  -1.72340  -2.30588
H     1.39106  -2.94335  -1.07388
H     3.08558  -2.79196  -1.57542
H     0.03469   1.37969  -2.89312
H    -2.38470   0.16668  -2.31023
H    -3.75661   0.28193   0.04438
H    -4.10939  -1.11880  -0.99293
H    -2.79741  -1.23277   1.67081
H    -3.11896  -2.59281   0.56938
H    -0.59319  -2.44637   0.64128
H    -0.38788  -1.53998  -1.87624
H    -1.93358  -2.43004  -1.71062
29

C     2.16479  -2.22271  -1.38261
C     2.44958  -1.27725  -0.24494
O     2.92841  -1.68369   0.81702
C     2.17933   0.14471  -0.40511
C     2.56615   1.05064   0.60981
N     2.90920   1.78737   1.44635
N     1.45702   0.62866  -1.41300
C     0.55978   0.98490  -2.10021
C    -1.28453   0.58413  -0.39955
Cl   -1.50105   2.30158  -0.22316
C    -2.13250  -0.26204  -1.33049
C    -3.34299  -0.64092  -0.41373
C    -2.70174  -1.60050   0.63194
C    -1.19677  -1.63578   0.20444
C    -1.33826  -1.58127  -1.32927
C    -0.73310  -0.22425   0.50462
Cl   -0.22040   0.25040   2.10004
H     1.84610  -1.72360  -2.30592
H     1.39116  -2.94319  -1.07348
H     3.08551  -2.79216  -1.57569
H     0.03804   1.38149  -2.89893
H    -2.38506   0.16757  -2.30957
H    -3.75856   0.28032   0.04404
H    -4.11029  -1.12056  -0.99344
H    -2.79827  -1.23363   1.67054
H    -3.12013  -2.59381   0.56944
H    -0.59328  -2.44619   0.64101
H    -0.38771  -1.53858  -1.87558
H    -1.93308  -2.42965  -1.71143
29

C     2.16505  -2.22283  -1.38263
C     2.45262  -1.27711  -0.24575
O     2.92859  -1.68428   0.81699
C     2.19092   0.14613  -0.40841
C     2.56911   1.05221   0.60954
N     2.90993   1.78873   1.44720
N     1.45370   0.62469  -1.40562
C     0.58215   0.99230  -2.12600
C    -1.30433   0.58208  -0.38205
Cl   -1.50015   2.30266  -0.22464
C    -2.13518  -0.26162  -1.32904
C    -3.34752  -0.64549  -0.41474
C    -2.70476  -1.60432   0.63119
C    -1.20001  -1.63658   0.20476
C    -1.33861  -1.57968  -1.32888
C    -0.74432  -0.22223   0.50806
Cl   -0.21689   0.24962   2.10262
H     1.84603  -1.72379  -2.30597
H     1.39125  -2.94303  -1.07307
H     3.08543  -2.79236  -1.57595
H     0.04140   1.38329  -2.90475
H    -2.38541   0.16846  -2.30892
H    -3.76051   0.27872   0.04371
H    -4.11120  -1.12232  -0.99395
H    -2.79912  -1.23449   1.67027
H    -3.12129  -2.59481   0.56949
H    -0.59337  -2.44601   0.64075
H    -0.38753  -1.53717  -1.87492
H    -1.93258  -2.42925  -1.71223
29

C     2.16531  -2.22295  -1.38266
C     2.45566  -1.27697  -0.24655
O     2.92877  -1.68487   0.81697
C     2.20252   0.14755  -0.41170
C     2.57207   1.05379   0.60926
N     2.91067   1.79009   1.44805
N     1.45038   0.62072  -1.39824
C     0.60453   0.99969  -2.15179
C    -1.32412   0.58003  -0.36454
Cl   -1.49925   2.30375  -0.22612
C    -2.13786  -0.26120  -1.32760
C    -3.35205  -0.65006  -0.41574
C    -2.70778  -1.60814   0.63045
C    -1.20325  -1.63738   0.20507
C    -1.33897  -1.57809  -1.32850
C    -0.75554  -0.22020   0.51149
Cl   -0.21338   0.24884   2.10520
H     1.84596  -1.72398  -2.30602
H     1.39134  -2.94287  -1.07267
H     3.08536  -2.79256  -1.57622
H     0.04475   1.38509  -2.91057
H    -2.38577   0.16934  -2.30827
H    -3.76247   0.27711   0.04337
H    -4.11210  -1.12408  -0.99447
H    -2.79998  -1.23535   1.67000
H    -3.12246  -2.59581   0.56955
H    -0.59346  -2.44583   0.64048
H    -0.38736  -1.53577  -1.87425
H    -1.93207  -2.42885  -1.71304
29

C     2.16558  -2.22307  -1.38268
C     2.45870  -1.27683  -0.24736
O     2.92894  -1.68546   0.81695
C     2.21412   0.14897  -0.41500
C     2.57503   1.05536   0.60899
N     2.91140   1.79145   1.44890
N     1.44706   0.61675  -1.39087
C     0.62690   1.00708  -2.17758
C    -1.34391   0.57798  -0.34703
Cl   -1.49834   2.30484  -0.22760
C    -2.14054  -0.26079  -1.32615
C    -3.35659  -0.65464  -0.41675
C    -2.71080  -1.61196   0.62971
C    -1.20649  -1.63819   0.20538
C    -1.33932  -1.57650  -1.32811
C    -0.76675  -0.21818   0.51493
Cl   -0.20987   0.24807   2.10778
H     1.84590  -1.72418  -2.30606
H     1.39143  -2.94272  -1.07227
H     3.08529  -2.79276  -1.57648
H     0.04810   1.38690  -2.91638
H    -2.38612   0.17023  -2.30761
H    -3.76442   0.27551   0.04303
H    -4.11300  -1.12585  -0.99498
H    -2.80084  -1.23622   1.66973
H    -3.12363  -2.59682   0.56961
H    -0.59355  -2.44565   0.64021
H    -0.38718  -1.53436  -1.87359
H    -1.93157  -2.42845  -1.71384
