8

C 4.606026695 -0.089838090 0.751867847
C 2.515617307 -2.044483583 1.052344543
H 1.214044476 -1.526333605 2.566869419
H 3.284877947 -3.904813732 1.503778628
H 1.409560700 -2.231016407 -0.679184955
H 3.836709231 1.771329038 0.303814123
H 5.714014828 0.094534060 2.482450515
H 5.905778339 -0.606265960 -0.764794083

