13

O -4.647929671 0.093935281 -0.376059599
C -2.581035184 -1.332806148 0.531211424
C -0.195022665 -0.723912523 -0.901834395
C 1.361319262 1.564781311 -0.336990173
O 1.988462217 0.356028068 2.514457468
C 2.440604250 -0.903065438 0.328942283
C 4.083988908 0.303411951 -1.406224805
H -4.532695646 1.775340001 0.288714171
H -2.288947492 -1.071530403 2.556197928
H -3.056865482 -3.310309749 0.194016840
H -0.205680683 -1.192278838 -2.896392944
H 1.541333401 3.590787983 -0.291868521
H 5.582981616 1.280568619 -0.361657581

