19

C 3.643008581 -1.679453559 -0.928483899
C 1.350457532 -0.574666489 0.402316040
O 1.384528708 -0.532444093 2.860597544
C 0.196666179 1.631744248 -0.757752302
C -2.413957581 2.273257758 0.206310642
C -3.440842807 -0.424405767 0.598187627
C -1.339148069 -1.984885872 -0.628228943
H 5.288021125 -0.521670216 -0.472065397
H 3.431309063 -1.768442368 -2.981454714
H 3.991472661 -3.577763500 -0.208223574
H 2.177963272 2.439208461 2.612313024
H 2.178472497 3.575994357 1.539260503
H 0.678485964 2.129791980 -2.697355499
H -2.349323411 3.368590981 1.945136277
H -3.475756310 3.336986880 -1.200564304
H -5.279967698 -0.737928603 -0.274343390
H -3.574704108 -0.873664872 2.597334922
H -1.528489253 -2.125042362 -2.676524009
H -1.055511402 -3.875056102 0.130500008

