13

N 3.379775646 -3.463239350 0.240481180
C 2.332799532 -1.579666986 0.478246785
C 0.936060888 0.812020475 0.784370115
C 0.471325645 2.081529717 -1.802610657
C -0.800949344 0.795931989 -3.865101818
C -2.282990358 -1.514489614 2.803459747
N -1.473297837 0.600528336 2.075772610
H 2.117468094 2.064687476 1.927757354
H 2.284397108 2.237224025 -2.873768633
H -0.138681104 4.034383673 -1.535572552
H -0.681456689 -1.267999653 -3.518023040
H -1.260872948 -3.297343223 2.564781971
H -4.111551830 -1.579127564 3.738189172

