15

C 1.936561154 2.285990071 -0.243918100
C 2.773775173 -0.456141128 -0.504321812
C 0.834895572 -2.244166086 0.536434684
O -0.755374044 -1.461243481 2.533637678
C -2.723627379 -0.002328161 1.556899471
C -0.605073127 1.639416971 -1.256938425
C 0.324317443 -0.988167138 -1.931682863
H -0.579071857 1.886690979 0.996339920
H 2.411229894 3.644425818 1.216733236
H 4.657822954 -1.076710218 -1.015592506
H 1.187143753 -4.262602855 0.534981844
H -3.562941036 1.134585216 3.057731600
H -4.121542907 -1.043824505 0.449823868
H -1.918856971 2.819354631 -2.297445496
H -0.044474459 -1.941426197 -3.697905143

