11

C 6.297727720 -0.042206920 0.027383511
C 4.250140791 0.925970544 0.002427164
C 1.844484910 2.151801658 -0.033050875
C -0.313936592 0.942129460 0.022707497
C -2.439460153 -0.227878407 0.011158058
C -4.591420265 -1.470640012 -1.068482312
O -4.205824333 -1.152441238 1.629862496
H 8.105995575 -0.922273295 0.052440845
H 1.861975232 4.204997766 -0.105173029
H -4.417421899 -3.401327973 -1.736620419
H -6.123420989 -0.355182075 -1.851263055

