11

C 7.110058677 -0.861431011 0.420465386
C 4.907367166 -0.362477571 0.220738002
C 2.381819689 0.206584255 -0.007723386
C 0.172484998 0.693407015 -0.204086566
C -2.464983890 1.322040151 -0.479338083
C -4.375292950 -0.654449706 -0.825770897
O -4.114263077 0.606951836 1.511012556
H 9.063925451 -1.303763816 0.601964660
H -2.831244107 3.184524475 -1.262382499
H -3.774028376 -2.615798888 -0.840230968
H -6.075843618 -0.215586740 -1.887728514

