18

C -1.311303861 -2.409935564 -1.166664394
C -0.496042469 0.184924611 -0.124001655
C -2.141815646 1.355663009 1.933950251
N 2.188633762 1.289091208 -0.587109901
C 2.086636229 -1.209926631 2.055003008
C 2.096124998 2.374797278 -2.843507201
O 0.161578481 2.503051440 -4.171286243
H -1.508051374 -3.845749171 0.311400749
H -3.134265282 -2.248480935 -2.117600412
H 0.054022602 -3.078285773 -2.558469492
H -1.188919453 1.287235232 -1.974040602
H -1.327555034 3.138973667 2.568079921
H -4.033538531 1.744722564 1.210455717
H -2.357416238 0.116193345 3.578747253
H 0.624450719 -2.335522060 2.979977326
H 3.452394155 -2.358204424 1.064433612
H 2.933036454 0.161794023 3.303926159
H 3.849490431 3.290034386 -3.433672657

