9

N 3.648551204 -2.042429772 -0.409818876
C 1.322006401 -0.626251553 -0.646409412
C -1.024915395 -1.882756588 0.417430655
O -2.885567667 -0.771786070 1.074132858
H -0.914741867 -3.982855415 0.554858342
H 1.512636794 1.224475576 0.246506968
H 0.951293555 -0.260166665 -2.649830153
H 3.596786900 -3.690258745 -1.371863782
H 4.072623831 -2.423345684 1.412147263

