12

N 3.435606093 -1.193473258 0.239032459
C 1.447637359 -0.297647285 -0.906046349
C -0.990561856 -1.692086491 -1.164780734
O -3.052960760 -0.372336915 -1.302845825
C -1.423189726 2.749333116 1.687182009
N -3.142450044 3.946773136 2.390413653
H 5.146143530 -0.376649648 0.106368167
H 3.262271588 -2.720212682 1.365807834
H 1.685820008 1.409148570 -2.014672832
H -0.348809050 -2.604866860 -3.033080047
H -0.922328040 -3.329989035 0.187109021
H -4.992019640 4.322047686 2.358651363

