12

O -4.530000878 2.576045532 -0.618986066
C -3.520841472 0.538679055 0.407351329
C -1.006622260 -0.186355247 0.115691225
N 0.322764674 1.439598540 -1.390932517
N 2.549710838 0.449437400 -1.440459423
C 2.737578660 -1.929345159 0.074805319
N 0.222080501 -2.155521698 1.040812073
H -3.220996095 3.426250682 -1.580801446
H 3.334615633 -3.498804997 -1.166140921
H -4.828977925 -0.564739210 1.529140925
H 3.911178046 1.301513001 -2.459602064
H 4.209950776 -1.707381651 1.536810398

