13

C 3.107267105 1.470948094 -0.375178439
N 1.045176830 -1.332862178 -1.000884182
C -0.207605822 1.123001988 0.493098294
C -0.969629038 -1.590261018 0.693975917
C -3.456866230 -2.075830624 -0.562885691
O -5.068373665 -3.422529679 0.285649111
H 2.896705826 3.526965772 -0.291438703
H 3.934230910 1.004961115 -2.184285011
H 4.265342977 0.824625307 1.187021941
H 0.243625571 1.838080949 2.365102492
H -1.364960858 2.340339464 -0.674632208
H -0.745676253 -2.537522086 2.520385445
H -3.647104430 -1.118397500 -2.421509531

