14

C -3.463498772 0.578589088 -0.901927275
C -0.739386016 0.270642154 -0.248914196
C 1.176267094 1.836633438 -0.723198641
C 3.681773553 1.045540810 0.041360568
O 2.783456845 -1.593701264 1.723535483
C 0.185150622 -2.083827284 1.035240235
H -4.109055502 -0.899038772 -2.198043124
H -3.803925733 2.399128825 -1.802577719
H -4.656256334 0.466079916 0.784412143
H 0.953106501 3.636338150 -1.679486024
H 4.582613877 2.206429937 1.484464020
H 3.989755429 -1.688485580 0.141928145
H -0.849450734 -2.554612863 2.763241746
H 0.143425205 -3.746692921 -0.206207160

