11

N -2.998437985 -0.717677901 -0.598542026
C -0.632815327 0.143717697 -0.056148884
C 1.703099380 -1.399511685 -0.344748841
N 3.755837759 0.322040191 0.338036118
N 2.839223400 2.428549914 0.888153950
C 0.184577355 2.438307779 0.683157461
H -4.479738528 0.325346928 -0.035390545
H -3.294298798 -2.590737151 -0.596396431
H 1.768760352 -3.051147379 0.896311671
H 1.996339087 -2.055420694 -2.282308620
H -0.860890285 4.138487325 1.096324252

