19

C 2.982086034 -0.572236868 -1.521867010
C 1.187958111 1.103793546 -0.057851792
O 0.387799939 3.104559618 -1.780562334
C 0.528959306 5.387531778 -0.952978850
C -1.187497698 -0.166746636 0.985108786
C -0.517079334 -1.973740948 3.130701012
C -2.767399729 -1.473751390 -1.041751513
H 4.630043187 0.507728610 -2.124778915
H 3.636183683 -2.126484960 -0.337740546
H 2.076978746 -1.360216342 -3.196878012
H 2.166655359 2.068056442 1.483772872
H -0.198119907 6.516624051 -2.575817594
H -2.311136335 1.376070728 1.789032408
H 0.602410900 -1.038874669 4.590894392
H 0.551647660 -3.602217841 2.445088759
H -2.232614965 -2.696288673 4.018041964
H -1.803389772 -3.135279932 -1.798681595
H -3.186427845 -0.203997069 -2.610618676
H -4.559590002 -2.114646827 -0.246840713

