19

C 3.312440112 -0.743404500 -1.869998215
C 1.730061048 0.925505785 -0.183383369
O 0.932531220 3.145995681 -1.506544450
C -0.822800398 4.130726560 0.091508230
C -0.850525931 -0.069596100 0.713648967
C -0.849552665 -1.531389189 3.150425218
C -2.487044307 -1.183468613 -1.326668185
H 5.062518349 0.206924236 -2.398784913
H 3.804482938 -2.485655245 -0.878713067
H 2.291270438 -1.238900195 -3.590559478
H 2.819594191 1.498172491 1.492463477
H -2.357698223 4.964922876 -1.032451887
H -1.334737769 2.540200111 1.611601525
H 0.102348474 -0.494302787 4.662740419
H 0.142626153 -3.339472078 2.926561439
H -2.771733872 -1.969869655 3.757113475
H -1.846821802 -3.096344752 -1.816122275
H -2.436343220 -0.052614435 -3.049360605
H -4.443447453 -1.346771035 -0.694639664

