11

N -3.739220056 -0.295247654 -0.191809129
C -1.086903306 -0.235590625 -0.051319727
C 0.517760826 -2.233930894 -0.082870651
N 2.977975520 -0.870486031 -0.121025053
N 2.727508480 1.883540956 -0.069366838
C 0.311523355 2.125369889 -0.058678547
H -4.590489518 0.670192976 1.216594983
H -4.357986365 -2.100385442 -0.184079545
H 3.972647455 -1.330068993 -1.704408186
H 4.048859523 -1.399740493 1.388607625
H -0.486432663 4.013047286 -0.053328581

