9

O 0.929659384 2.090889247 0.246796871
C 3.094093370 1.151758650 -0.826950615
O 3.291652312 -0.811002763 -1.877895475
C -2.447461159 -1.680365635 -0.142353182
C -1.148194248 0.646651883 0.252183309
N -3.389155226 0.905726362 0.871212555
H 4.589502439 2.556011695 -0.541822955
H -3.071528547 -2.217066770 -2.020479469
H -2.301992971 -3.201149001 1.226708627

