9

O 0.876681895 2.344783703 0.388215735
C 2.567239239 0.944494490 -0.683178740
O 2.214258600 -1.223571531 -1.450201169
C -1.497742030 -1.586462290 -0.477175859
C -1.614316645 0.870370040 0.546726170
N -3.664332118 1.395910585 1.376773196
H 4.425249258 1.848394337 -0.875656643
H -2.257548597 -1.928197509 -2.346235636
H -1.312426075 -3.188607172 0.781820610

