11

C -1.827542135 1.426887656 0.940578732
C 0.423919200 -1.500403350 -2.321053713
C 1.062751472 -1.778604351 0.208574137
O 1.079461772 -3.501180156 1.696547492
C 1.928279656 0.918881123 1.166028161
N 3.309981900 2.460267946 1.877334132
H -1.687091510 1.772275507 2.950218486
H -3.194561208 -0.001506868 0.447550301
H -1.817984127 3.088948402 -0.248919884
H 0.705192424 0.296853449 -3.241749030
H 0.139897540 -3.171536407 -3.471746973

