14

O -2.159688090 0.174236509 -2.347037787
C -1.862510440 1.624376243 -0.385941412
N -1.809827049 0.567858864 1.911938702
C -0.448933089 -1.873682047 2.258532993
C 1.587370417 -2.158482388 0.275225136
C 2.693457599 0.068049567 -0.332070763
C 2.540796924 2.403115561 -0.687092608
H -2.343364537 3.600635724 -0.585297446
H -1.528019392 1.825951572 3.312898201
H -1.808185349 -3.419311816 2.106463633
H 0.235701344 -1.829367101 4.205199703
H 2.016636352 -3.984010794 -0.527949228
H -0.885868666 -1.234588010 -2.095636787
H 3.500135780 4.126326408 -0.204226009

