15

C -2.806350140 -0.749878135 0.987697106
N -0.706824032 0.532240248 -0.221436614
C -1.101956392 3.232511897 -0.429609525
C 3.152954238 -2.675372580 -1.627862864
C 3.160919302 -1.405926927 0.527982960
O 1.403906696 0.236009048 1.422646392
H -4.463347138 -0.556007504 -0.222385370
H -3.232650338 0.028050660 2.864371346
H -2.360073080 -2.751888252 1.167839142
H -2.736042823 3.547250224 -1.644882909
H -1.437922126 4.127859297 1.413321671
H 0.548318340 4.091047054 -1.308843967
H 1.643150313 -2.490122104 -2.987413266
H 4.721143142 -3.917631386 -2.035167497
H 4.668440570 -1.566964776 1.906360042

