17

C 3.198789168 -1.915020695 -0.695746307
C 1.620260911 0.389665061 -0.869567681
C -0.731053099 0.301178673 -2.463466780
C -2.684618859 0.839992692 -0.426706074
C -1.569059765 -0.829743309 1.585085908
O -2.079801959 3.222693126 0.691704825
C -0.035854284 2.369931479 2.143612492
H 4.497741741 -1.749850354 -2.305399051
H 2.222021141 -3.749371249 -0.890375266
H 4.379732785 -1.941660239 0.993970071
H -0.718471076 1.704233367 -3.977173746
H -1.146012352 -1.585917841 -3.242715738
H -4.675468820 0.750760958 -0.953241730
H -0.972432220 -2.708443127 1.017514150
H -2.496176466 -0.884985408 3.415287304
H 1.619294071 3.550925326 1.939964815
H -0.466326412 2.204860009 4.158696037

