13

N 4.607216108 0.219941199 0.297628860
C 4.198267053 -1.957128385 0.016629363
C 1.299297827 -0.513624499 -0.772696824
C -0.824551173 -1.804276961 0.688222608
C -2.436767161 0.571663809 0.151449663
C 0.053331945 2.049479281 -0.218315297
H 1.303053827 -0.940267721 -2.779040971
H -1.433461219 -3.643433958 -0.004452365
H -0.359582662 -1.940450229 2.689216581
H -3.507111666 0.401756360 -1.600706649
H -3.694087878 1.208606827 1.649236970
H 0.717455990 2.837391613 1.560436226
H 0.182223210 3.476478790 -1.693540446

