10

C -2.834527449 0.562870687 0.356118510
O -0.258796764 0.726861101 0.986059791
C 1.885804527 0.464098840 -1.334240885
O 1.267625469 1.221716651 -3.292650806
C 3.513725935 -1.523276330 1.481399395
O 5.467093878 -2.428957566 1.346421360
H -3.904184321 1.911360994 1.490725061
H -3.077552824 1.034071118 -1.644712323
H -3.570228311 -1.339625432 0.689104146
H 1.246567022 -0.780451239 2.067219577

