14

N -4.510769967 -0.524206153 -0.153296189
C -1.950015059 -0.149705672 -0.130114957
C -0.075404513 -1.939145165 -0.580129820
C 2.195967808 -0.620886091 -0.150371782
N 4.566433342 -0.954461624 0.558650475
C 1.728351904 2.074180610 0.113819584
N -1.000019103 2.157316918 0.423891780
H -5.078559157 -2.335494962 -0.195410399
H -5.540861434 0.570950097 1.008553692
H -0.387738315 -3.949465202 -0.711690549
H 4.225386135 1.459331891 1.202334241
H 5.569659292 -2.494116759 0.025964383
H 2.300575147 3.088830785 -1.593700508
H -2.026590012 3.730237885 0.157621489

