14

C 3.582986589 0.376015134 -1.125140440
N 2.814360614 -1.413325413 0.833636523
C 1.049401918 -0.784061542 -1.183102365
C -1.264052866 0.788332323 -0.615391637
C -3.260901385 -0.697730443 0.758305520
N -4.318766592 -0.144197442 2.823315326
H 5.054103909 -0.291527501 -2.382466977
H 3.701329516 2.367114313 -0.647365595
H 2.345077933 -0.497447877 2.449827361
H 0.730320018 -2.334498169 -2.490386553
H -2.060474502 1.473602744 -2.399830914
H -3.842347418 -2.463238804 -0.147852418
H -0.744374516 2.451387462 0.501099602
H -3.646426604 1.528859394 3.511594834

