21

C 4.573927524 -2.735016002 -0.930549181
O 3.833997701 -1.051754608 1.016825420
C 2.951812583 1.180971737 0.190726713
C -1.247267506 0.788048014 0.093989781
C -2.081449479 3.450506489 0.694015469
C -2.381442008 -0.177031301 -2.368763193
C -1.536560198 -1.078874068 2.218859932
H 5.764661983 -1.760256566 -2.304359343
H 2.912707139 -3.500627846 -1.896167105
H 5.607591254 -4.277620716 -0.042509238
H 1.067771889 1.101977878 -1.047508620
H 2.672010341 2.407608441 1.824597677
H -1.444775558 4.050510218 2.560909865
H -4.146222295 3.598654611 0.653126444
H -1.343180442 4.791984911 -0.695176365
H -1.671001437 -2.054448581 -2.846992612
H -1.968542557 1.087880672 -3.947749179
H -4.440061045 -0.312929009 -2.196208805
H -0.486090056 -2.816676813 1.847991920
H -3.529440028 -1.593720256 2.453095963
H -0.854962649 -0.316311486 4.008045785

