14

C -3.652337138 0.860066213 -0.286254957
O -2.112310407 0.144272880 1.762788289
C -0.280494940 -1.650088840 1.129541745
C 2.071487334 -0.555686666 -0.047904690
O 3.521278811 -2.454138317 -0.994563672
C 2.657521017 1.879542428 -0.112106906
H -4.708835147 -0.765451406 -1.021574340
H -4.985955244 2.261426334 0.415781945
H -2.549631583 1.691297644 -1.828722439
H 0.258680679 -2.621991011 2.871239990
H -1.040008883 -3.087274615 -0.162694157
H 5.072690801 -1.765591905 -1.635932996
H 1.397316881 3.243186544 0.733337060
H 4.389735937 2.552864375 -0.971713028

