14

C -3.543171590 0.914563704 -0.361882288
O -2.196668065 0.050304604 1.766930134
C -0.409280985 -1.799144881 1.197591727
C 1.954034676 -0.835929460 -0.024507688
O 3.464938157 -2.419759210 -1.057470557
C 3.018007894 1.606837185 -0.123969624
H -4.593299673 -0.634650705 -1.254081499
H -4.873525346 2.337581484 0.297851148
H -2.286249020 1.771066196 -1.766905133
H 0.135780979 -2.698485008 2.976959018
H -1.164482403 -3.300822549 -0.026968263
H 4.790677523 -0.427871373 -0.835510432
H 2.510315359 3.063037819 1.222406817
H 3.212209039 2.276416171 -2.061426281

