16

C 1.839310783 0.314280597 -3.554399247
N 1.151564235 0.277369484 -1.153155403
C 2.220450722 -0.599722916 0.959631820
C -0.357243540 -1.518133875 0.270124331
C -2.761633759 -0.592128126 1.454689401
O -4.407090577 -2.093760005 1.935885558
C -2.981723225 2.174848191 2.093453378
H 3.967165680 -2.454698149 -2.554877803
H 3.434597943 1.491510450 -4.058302031
H 0.405582772 -0.070457645 -4.962145205
H 4.028003259 -2.443957304 -0.933424342
H 3.003431851 0.384691755 2.561799378
H -0.482322320 -3.433325269 -0.485123159
H -4.891477140 2.563595128 2.742933577
H -1.641290785 2.656497258 3.587067906
H -2.524009429 3.353252887 0.464960971

