10

O 3.363309801 1.199964146 -1.081636091
C 3.860723077 -0.775663901 0.419464322
C 0.986835958 0.304732303 -0.308959450
N -0.380992843 -1.138325683 -1.780437178
C -2.771970391 -0.932513173 -0.758790140
C -2.729266775 0.735906785 1.164184204
O -0.322184245 1.630572542 1.425301873
H 5.216876111 -2.064602042 -0.521062216
H -4.357368973 -1.971993896 -1.500911497
H -4.123901417 1.480726955 2.442444824

