12

C -2.169082108 1.201111928 1.431445789
C -0.859760116 0.790051275 -1.043951456
N -1.492919279 1.636624976 -3.187360954
N 1.323936510 -0.713823162 -0.993529954
C 2.287478703 -1.756807419 1.080202262
O 4.347783450 -3.036162928 0.387546697
H -3.788087504 2.441134621 1.159618115
H -0.876210219 2.026874699 2.804659893
H -2.796402943 -0.596723146 2.217333845
H -3.083488435 2.698431547 -3.060690987
H 2.145940881 -0.951060022 -2.716028148
H 5.042936666 -3.786827472 1.882391549

