12

C -2.034611086 0.972746255 1.450908172
C -0.795895479 0.764380422 -1.087907601
N -1.525145156 1.714474870 -3.153952316
N 1.436284640 -0.656179297 -1.181218913
C 2.554318406 -1.814758478 0.752025072
O 4.632825393 -3.051627558 0.311509994
H -3.730351949 2.127434698 1.307484782
H -0.744248546 1.812734808 2.819930430
H -2.537986580 -0.895096520 2.161352070
H -3.147502133 2.707127330 -2.918876622
H 2.265225345 -0.793718628 -2.911360766
H 3.709214663 -2.934694896 2.411744258

