15

C 4.227263200 -0.073519039 -0.705341788
C 1.504837630 0.664898625 -1.267329897
C -0.320116053 -0.244377436 0.762626171
C -2.999600526 0.691236853 0.341669400
O -3.468304270 2.714951892 -0.624348844
N -4.856310962 -0.878971052 1.173136611
H 5.497886020 0.571660407 -2.195508586
H 4.439669361 -2.122689955 -0.548757645
H 4.875820381 0.756348141 1.071450902
H 1.327955863 2.712349399 -1.434983696
H 0.923291083 -0.109805503 -3.093086845
H -0.289951300 -2.307632330 0.901373850
H 0.274231858 0.476464793 2.610985075
H -6.658521583 -0.301598267 1.029208134
H -4.478150705 -2.549316528 1.978907176

