15

C 4.165319527 -0.101334768 -0.932648591
C 1.397866017 0.647172049 -1.153736286
C -0.230984059 -0.553511024 0.906700005
C -2.891972365 0.369403965 0.826179626
O -3.467997340 2.725516217 0.739447848
N -5.006390629 -0.888812047 0.839503404
H 5.285028441 0.760864001 -2.433510407
H 4.409304354 -2.147823653 -1.063752989
H 4.957199830 0.513377380 0.872495547
H 1.193773082 2.696322103 -1.034906981
H 0.660172250 0.092194106 -3.003110786
H -0.201005973 -2.612749513 0.772808601
H 0.517976180 -0.047703056 2.767178914
H -5.156837093 -2.786298388 0.888346702
H -5.621591668 1.520287899 0.751397928

