14

C -4.036121050 -1.730351083 1.582027764
C 0.554090906 0.252197198 -0.237040877
C -1.161448655 1.602328979 1.029527819
O -3.371350151 0.830464693 1.956068248
C 2.886561039 1.543580606 -1.083274257
O 3.338230943 3.760758795 -0.677405834
N 4.538179291 0.048423552 -2.375261470
H -5.876745967 -1.984738134 2.458526016
H -4.159811146 -2.169784557 -0.434013380
H -2.659688647 -2.984938311 2.478608286
H 0.296614001 -1.732177711 -0.658760984
H -0.818936929 3.586084701 1.409505464
H 4.176202271 -1.769582383 -2.756097560
H 6.142462096 0.832911189 -3.013672144

