11

N -3.750912660 -0.554488050 0.430497261
C -1.363518695 -0.450625377 0.201498851
C 0.849614951 -1.921787520 0.248114105
C 2.878528683 -0.302714510 -0.203314405
N 2.393751968 2.110004564 -0.559899281
N -0.334172251 2.176344212 -0.323683591
H -4.339598725 -2.343015562 0.779122951
H -1.117161695 2.857189461 -1.943655639
H 0.931450882 -3.927164033 0.571696860
H 4.846124828 -0.865330083 -0.287277394
H -0.840956339 3.358758339 1.106528887

