12

C 3.148577368 0.403099880 -2.177439478
C 0.897896093 0.284651090 -1.115202295
O -0.140093032 1.945432189 0.628750054
C -2.285564826 0.306455506 0.914841097
H -3.000788521 -0.014297668 2.799369303
C -3.679618831 0.131868585 -1.501358399
H -3.647283784 1.714372863 -2.799956611
H -5.424070766 -0.938300365 -1.445025625
C -1.317525463 -1.448802583 -1.097562174
H -1.290904306 -3.484072825 -1.204725160
H 4.434619200 1.931761249 -1.749094785
H 3.727535161 -1.055256403 -3.483106305

