12

C 2.986766961 -0.266831200 0.760125799
C 0.330208060 0.528687657 0.227501520
C -2.839811823 -1.320645288 -1.034240683
N -1.661647047 -0.863177666 1.160623128
C -0.165099230 2.867681523 -0.992520784
N -0.448980805 4.828421080 -1.909265364
H 3.530393470 -1.904195474 -0.381471926
H 3.159846088 -0.828083600 2.744362739
H 4.320656715 1.250975205 0.370660255
H -4.808965650 -0.821333612 -1.347577381
H -1.842720737 -2.395189747 -2.452596811
H -2.379912596 -0.856979705 2.927290023

