13

O 3.385799451 3.723632158 0.785122680
C 4.173343134 1.675981962 0.214358551
C 2.581271683 -0.674393838 0.006290237
C -0.170939617 -0.245495058 0.494231809
C -4.439914686 -0.497614569 -0.459647458
N -1.817870555 -0.962651357 -1.061810389
H 6.210560436 1.394461789 -0.196605349
H 3.355013714 -2.045603075 1.357648355
H 2.842477301 -1.500457169 -1.869530338
H -0.667922622 0.719800838 2.261954267
H -5.275434320 0.655075375 -1.952343447
H -4.712905542 0.455091839 1.362913680
H -5.454466293 -2.293854563 -0.441680434

