14

C -2.785182486 1.811225635 -0.413373130
C -1.300724362 -0.635078955 -0.572357811
N 0.466567201 -0.879060890 -2.696284610
C 2.655869151 -0.783022684 -1.274163827
N 4.939838878 -0.686977996 -1.923609764
C 1.067388671 -0.771012284 1.107596733
N 1.632473777 -0.773552775 3.401682145
H -4.149733028 1.941613488 -1.955389194
H -1.528796693 3.444228649 -0.513084038
H -3.836032558 1.899546729 1.359990066
H -2.548211057 -2.273930009 -0.383242524
H 0.068788733 -0.718609706 4.524875449
H 0.235715007 -0.330755003 -4.500377815
H 6.060913081 -0.658776404 -0.366620720

