12

C 3.148998323 -1.254448578 0.281831676
C 1.685808405 -0.173132115 -1.884581704
C -0.764242548 -0.434540822 -2.361770016
C -2.677256127 -1.868801187 -0.849506197
H -1.876816876 -2.738825955 0.835259287
H -4.210479900 -0.620563723 -0.250843569
H -3.535317681 -3.363344364 -1.988827671
H -1.498565629 0.489941223 -4.042913614
H 2.786657040 0.951153375 -3.205269889
H 4.667665272 -2.475163769 -0.404996409
H 4.043920403 0.250225855 1.378339193
H 1.980696010 -2.364014595 1.562371230

