15

C -2.482955960 0.645840718 -1.595832932
C -3.070033869 -0.206623694 1.045626547
C -0.384325224 0.176884488 0.305712485
C 1.512489282 -1.962380387 -0.065301943
C 3.841588712 -0.469094747 -0.617634137
O 3.542314959 1.800451400 0.367434474
C 1.241929937 2.269996487 1.154890399
H -2.689375961 -0.708247223 -3.116927196
H -2.907008821 2.583198051 -2.098311392
H -3.906581930 1.148742723 2.329892510
H -3.705331087 -2.133174401 1.319575967
H 1.731766318 -3.022883917 1.723464354
H 0.969941221 -3.300896002 -1.534040891
H 5.770608838 -1.092915489 -0.811729438
H 0.790625184 4.219185528 1.540508837

