14

C -3.910164416 -0.468978567 -2.419629745
C -2.145498911 1.252996740 -1.032519936
C 0.255770311 0.714840950 -0.620033692
C 2.072759044 -1.405238122 -1.182245129
H 1.632375435 -3.203526900 -0.283633510
H 2.480749781 -1.708787456 -3.176439339
C 3.954867399 0.281519757 0.240830269
H 5.516222902 1.039102079 -0.871853777
H 4.655231743 -0.457207727 2.033731173
O 2.021341448 2.166423565 0.638245588
H -2.861629505 3.036508275 -0.317337683
H -5.504643832 -1.032107711 -1.232039639
H -4.699628855 0.444035883 -4.096491072
H -2.954200555 -2.189141437 -3.038788816

