13

C 3.223331438 0.872417898 -0.570430498
C 1.075054534 -0.252201431 0.974902319
C -1.374704589 1.155064008 0.514074292
C -3.576000820 0.042822460 0.384234781
N -5.651780931 -0.952782942 0.445121001
O 0.814447639 -2.874491415 0.538942993
H 4.972977645 -0.146613702 -0.188027164
H 3.506791207 2.863331090 -0.108816213
H 2.806430453 0.742551894 -2.590615359
H 1.554566094 -0.116479638 2.981858246
H -1.334984303 3.192235182 0.308857972
H 0.466955502 -3.122068876 -1.226346839
H -6.331525925 -1.572019265 -1.240265182

