19

C -3.563909691 0.242470230 1.011803284
C -2.248691621 -1.033082678 -1.170554244
C -0.080093302 0.064935242 -2.643724864
C 1.457698147 2.209727225 -1.525417768
C 2.457743027 1.271045457 1.049277725
C 2.103896421 -1.624027778 1.088339025
C 0.311174020 -2.263167886 -1.052820036
H -4.990335535 1.566883027 0.323338225
H -4.527142724 -1.150365563 2.192576184
H -2.284713788 1.300207219 2.226933144
H -3.557875927 -2.071392980 -2.361895834
H -0.166872908 -0.068225047 -4.684725681
H 3.024743029 2.627971710 -2.802789669
H 0.369385748 3.955295120 -1.333455817
H 4.436203018 1.785729677 1.317920964
H 1.426702425 2.153020929 2.599581372
H 1.422610979 -2.286971444 2.922756003
H 3.902910287 -2.577223474 0.746105127
H 0.506568394 -4.102828987 -1.929341001

