11

O 4.234396519 -2.883989954 1.559871217
C 3.267124045 -1.193493327 0.580960732
O -1.728799845 -2.109163352 1.534374654
C -2.821028682 -1.839632414 -0.661144760
C -2.364966752 0.656043406 0.542526424
C -0.137274279 1.891087805 -0.071427169
C 2.314559121 0.794428769 -0.596261240
H -1.915489800 -2.712483381 -2.312147169
H -3.933109773 1.621820975 1.425078508
H -0.243764447 3.935658182 -0.188198070
H 3.598146274 1.672153717 -1.930998367

