11

C 1.184649333 -0.263237318 -0.873508553
C 0.897990560 0.817021333 -3.060628853
H 1.240598001 0.513221440 -5.051125209
C -1.162431804 1.268883157 -1.139510277
H -1.503023399 3.067584878 -0.223500365
C -2.626438122 -1.172635532 -0.471415218
H -4.069764581 -0.986807291 0.988966435
H -3.415559179 -2.175834628 -2.096250211
C -0.052316047 -2.420576895 0.475141757
H 0.074258640 -2.279720035 2.525366857
H 0.444967839 -4.328695384 -0.129196626

