15

C -4.969515043 -1.021308248 -0.437137551
N -2.712605419 0.282384647 0.360795696
C -0.616821800 -0.446525654 -0.495051628
C 1.787319693 0.841484895 0.189045424
C 4.175978603 -0.649051873 -0.238739778
C 1.660857784 2.993350578 1.873131457
N 1.870872081 3.678156674 -0.364701741
H -6.232477839 0.322755490 -1.362277768
H -5.960130623 -1.738104573 1.224859738
H -4.599112471 -2.596552368 -1.736861567
H -0.461551773 -2.067606196 -1.788683867
H 5.829393115 0.455041591 0.294902873
H 4.369035121 -1.168410898 -2.228844205
H 4.173989628 -2.389459323 0.873388953
H 1.476613720 3.801898529 3.740104069

