16

C 3.696715693 2.085861819 -0.030905016
C 2.567823542 -0.345585139 -0.968174988
C 1.077722450 -1.951919506 0.676902808
C -2.851039404 -1.892743923 0.024615289
C -4.312722133 0.446207443 0.509498131
O -0.019267666 -0.166854804 -1.681445613
H 3.855620760 3.443318594 -1.575723241
H 2.511286621 2.911845972 1.440274589
H 5.584857755 1.759270828 0.737118383
H 3.695236453 -1.287793325 -2.416808006
H 1.105323563 -3.970022720 0.395996342
H 0.721656341 -1.310362740 2.581783818
H -3.325351383 -2.672859131 -1.830369921
H -6.218478105 -0.256941942 0.949616612
H -3.656293431 1.483780960 2.169494446
H -4.477189722 1.747687827 -1.093881517

