12

O -0.642916273 1.949312799 1.500296675
C -1.410650883 0.236656355 -0.315450754
C 0.800974440 -1.447945082 -0.989820176
C 2.830515996 -0.413523344 0.710197534
C 1.849137037 1.472784851 2.021832399
C -3.751967865 0.242170784 -1.189462900
H 1.279176117 -1.292522969 -2.993371554
H 0.375853657 -3.433960311 -0.613796613
H 4.747351734 -1.090571982 0.833872474
H 2.671926097 2.698840465 3.428632871
H -5.129193329 1.588731266 -0.509512153
H -4.313864718 -1.113273565 -2.608947894

