12

O -1.343597164 -0.382228384 3.034846620
C -1.375038484 -0.534035677 0.564250999
C 0.778318816 -2.150823158 -0.634762841
C 2.689232890 -0.124277952 -0.009529227
C 1.134809073 1.513047148 1.039866624
C -2.827454167 1.023825155 -0.935455495
H 0.526556670 -2.468835965 -2.655429147
H 1.031633239 -3.934152921 0.360308109
H 4.714711459 -0.023259656 -0.223356652
H 0.927160089 3.303734371 1.975200402
H -4.141975892 2.320873414 -0.059054225
H -2.617248554 1.024000484 -2.968122205

