13

N 2.984889405 -1.550373548 0.282750801
C 3.241006651 0.101431333 -1.500604984
O 1.378553394 0.863466152 -2.845838292
C -1.362011695 -0.102894265 -1.461338799
C -0.802901318 -0.895961920 1.046142405
C -3.253512461 1.630501904 -0.808315043
H 4.573612677 -1.805190833 1.314209296
H 5.064248979 0.991866012 -1.935024031
H -1.878748328 -1.583230651 -2.778328431
H -1.334265640 -2.769738964 1.657700562
H -0.458761630 0.506193699 2.485323750
H -2.852566265 3.149795580 0.495362337
H -5.019337086 1.703605392 -1.837994135

