9

O 2.529345071 -1.570753677 0.790396414
C 3.115164421 0.488385204 -0.307728085
O 1.106484894 1.165408992 -1.431235254
C -0.052772737 -1.099675436 -0.283584415
C -5.149684933 1.486245541 -1.030002991
N -4.333758678 1.110036199 0.991107231
H 4.916004726 1.466597283 -0.269852626
H -0.525864369 -2.494545556 -1.711864025
H -1.615882586 -0.508021310 1.042086523

