11

C -1.620182601 -1.638144920 0.429574886
C -1.394883481 1.198820125 0.078541818
O -1.324244120 2.664774712 2.270971737
C 0.707107246 -0.492324584 -0.540554495
C 3.051718208 -0.749411448 -1.311592876
H -2.846269338 -2.679768612 -0.838295094
H -1.600010890 -2.302156225 2.368181044
H 3.938479506 -2.591804695 -1.438490782
H -2.460931732 2.025203860 -1.473968481
H 0.059807451 3.826512817 2.141035907
H 4.181348090 0.876428464 -1.841345753

