11

C -1.155205945 -1.693930467 0.397851524
C -1.377372844 1.200427753 -0.231578056
O -1.713537472 2.904310557 1.732027402
C 1.027649545 0.186691052 -0.867762218
C 3.343253949 -0.599888116 -1.325302820
H -2.302136912 -2.924346775 -0.770437259
H -1.188262508 -2.032257508 2.419778467
H 1.496436928 -2.244229013 -0.143240484
H -2.707815568 1.595799295 -1.740922400
H -0.168071448 3.024835229 2.674806664
H 4.772378266 0.723654160 -1.995225698

