12

C -0.060915624 2.556308420 0.620396973
C -0.811729476 -0.106869285 1.469430663
C -2.643796579 -1.467270385 0.136749521
O -1.512357115 -2.350820697 -1.869569550
C 0.976414667 -1.764168412 -1.032196283
C 3.157262889 -2.145125067 -1.884733052
H 1.942866508 2.854347766 0.997015459
H -0.375226004 2.843196039 -1.393363291
H -1.158265506 3.951488853 1.672118133
H -0.856951605 -0.272064834 3.521806706
H -4.557878911 -2.094240827 0.519628065
H 4.991163084 -1.511574390 -1.280001285

