10

O 2.697166602 -0.068673876 -1.192773001
C 1.260681254 -0.399604321 1.700034056
C -0.984281256 -1.855977619 0.991950313
N -2.384786691 -0.510834678 -0.538169434
N -1.557735297 1.779590222 -1.172371669
C 0.723789389 1.855065448 0.059354181
H 4.342855271 0.295342915 -0.511334964
H -1.640788874 -3.650952101 1.703890987
H -4.074903559 -1.045163999 -1.255494429
H 1.637520252 3.678174664 0.195708674

