12

N -3.978565756 0.433264992 -0.182501189
C -1.606980048 -0.598959391 -0.059166739
C 0.359089708 2.519803163 0.652849089
N 2.549454289 2.842999111 0.474723807
C 4.598191003 -0.696619832 -0.069512026
N 3.421658251 -2.543438081 0.026896831
C -0.517091750 -2.679723542 -0.000531712
H -4.085210087 2.128086597 -1.049802426
H -5.352044838 -0.751539658 -0.754767612
H -1.333305527 3.534737232 1.197140631
H 6.224514741 0.484003118 -0.216044149
H -0.264178326 -4.671309798 -0.014926814

