12

O 4.327246814 -1.952219727 1.885966023
N 3.106344597 -0.017488565 1.190819043
C 0.871059449 0.042477717 0.260736247
C -0.899617539 2.081978489 -0.608568289
N -2.890166826 0.106311853 -0.740456830
C -1.048063368 -1.955318518 -0.219315283
H 4.000089850 1.692050662 1.388061607
H -0.387626481 2.923638789 -2.430094141
H -1.322853489 3.593068486 0.734682016
H -3.728433858 -0.020599829 -2.449196702
H -0.594243069 -3.178432150 -1.826643041
H -1.538606412 -3.142082946 1.396809244

