12

O 4.314789040 -1.714186989 1.989161321
N 2.966857713 0.374184575 1.145682632
C 0.784911238 0.250158033 0.227980623
C -1.091183725 2.132227970 -0.766874559
N -2.974269446 0.054287693 -0.814926231
C -1.035997448 -1.882012357 -0.194315870
H 4.903015203 0.653050949 1.938044437
H -0.571282765 2.895742160 -2.618393614
H -1.584969709 3.688054322 0.494801731
H -3.808682212 -0.194833031 -2.511720162
H -0.481708707 -3.128900803 -1.749157921
H -1.476542024 -3.031781995 1.460269573

