10

N 2.890907693 -0.869811191 0.167123826
C 0.391243643 0.061556959 -0.046190443
N -1.364846568 -2.037210480 -0.162411397
N -3.542454458 -1.448957862 0.379197943
N -0.232338085 2.300387403 -1.678846919
C -0.380733157 2.550841405 0.673897917
H 4.187728183 0.487523564 -0.167692048
H 3.166326734 -2.338551386 -1.023311112
H -4.626379669 -3.045607288 0.184404275
H -0.798095725 4.011099696 2.044255852

