15

C -1.758584404 0.378611882 -1.786764057
O -0.252528070 -3.840524342 -0.061372598
C -0.216058926 -1.911326450 1.815901177
C 1.723033704 -2.012375907 -0.123843863
C 1.151483676 0.415297873 -1.611912668
C 0.771960624 2.270837718 0.646380443
C -1.578270101 0.556313658 1.117996142
H -2.482763889 2.124783129 -2.599687140
H -2.671267830 -1.262268076 -2.616376445
H 0.010799161 -2.527019706 3.754465213
H 3.626496721 -2.717689689 0.136360747
H 2.347237984 0.864142409 -3.222303351
H 2.232562619 2.318995820 2.104253768
H 0.281641229 4.184327621 0.057728487
H -3.162973207 1.148401967 2.285409226

