15

O 0.151903764 -1.808088293 -2.802613490
C -0.327686447 -1.527128367 -0.350092004
C 1.725241075 -1.659622319 1.392800738
C 2.995047514 1.075493650 0.571740872
O 4.229854147 1.146935766 -1.318568120
C -2.816240721 -0.374909833 0.292906586
C -1.713141838 2.232526091 0.382758641
H 1.933675939 -1.448926417 -3.123674652
H 1.168872274 -1.599726883 3.366538568
H 3.127316248 -3.098191544 0.979696460
H 1.062778779 2.441945804 1.008488308
H -3.525716304 -1.040162669 2.104991064
H -4.214546723 -0.717113421 -1.175673625
H -1.784619047 3.249366572 -1.394549037
H -2.194685289 3.372264703 2.019608192

