13

C 0.763169202 -1.276093105 0.887289079
C -1.827944364 -1.782890666 -0.278860157
O -3.739786614 -0.142347986 0.581897054
C -0.081953095 5.134356873 -0.315519804
N 0.969322676 3.204220410 -0.335478997
C 2.261447291 0.836137896 -0.375908516
H 0.517307160 -0.866267463 2.895643252
H 1.914454400 -2.986238045 0.745236476
H -1.689069657 -1.752512997 -2.352107091
H -2.443680195 -3.675830704 0.257692314
H -3.375601468 1.550584215 0.042302275
H 4.079546181 1.099770035 0.559605901
H 2.633110745 0.373157509 -2.353008603

