13

C 1.056419265 -1.368188246 0.976806482
C -1.506860280 -1.860509636 -0.197151404
O -3.066031126 0.337809559 -0.053841963
C -1.874559013 2.573533557 -0.345783957
N 0.452340511 3.025550207 -0.525856923
C 2.216469787 0.927735719 -0.311668467
H 0.820753561 -1.001105734 2.996408967
H 2.257082477 -3.034555130 0.780404771
H -1.310268991 -2.384574097 -2.189893510
H -2.546266775 -3.352080727 0.768643512
H -3.246606004 4.100992815 -0.410480772
H 3.870204948 1.598476130 0.722772527
H 2.877321658 0.436915546 -2.210359263

