13

C 0.974258149 -1.296888728 0.937566546
C -1.716866810 -1.642533186 -0.111023337
O -3.306201805 0.290950436 0.691446102
C -1.472830904 3.286725778 -0.627199761
N 0.732174803 3.030680549 -0.852304692
C 2.385513480 0.885590139 -0.295638185
H 0.805987902 -0.978355548 2.969593035
H 2.085901220 -3.015642373 0.659729506
H -1.633961104 -1.784764273 -2.193258168
H -2.460727830 -3.454304971 0.565921971
H -3.530818394 2.721002077 -0.529204611
H 3.922191956 1.598035294 0.875081599
H 3.205896711 0.337625537 -2.107252650

