14

C 3.213954314 -1.256657952 0.396113675
C 1.244102063 0.818575273 0.113249907
C -1.051725582 0.164535373 -1.472830432
C -2.495040419 -1.179069709 0.664545133
O -3.934128184 1.047879176 1.087971077
C -2.471642113 2.322120236 -0.447215064
H 2.340109087 -3.054525642 0.922900401
H 4.593667754 -0.777876544 1.853157845
H 4.245298198 -1.554338174 -1.375206500
H 2.129779924 2.621650482 -0.355984566
H -1.063216326 -0.446051654 -3.438287368
H -0.369574778 -0.213597917 1.969129128
H -3.592124020 -2.914809686 0.634016551
H -2.396782389 4.362139586 -0.467599237

