14

O -2.132781149 -1.305147606 2.493494018
C -1.785801222 -0.209658122 0.089947505
C -0.695575381 2.426648698 0.275134713
O 1.802823573 2.352873828 1.349336168
C 3.479728571 0.556894314 0.771281910
N 2.585398600 -1.286363407 -0.692826434
C 0.000254754 -1.742790961 -1.553613597
H -0.624317928 -1.060966739 3.478165106
H -3.652765539 -0.141130586 -0.782850209
H -0.594680541 3.314703702 -1.587667142
H -1.809487730 3.614071922 1.532735695
H 3.867804013 -2.631222833 -1.081349382
H -0.209161142 -1.206904184 -3.538806380
H -0.431708273 -3.749368508 -1.368547029

