11

N 4.793432706 0.321360060 0.722864368
C 2.782409786 1.090899642 -0.083738583
C 0.647040638 2.142972896 -0.794403938
C -1.891755766 1.116940238 -0.480697325
C -2.492519279 -1.163060970 0.387146623
O -0.690718841 -2.855291061 1.093912962
H 5.771572201 -0.850070828 -0.442980546
H 0.845344491 3.955606736 -1.726185163
H -3.440810682 2.335393654 -1.020688701
H -4.443380424 -1.767508276 0.555986263
H -1.466282909 -4.367901418 1.710194111

