16

C 3.991257440 0.346895022 -0.230165788
C 1.876593208 1.242737322 1.390094102
C -0.967596146 -0.017992196 -1.245732349
C -3.751833921 -0.565324288 -1.051397299
O -3.533611353 -2.042632312 1.154254827
C -1.201403267 -0.810461866 2.027898099
H 3.974196123 0.855046383 -2.242644724
H 5.623089465 1.306077710 0.625260013
H 4.337109087 -1.679983230 -0.042466587
H 1.331306291 3.186638777 0.924119860
H -0.428171783 1.739436357 -2.151356685
H 0.040040462 -1.598379848 -2.082745756
H -4.556488696 -1.623610867 -2.631743207
H -4.889163945 1.143027851 -0.733710186
H -1.760292376 0.645185078 3.359733476
H -0.042564664 -2.266690430 2.877230668

