12

C -3.190611264 0.742148191 -0.436034197
O -1.082371894 2.147556804 -1.382231065
C 0.283268926 -0.206831942 -1.334333765
C 2.688953531 -0.194669494 0.229933428
O 2.232420757 0.128614080 2.831958745
C -1.887593002 -1.736134136 -0.357037654
H -4.909617792 0.858317782 -1.583406074
H -3.677413237 1.277998837 1.518097366
H 0.711927124 -0.865044054 -3.265800387
H 3.723350476 -1.946349651 -0.157911638
H 3.851337695 1.398082636 -0.372108617
H 1.571636236 -1.425164736 3.495928796

