12

C 3.310499231 0.251977102 1.505249817
N 1.245760846 1.722430145 0.497797363
C -0.629914125 0.503118680 -0.384545887
N -0.946358629 -2.052126920 -0.567751282
C -2.774843341 2.031604116 -1.399684255
O -4.747216071 0.745835860 -2.114533840
H 4.104153080 -1.028406607 0.077940677
H 4.805488667 1.509953723 2.147356626
H 2.715602222 -0.905130248 3.124057340
H -2.680237925 -2.664219530 -1.060076508
H 0.117091588 -3.222323798 0.476378715
H -4.780975952 2.932502908 -2.299250241

