11

O 4.613816071 -0.431204227 -0.746359767
C 2.147073261 0.045571728 -0.166505942
C 0.323780307 -1.576139983 -0.751811703
N -2.230048528 -1.001576181 -0.475222997
C -2.904152481 1.254997317 0.619416073
C -1.588061603 3.261334113 1.286011143
H 5.682572186 0.565321699 0.320809885
H 0.744354673 -3.389000741 -1.596606548
H -3.434467949 -2.452431195 -0.277443429
H -4.904931498 1.619926090 0.984993381
H 1.752349404 1.876676167 0.723084955

