13

C -3.193683298 0.306243158 -0.367036441
C -1.267524538 -1.424765210 0.136675595
C 0.819493680 -1.755248338 -1.537715463
C 2.485188577 -0.103671868 -0.448903042
O 4.600569809 0.823550846 -1.445631301
N 1.566012506 0.922331858 1.757822334
N -0.207634093 -0.992871611 2.521135930
H -0.755025201 1.981593251 0.432915090
H -4.555596916 0.777581501 1.094937136
H -3.863786569 0.551504607 -2.288169228
H 0.790704099 -2.410613295 -3.463067158
H 5.387530474 1.864612893 -0.176585420
H -1.440985221 -0.176791098 3.733045319

