13

C 3.231511986 1.043016061 -0.794078716
C 0.780679159 0.293543952 0.361667483
O 0.670519370 -0.115969091 2.946115909
N 0.133828911 -2.229588833 1.232276630
C -2.574668678 -1.701392523 0.559669169
C -1.880472438 0.891597749 -0.560128354
H 3.571747632 3.053944495 -0.479305353
H 4.759563390 -0.034519608 0.066565111
H 3.211149545 0.697343673 -2.826016652
H -3.801159798 -1.741769885 2.209778040
H -3.197342809 -3.088081981 -0.828129199
H -2.732960906 2.577300840 0.255689922
H -2.040573777 0.948168363 -2.611886796

