12

C -3.579920055 -0.475305238 0.096924941
C -0.774060847 -0.250971616 -0.003459541
C 0.691201780 1.854719005 0.251875227
N 3.143597184 1.036440910 0.010702974
C 3.054549642 -1.489811265 -0.374832128
N 0.735756533 -2.328030751 -0.395146362
H -4.462440826 1.359767248 0.413121022
H -4.153836739 -1.746415021 1.616597715
H -4.312374102 -1.253276608 -1.667486036
H 0.221559182 3.807915606 0.578650410
H 4.703819758 2.107950450 0.100115290
H 4.732148491 -2.622982720 -0.627063511

