12

C -3.717910389 -0.807560948 0.025337316
C -1.092221770 0.136233644 -0.117747606
C 0.518122728 2.087834391 -0.639574330
N 2.943564137 1.197428587 -0.216431599
C 2.837765646 -1.216477537 0.540345283
N 0.433356965 -1.850123077 0.607321259
H -1.346429864 -3.079550586 0.925046638
H -4.613072407 -0.912061253 -1.832709232
H -4.909942787 0.309774810 1.285859757
H 0.183600669 3.991642396 -1.268177061
H 4.547420808 2.193592271 -0.425779825
H 4.448006814 -2.370088817 1.003760799

