12

O 4.193056625 0.357633466 -0.740433114
C 2.085940791 0.101310485 -1.532353743
C -0.245506869 0.039259684 0.073265305
H 0.256157422 0.247585756 2.055224654
C -2.406871580 1.728271194 -0.904160667
H -3.335780176 2.844972816 0.564139316
H -1.953738688 2.952365555 -2.507540126
O -3.886900848 -0.410504979 -1.646597911
C -2.082085240 -2.122643505 -0.584932615
H -2.832245378 -3.123305059 1.058676183
H -1.411445740 -3.498519951 -1.974969478
H 1.732285085 -0.110752710 -3.594938049

