19

C 5.726642734 0.636406884 -1.205957394
C 2.955551728 1.134885852 -1.793273596
C 1.095889842 0.071292337 -0.039861845
C -1.297322968 1.452056049 -0.052564149
C -3.626983193 0.108739414 0.913938242
C -4.002332463 -2.642193751 0.350747568
C -3.430791600 -1.796582752 2.992905812
H 6.940366600 1.160749797 -2.789517367
H 6.020009279 -1.355542123 -0.770200042
H 6.322467107 1.732283668 0.436282261
H 2.611933831 3.108466041 -2.368503224
H 2.385707196 -0.014338769 -3.454931887
H -1.550868165 -2.192964410 3.695828788
H -1.693245177 2.498673758 -1.810217901
H -0.727947996 2.933239694 1.326631902
H -5.317969769 1.266249049 0.904680814
H -5.887232152 -3.304131100 -0.085729996
H -2.491250838 -3.594137957 -0.651872554
H -4.929884859 -1.866341633 4.381778112

