11

N 5.442330056 -0.742781571 1.685674442
C 3.608222861 -0.900847845 0.535341610
C 1.291092579 -1.279602043 -0.880507570
C -0.364288533 1.729003198 0.840544473
C -2.832345118 1.208784688 -0.256872910
O -1.713861503 -1.151075571 0.368871346
H 1.041268461 -3.319099432 -1.127763607
H 1.343443152 -0.323635876 -2.689449471
H -0.434837830 1.937810829 2.895922913
H -4.481814298 1.454130439 0.940965143
H -3.185234994 1.511755426 -2.261726441

