11

C -2.359579389 -0.325404697 0.197675160
C -0.007935338 -0.106778143 1.387276010
C 1.393221297 2.175323306 0.924420950
N 2.737221086 1.730183918 -1.081094723
N 2.414599313 -0.755676041 -1.756573679
N 1.635054765 -1.941137314 0.504305069
H -0.420161744 -0.370477216 -2.133213159
H -3.201190121 -2.180906030 -0.060837975
H -3.697628714 1.225472595 0.273786960
H 1.146995463 4.045858695 1.696681360
H 0.849815659 -3.633707991 0.099333624

