15

C -5.229352725 0.457741254 -0.952595576
O -4.187736214 -1.875132204 -0.012349190
C -1.883136291 -2.023208328 0.860923809
O -0.791781017 0.220845470 0.718636578
C 1.770243466 0.294495713 1.574022091
C 3.533822794 -0.099388086 -0.642588613
O 6.011813234 0.238290704 0.284473550
H -4.164802139 1.118719359 -2.585624781
H -7.160415891 0.012497609 -1.489583988
H -5.206493502 1.903474411 0.511634240
H 2.061001395 2.156008491 2.405496843
H 2.057537962 -1.160812743 3.002214527
H 3.243450029 -2.007159640 -1.398633321
H 3.081985630 1.269974776 -2.133146188
H 7.194468925 -0.185647035 -1.017192027

