9

O -3.841062933 -0.897037080 -1.257210980
C -1.513241148 -0.462969238 -0.546276850
N 0.289720186 -2.325126677 0.012121781
N 2.337563173 -1.063285566 0.401726842
N 2.253247712 1.444042098 0.185418491
C -0.082877605 1.900158528 -0.467310506
H -2.542181640 -0.464160294 1.390323950
H 3.921605291 -1.915693267 1.026736864
H -0.794463067 3.789610283 -0.735863643

