11

O 3.315216177 1.327793744 -1.666532670
C 2.902777119 0.856751350 0.503291798
C 0.327035096 0.927743542 1.732414229
N -1.496246085 -2.640591131 -1.277045243
C -2.367568962 -0.439316783 -1.469132313
O -1.634975906 1.474137045 0.021069123
H 4.447075746 0.352551407 1.832330361
H 0.014675462 -0.873169518 2.698565396
H 0.326230904 2.441351788 3.138249939
H -2.298901738 -3.811077458 -2.559934351
H -3.799338990 0.226198290 -2.792139305

