11

O 3.934826117 -0.785641655 -1.386385118
C 3.149059286 0.157772384 0.494708908
C 0.504475938 0.732457449 1.365150133
N -1.001690094 -1.228196730 -1.696761050
C -3.083296004 -0.112170250 -1.190688898
O -3.024339913 1.404186678 0.647545573
H 4.472133231 0.786102843 2.016710089
H 0.043498226 -0.466198610 2.968848559
H 0.477014741 2.711100366 1.941352932
H -0.822966430 -2.426855926 -3.172472558
H -4.850622886 -0.396880866 -2.218368093

