28

C    -1.85665   2.74993  -0.20324
C    -1.77728   1.37415   0.42737
C    -2.51382   0.36763   0.11692
C    -2.48964  -0.99484   0.76999
N    -1.18667  -0.51094  -1.98012
N    -0.46504   0.51732  -1.86043
N     0.41957   0.93930  -1.01956
C     1.00097   0.03721  -0.11921
C     1.38733  -1.24918  -0.54310
C     2.17575  -2.05916   0.26762
C     2.59052  -1.62088   1.52903
C     2.21730  -0.34214   1.95980
C     1.43812   0.48527   1.14842
H    -2.74166   3.20850   0.24376
H    -0.98896   3.40034  -0.00800
H    -2.01476   2.71575  -1.29497
H    -1.01068   1.25506   1.23381
H    -3.24783   0.48867  -0.72606
H    -3.26597  -0.93678   1.52772
H    -1.52516  -1.18891   1.26050
H    -2.72107  -1.85164   0.11306
H    -0.98908  -1.13460  -1.12857
H    -0.65784   1.20612  -2.59569
H     1.09494  -1.58296  -1.53775
H     2.46861  -3.03435  -0.10891
H     3.20366  -2.26972   2.15596
H     2.55220   0.01567   2.94141
H     1.17674   1.48910   1.49980
28

C    -1.85511   2.74845  -0.20341
C    -1.75770   1.37163   0.41551
C    -2.50106   0.35844   0.09698
C    -2.48835  -0.99341   0.76732
N    -1.20301  -0.50477  -1.96130
N    -0.46156   0.51370  -1.86500
N     0.40316   0.94185  -1.00534
C     0.99957   0.03913  -0.11728
C     1.38679  -1.24659  -0.54352
C     2.17545  -2.05776   0.26679
C     2.59058  -1.62102   1.52853
C     2.21791  -0.34238   1.96033
C     1.43850   0.48537   1.15012
H    -2.74239   3.20411   0.24505
H    -0.99036   3.40186  -0.00699
H    -2.01476   2.71656  -1.29495
H    -1.01218   1.25510   1.23479
H    -3.24863   0.49051  -0.72400
H    -3.26502  -0.93204   1.52694
H    -1.52496  -1.18932   1.25966
H    -2.72301  -1.85216   0.11462
H    -0.98903  -1.13759  -1.13125
H    -0.66043   1.20686  -2.59336
H     1.09451  -1.58185  -1.53792
H     2.46833  -3.03393  -0.10937
H     3.20364  -2.26997   2.15564
H     2.55253   0.01542   2.94158
H     1.17668   1.48895   1.50071
28

C    -1.85357   2.74696  -0.20359
C    -1.73811   1.36910   0.40365
C    -2.48831   0.34924   0.07705
C    -2.48706  -0.99198   0.76465
N    -1.21935  -0.49861  -1.94247
N    -0.45807   0.51008  -1.86956
N     0.38676   0.94440  -0.99111
C     0.99816   0.04105  -0.11535
C     1.38625  -1.24401  -0.54393
C     2.17515  -2.05637   0.26595
C     2.59064  -1.62117   1.52802
C     2.21852  -0.34262   1.96086
C     1.43887   0.48547   1.15182
H    -2.74313   3.19973   0.24634
H    -0.99177   3.40337  -0.00598
H    -2.01475   2.71738  -1.29492
H    -1.01367   1.25513   1.23576
H    -3.24943   0.49234  -0.72194
H    -3.26407  -0.92730   1.52617
H    -1.52476  -1.18974   1.25883
H    -2.72495  -1.85269   0.11618
H    -0.98897  -1.14059  -1.13393
H    -0.66302   1.20761  -2.59103
H     1.09408  -1.58074  -1.53808
H     2.46805  -3.03351  -0.10983
H     3.20362  -2.27022   2.15533
H     2.55286   0.01517   2.94175
H     1.17662   1.48880   1.50162
28

C    -1.85203   2.74548  -0.20376
C    -1.71852   1.36658   0.39178
C    -2.47555   0.34005   0.05711
C    -2.48577  -0.99055   0.76198
N    -1.23568  -0.49244  -1.92364
N    -0.45459   0.50646  -1.87413
N     0.37035   0.94696  -0.97688
C     0.99676   0.04297  -0.11341
C     1.38571  -1.24142  -0.54434
C     2.17485  -2.05497   0.26512
C     2.59071  -1.62132   1.52751
C     2.21913  -0.34286   1.96139
C     1.43925   0.48557   1.15352
H    -2.74386   3.19534   0.24762
H    -0.99317   3.40489  -0.00497
H    -2.01474   2.71820  -1.29489
H    -1.01517   1.25517   1.23674
H    -3.25023   0.49418  -0.71987
H    -3.26311  -0.92256   1.52539
H    -1.52456  -1.19016   1.25799
H    -2.72689  -1.85321   0.11774
H    -0.98892  -1.14359  -1.13662
H    -0.66561   1.20836  -2.58869
H     1.09365  -1.57962  -1.53824
H     2.46777  -3.03310  -0.11028
H     3.20359  -2.27046   2.15501
H     2.55319   0.01492   2.94192
H     1.17656   1.48865   1.50253
28

C    -1.85049   2.74399  -0.20394
C    -1.69894   1.36406   0.37992
C    -2.46279   0.33085   0.03718
C    -2.48448  -0.98912   0.75931
N    -1.25202  -0.48628  -1.90482
N    -0.45111   0.50283  -1.87870
N     0.35394   0.94951  -0.96265
C     0.99535   0.04489  -0.11148
C     1.38517  -1.23883  -0.54476
C     2.17455  -2.05358   0.26428
C     2.59077  -1.62146   1.52700
C     2.21974  -0.34311   1.96192
C     1.43962   0.48567   1.15521
H    -2.74459   3.19095   0.24891
H    -0.99458   3.40640  -0.00396
H    -2.01474   2.71901  -1.29487
H    -1.01666   1.25521   1.23772
H    -3.25103   0.49602  -0.71781
H    -3.26216  -0.91782   1.52461
H    -1.52435  -1.19057   1.25715
H    -2.72883  -1.85373   0.11930
H    -0.98887  -1.14659  -1.13930
H    -0.66820   1.20910  -2.58636
H     1.09321  -1.57851  -1.53840
H     2.46749  -3.03268  -0.11074
H     3.20357  -2.27071   2.15470
H     2.55352   0.01467   2.94209
H     1.17650   1.48850   1.50343
28

C    -1.84896   2.74251  -0.20412
C    -1.67935   1.36154   0.36806
C    -2.45003   0.32166   0.01725
C    -2.48319  -0.98769   0.75664
N    -1.26836  -0.48011  -1.88599
N    -0.44763   0.49921  -1.88327
N     0.33754   0.95207  -0.94843
C     0.99394   0.04681  -0.10955
C     1.38463  -1.23625  -0.54517
C     2.17424  -2.05218   0.26345
C     2.59083  -1.62161   1.52650
C     2.22035  -0.34335   1.96245
C     1.44000   0.48577   1.15691
H    -2.74532   3.18657   0.25019
H    -0.99599   3.40792  -0.00296
H    -2.01473   2.71983  -1.29484
H    -1.01816   1.25525   1.23869
H    -3.25183   0.49786  -0.71575
H    -3.26120  -0.91308   1.52384
H    -1.52415  -1.19099   1.25632
H    -2.73077  -1.85426   0.12086
H    -0.98882  -1.14959  -1.14198
H    -0.67080   1.20985  -2.58403
H     1.09278  -1.57740  -1.53856
H     2.46721  -3.03227  -0.11119
H     3.20355  -2.27096   2.15438
H     2.55385   0.01442   2.94226
H     1.17644   1.48835   1.50434
28

C    -1.84742   2.74102  -0.20429
C    -1.65976   1.35902   0.35619
C    -2.43727   0.31246  -0.00269
C    -2.48190  -0.98626   0.75397
N    -1.28469  -0.47394  -1.86716
N    -0.44415   0.49559  -1.88784
N     0.32113   0.95462  -0.93420
C     0.99254   0.04873  -0.10761
C     1.38409  -1.23366  -0.54558
C     2.17394  -2.05079   0.26261
C     2.59089  -1.62176   1.52599
C     2.22096  -0.34359   1.96298
C     1.44038   0.48587   1.15861
H    -2.74605   3.18218   0.25148
H    -0.99739   3.40944  -0.00195
H    -2.01473   2.72064  -1.29481
H    -1.01965   1.25529   1.23967
H    -3.25263   0.49969  -0.71369
H    -3.26025  -0.90834   1.52306
H    -1.52395  -1.19140   1.25548
H    -2.73270  -1.85478   0.12242
H    -0.98876  -1.15258  -1.14466
H    -0.67339   1.21059  -2.58169
H     1.09235  -1.57628  -1.53872
H     2.46693  -3.03185  -0.11165
H     3.20353  -2.27121   2.15407
H     2.55418   0.01417   2.94243
H     1.17638   1.48820   1.50525
28

C    -1.84588   2.73954  -0.20447
C    -1.64018   1.35650   0.34433
C    -2.42451   0.30327  -0.02262
C    -2.48061  -0.98483   0.75130
N    -1.30103  -0.46778  -1.84834
N    -0.44067   0.49197  -1.89241
N     0.30472   0.95718  -0.91997
C     0.99113   0.05065  -0.10568
C     1.38355  -1.23107  -0.54600
C     2.17364  -2.04939   0.26178
C     2.59096  -1.62190   1.52548
C     2.22157  -0.34383   1.96351
C     1.44075   0.48597   1.16031
H    -2.74679   3.17779   0.25277
H    -0.99880   3.41095  -0.00094
H    -2.01472   2.72146  -1.29478
H    -1.02115   1.25533   1.24064
H    -3.25343   0.50153  -0.71163
H    -3.25929  -0.90360   1.52228
H    -1.52374  -1.19182   1.25464
H    -2.73464  -1.85530   0.12398
H    -0.98871  -1.15558  -1.14734
H    -0.67598   1.21134  -2.57936
H     1.09192  -1.57517  -1.53889
H     2.46665  -3.03144  -0.11210
H     3.20350  -2.27146   2.15375
H     2.55451   0.01392   2.94260
H     1.17632   1.48805   1.50616
28

C    -1.84434   2.73805  -0.20464
C    -1.62059   1.35398   0.33247
C    -2.41175   0.29408  -0.04256
C    -2.47932  -0.98340   0.74863
N    -1.31737  -0.46161  -1.82951
N    -0.43718   0.48835  -1.89698
N     0.28832   0.95973  -0.90575
C     0.98973   0.05257  -0.10375
C     1.38301  -1.22849  -0.54641
C     2.17334  -2.04800   0.26094
C     2.59102  -1.62205   1.52497
C     2.22219  -0.34407   1.96404
C     1.44113   0.48607   1.16201
H    -2.74752   3.17341   0.25405
H    -1.00020   3.41247   0.00007
H    -2.01472   2.72227  -1.29476
H    -1.02264   1.25537   1.24162
H    -3.25423   0.50337  -0.70957
H    -3.25834  -0.89886   1.52150
H    -1.52354  -1.19223   1.25380
H    -2.73658  -1.85583   0.12555
H    -0.98866  -1.15858  -1.15002
H    -0.67857   1.21209  -2.57703
H     1.09149  -1.57406  -1.53905
H     2.46637  -3.03102  -0.11256
H     3.20348  -2.27171   2.15344
H     2.55485   0.01367   2.94277
H     1.17626   1.48790   1.50707
28

C    -1.84280   2.73656  -0.20482
C    -1.60101   1.35145   0.32061
C    -2.39899   0.28488  -0.06249
C    -2.47803  -0.98197   0.74596
N    -1.33371  -0.45545  -1.81068
N    -0.43370   0.48472  -1.90155
N     0.27191   0.96229  -0.89152
C     0.98832   0.05449  -0.10181
C     1.38247  -1.22590  -0.54683
C     2.17304  -2.04660   0.26010
C     2.59108  -1.62220   1.52446
C     2.22280  -0.34432   1.96457
C     1.44150   0.48617   1.16370
H    -2.74825   3.16902   0.25534
H    -1.00161   3.41398   0.00108
H    -2.01471   2.72309  -1.29473
H    -1.02414   1.25541   1.24259
H    -3.25503   0.50521  -0.70751
H    -3.25739  -0.89411   1.52073
H    -1.52334  -1.19265   1.25297
H    -2.73852  -1.85635   0.12711
H    -0.98860  -1.16158  -1.15270
H    -0.68116   1.21283  -2.57470
H     1.09106  -1.57294  -1.53921
H     2.46609  -3.03061  -0.11301
H     3.20346  -2.27195   2.15312
H     2.55518   0.01342   2.94294
H     1.17620   1.48775   1.50798
28

C    -1.84126   2.73508  -0.20500
C    -1.58142   1.34893   0.30874
C    -2.38624   0.27569  -0.08243
C    -2.47674  -0.98054   0.74329
N    -1.35004  -0.44928  -1.79185
N    -0.43022   0.48110  -1.90611
N     0.25550   0.96484  -0.87729
C     0.98692   0.05641  -0.09988
C     1.38193  -1.22331  -0.54724
C     2.17274  -2.04521   0.25927
C     2.59115  -1.62234   1.52396
C     2.22341  -0.34456   1.96510
C     1.44188   0.48627   1.16540
H    -2.74898   3.16464   0.25663
H    -1.00302   3.41550   0.00208
H    -2.01470   2.72391  -1.29470
H    -1.02564   1.25545   1.24357
H    -3.25583   0.50705  -0.70545
H    -3.25643  -0.88937   1.51995
H    -1.52314  -1.19306   1.25213
H    -2.74046  -1.85687   0.12867
H    -0.98855  -1.16457  -1.15539
H    -0.68375   1.21358  -2.57236
H     1.09063  -1.57183  -1.53937
H     2.46580  -3.03019  -0.11347
H     3.20344  -2.27220   2.15281
H     2.55551   0.01317   2.94311
H     1.17614   1.48760   1.50889
28

C    -1.83972   2.73359  -0.20517
C    -1.56183   1.34641   0.29688
C    -2.37348   0.26649  -0.10236
C    -2.47545  -0.97911   0.74062
N    -1.36638  -0.44311  -1.77303
N    -0.42674   0.47748  -1.91068
N     0.23910   0.96740  -0.86306
C     0.98551   0.05833  -0.09795
C     1.38139  -1.22073  -0.54765
C     2.17244  -2.04381   0.25843
C     2.59121  -1.62249   1.52345
C     2.22402  -0.34480   1.96563
C     1.44225   0.48637   1.16710
H    -2.74971   3.16025   0.25791
H    -1.00442   3.41702   0.00309
H    -2.01470   2.72472  -1.29468
H    -1.02713   1.25549   1.24454
H    -3.25663   0.50888  -0.70338
H    -3.25548  -0.88463   1.51917
H    -1.52293  -1.19348   1.25129
H    -2.74240  -1.85740   0.13023
H    -0.98850  -1.16757  -1.15807
H    -0.68634   1.21433  -2.57003
H     1.09020  -1.57072  -1.53953
H     2.46552  -3.02977  -0.11392
H     3.20341  -2.27245   2.15249
H     2.55584   0.01292   2.94328
H     1.17608   1.48745   1.50979
28

C    -1.83819   2.73211  -0.20535
C    -1.54225   1.34389   0.28502
C    -2.36072   0.25730  -0.12229
C    -2.47416  -0.97768   0.73795
N    -1.38272  -0.43695  -1.75420
N    -0.42326   0.47386  -1.91525
N     0.22269   0.96995  -0.84884
C     0.98411   0.06026  -0.09601
C     1.38085  -1.21814  -0.54807
C     2.17214  -2.04242   0.25760
C     2.59127  -1.62264   1.52294
C     2.22463  -0.34504   1.96616
C     1.44263   0.48647   1.16880
H    -2.75045   3.15586   0.25920
H    -1.00583   3.41853   0.00410
H    -2.01469   2.72554  -1.29465
H    -1.02863   1.25552   1.24552
H    -3.25743   0.51072  -0.70132
H    -3.25452  -0.87989   1.51839
H    -1.52273  -1.19390   1.25046
H    -2.74433  -1.85792   0.13179
H    -0.98845  -1.17057  -1.16075
H    -0.68893   1.21507  -2.56770
H     1.08977  -1.56960  -1.53969
H     2.46524  -3.02936  -0.11438
H     3.20339  -2.27270   2.15218
H     2.55617   0.01267   2.94345
H     1.17602   1.48729   1.51070
28

C    -1.83665   2.73062  -0.20552
C    -1.52266   1.34137   0.27316
C    -2.34796   0.24810  -0.14223
C    -2.47287  -0.97625   0.73528
N    -1.39906  -0.43078  -1.73537
N    -0.41978   0.47024  -1.91982
N     0.20628   0.97251  -0.83461
C     0.98270   0.06218  -0.09408
C     1.38031  -1.21555  -0.54848
C     2.17184  -2.04102   0.25676
C     2.59134  -1.62278   1.52243
C     2.22524  -0.34528   1.96669
C     1.44300   0.48657   1.17049
H    -2.75118   3.15148   0.26049
H    -1.00723   3.42005   0.00511
H    -2.01469   2.72635  -1.29462
H    -1.03012   1.25556   1.24650
H    -3.25823   0.51256  -0.69926
H    -3.25357  -0.87515   1.51762
H    -1.52253  -1.19431   1.24962
H    -2.74627  -1.85844   0.13335
H    -0.98839  -1.17357  -1.16343
H    -0.69152   1.21582  -2.56536
H     1.08934  -1.56849  -1.53986
H     2.46496  -3.02894  -0.11484
H     3.20337  -2.27295   2.15186
H     2.55650   0.01242   2.94362
H     1.17596   1.48714   1.51161
28

C    -1.83511   2.72914  -0.20570
C    -1.50307   1.33885   0.26129
C    -2.33520   0.23891  -0.16216
C    -2.47158  -0.97482   0.73261
N    -1.41539  -0.42462  -1.71655
N    -0.41629   0.46661  -1.92439
N     0.18988   0.97506  -0.82038
C     0.98129   0.06410  -0.09215
C     1.37977  -1.21297  -0.54889
C     2.17154  -2.03963   0.25593
C     2.59140  -1.62293   1.52193
C     2.22585  -0.34553   1.96722
C     1.44338   0.48667   1.17219
H    -2.75191   3.14709   0.26177
H    -1.00864   3.42156   0.00612
H    -2.01468   2.72717  -1.29460
H    -1.03162   1.25560   1.24747
H    -3.25903   0.51440  -0.69720
H    -3.25261  -0.87041   1.51684
H    -1.52232  -1.19473   1.24878
H    -2.74821  -1.85897   0.13491
H    -0.98834  -1.17657  -1.16611
H    -0.69411   1.21657  -2.56303
H     1.08891  -1.56738  -1.54002
H     2.46468  -3.02853  -0.11529
H     3.20335  -2.27320   2.15155
H     2.55683   0.01217   2.94379
H     1.17590   1.48699   1.51252
28

C    -1.83357   2.72765  -0.20588
C    -1.48349   1.33632   0.24943
C    -2.32244   0.22972  -0.18210
C    -2.47029  -0.97339   0.72994
N    -1.43173  -0.41845  -1.69772
N    -0.41281   0.46299  -1.92896
N     0.17347   0.97761  -0.80616
C     0.97989   0.06602  -0.09021
C     1.37923  -1.21038  -0.54931
C     2.17124  -2.03823   0.25509
C     2.59146  -1.62308   1.52142
C     2.22646  -0.34577   1.96775
C     1.44376   0.48676   1.17389
H    -2.75264   3.14270   0.26306
H    -1.01004   3.42308   0.00713
H    -2.01467   2.72799  -1.29457
H    -1.03311   1.25564   1.24845
H    -3.25983   0.51623  -0.69514
H    -3.25166  -0.86567   1.51606
H    -1.52212  -1.19514   1.24794
H    -2.75015  -1.85949   0.13647
H    -0.98829  -1.17956  -1.16879
H    -0.69670   1.21731  -2.56070
H     1.08848  -1.56626  -1.54018
H     2.46440  -3.02811  -0.11575
H     3.20332  -2.27344   2.15123
H     2.55716   0.01192   2.94396
H     1.17584   1.48684   1.51343
28

C    -1.83203   2.72617  -0.20605
C    -1.46390   1.33380   0.23757
C    -2.30968   0.22052  -0.20203
C    -2.46900  -0.97197   0.72727
N    -1.44807  -0.41228  -1.67889
N    -0.40933   0.45937  -1.93353
N     0.15706   0.98017  -0.79193
C     0.97848   0.06794  -0.08828
C     1.37869  -1.20779  -0.54972
C     2.17094  -2.03684   0.25426
C     2.59153  -1.62322   1.52091
C     2.22708  -0.34601   1.96828
C     1.44413   0.48686   1.17559
H    -2.75337   3.13832   0.26435
H    -1.01145   3.42460   0.00813
H    -2.01467   2.72880  -1.29454
H    -1.03461   1.25568   1.24942
H    -3.26063   0.51807  -0.69308
H    -3.25071  -0.86093   1.51528
H    -1.52192  -1.19556   1.24711
H    -2.75209  -1.86001   0.13803
H    -0.98824  -1.18256  -1.17147
H    -0.69929   1.21806  -2.55836
H     1.08805  -1.56515  -1.54034
H     2.46412  -3.02770  -0.11620
H     3.20330  -2.27369   2.15092
H     2.55750   0.01167   2.94413
H     1.17578   1.48669   1.51434
28

C    -1.83049   2.72468  -0.20623
C    -1.44432   1.33128   0.22570
C    -2.29692   0.21133  -0.22197
C    -2.46771  -0.97054   0.72460
N    -1.46440  -0.40612  -1.66007
N    -0.40585   0.45575  -1.93810
N     0.14066   0.98272  -0.77770
C     0.97708   0.06986  -0.08635
C     1.37815  -1.20521  -0.55014
C     2.17064  -2.03544   0.25342
C     2.59159  -1.62337   1.52040
C     2.22769  -0.34625   1.96881
C     1.44451   0.48696   1.17728
H    -2.75411   3.13393   0.26563
H    -1.01286   3.42611   0.00914
H    -2.01466   2.72962  -1.29451
H    -1.03610   1.25572   1.25040
H    -3.26143   0.51991  -0.69102
H    -3.24975  -0.85619   1.51451
H    -1.52172  -1.19597   1.24627
H    -2.75403  -1.86054   0.13959
H    -0.98818  -1.18556  -1.17415
H    -0.70188   1.21881  -2.55603
H     1.08762  -1.56404  -1.54050
H     2.46384  -3.02728  -0.11666
H     3.20328  -2.27394   2.15060
H     2.55783   0.01142   2.94430
H     1.17572   1.48654   1.51525
28

C    -1.82895   2.72320  -0.20641
C    -1.42473   1.32876   0.21384
C    -2.28417   0.20213  -0.24190
C    -2.46642  -0.96911   0.72193
N    -1.48074  -0.39995  -1.64124
N    -0.40237   0.45213  -1.94266
N     0.12425   0.98528  -0.76347
C     0.97567   0.07178  -0.08441
C     1.37762  -1.20262  -0.55055
C     2.17034  -2.03405   0.25259
C     2.59165  -1.62352   1.51989
C     2.22830  -0.34649   1.96934
C     1.44488   0.48706   1.17898
H    -2.75484   3.12954   0.26692
H    -1.01426   3.42763   0.01015
H    -2.01466   2.73043  -1.29449
H    -1.03760   1.25576   1.25137
H    -3.26223   0.52175  -0.68895
H    -3.24880  -0.85145   1.51373
H    -1.52151  -1.19639   1.24543
H    -2.75596  -1.86106   0.14115
H    -0.98813  -1.18856  -1.17684
H    -0.70447   1.21955  -2.55370
H     1.08719  -1.56292  -1.54066
H     2.46356  -3.02686  -0.11711
H     3.20326  -2.27419   2.15029
H     2.55816   0.01117   2.94447
H     1.17566   1.48639   1.51615
28

C    -1.82742   2.72171  -0.20658
C    -1.40514   1.32624   0.20198
C    -2.27141   0.19294  -0.26183
C    -2.46513  -0.96768   0.71926
N    -1.49708  -0.39379  -1.62241
N    -0.39889   0.44850  -1.94723
N     0.10784   0.98783  -0.74925
C     0.97427   0.07370  -0.08248
C     1.37708  -1.20003  -0.55096
C     2.17004  -2.03265   0.25175
C     2.59172  -1.62366   1.51939
C     2.22891  -0.34674   1.96987
C     1.44526   0.48716   1.18068
H    -2.75557   3.12516   0.26820
H    -1.01567   3.42915   0.01116
H    -2.01465   2.73125  -1.29446
H    -1.03910   1.25580   1.25235
H    -3.26303   0.52358  -0.68689
H    -3.24784  -0.84671   1.51295
H    -1.52131  -1.19680   1.24460
H    -2.75790  -1.86158   0.14271
H    -0.98808  -1.19155  -1.17952
H    -0.70706   1.22030  -2.55137
H     1.08676  -1.56181  -1.54083
H     2.46328  -3.02645  -0.11757
H     3.20323  -2.27444   2.14997
H     2.55849   0.01092   2.94464
H     1.17560   1.48624   1.51706
28

C    -1.82588   2.72023  -0.20676
C    -1.38556   1.32372   0.19012
C    -2.25865   0.18374  -0.28177
C    -2.46383  -0.96625   0.71659
N    -1.51342  -0.38762  -1.60359
N    -0.39540   0.44488  -1.95180
N     0.09143   0.99039  -0.73502
C     0.97286   0.07562  -0.08055
C     1.37654  -1.19744  -0.55138
C     2.16974  -2.03126   0.25092
C     2.59178  -1.62381   1.51888
C     2.22952  -0.34698   1.97040
C     1.44563   0.48726   1.18238
H    -2.75630   3.12077   0.26949
H    -1.01707   3.43066   0.01217
H    -2.01464   2.73206  -1.29443
H    -1.04059   1.25584   1.25332
H    -3.26383   0.52542  -0.68483
H    -3.24689  -0.84197   1.51218
H    -1.52111  -1.19722   1.24376
H    -2.75984  -1.86211   0.14427
H    -0.98802  -1.19455  -1.18220
H    -0.70965   1.22104  -2.54903
H     1.08633  -1.56070  -1.54099
H     2.46299  -3.02603  -0.11802
H     3.20321  -2.27468   2.14966
H     2.55882   0.01067   2.94481
H     1.17554   1.48609   1.51797
28

C    -1.82742   2.72171  -0.20658
C    -1.40514   1.32624   0.20198
C    -2.27141   0.19294  -0.26183
C    -2.46513  -0.96768   0.71926
N    -1.49708  -0.39379  -1.62241
N    -0.39889   0.44850  -1.94723
N     0.10784   0.98783  -0.74925
C     0.97427   0.07370  -0.08248
C     1.37708  -1.20003  -0.55096
C     2.17004  -2.03265   0.25175
C     2.59172  -1.62366   1.51939
C     2.22891  -0.34674   1.96987
C     1.44526   0.48716   1.18068
H    -2.75557   3.12516   0.26820
H    -1.01567   3.42915   0.01116
H    -2.01465   2.73125  -1.29446
H    -1.03910   1.25580   1.25235
H    -3.26303   0.52358  -0.68689
H    -3.24784  -0.84671   1.51295
H    -1.52131  -1.19680   1.24460
H    -2.75790  -1.86158   0.14271
H    -0.98808  -1.19155  -1.17952
H    -0.70706   1.22030  -2.55137
H     1.08676  -1.56181  -1.54083
H     2.46328  -3.02645  -0.11757
H     3.20323  -2.27444   2.14997
H     2.55849   0.01092   2.94464
H     1.17560   1.48624   1.51706
28

C    -1.82895   2.72320  -0.20641
C    -1.42473   1.32876   0.21384
C    -2.28417   0.20213  -0.24190
C    -2.46642  -0.96911   0.72193
N    -1.48074  -0.39995  -1.64124
N    -0.40237   0.45213  -1.94266
N     0.12425   0.98528  -0.76347
C     0.97567   0.07178  -0.08441
C     1.37762  -1.20262  -0.55055
C     2.17034  -2.03405   0.25259
C     2.59165  -1.62352   1.51989
C     2.22830  -0.34649   1.96934
C     1.44488   0.48706   1.17898
H    -2.75484   3.12954   0.26692
H    -1.01426   3.42763   0.01015
H    -2.01466   2.73043  -1.29449
H    -1.03760   1.25576   1.25137
H    -3.26223   0.52175  -0.68895
H    -3.24880  -0.85145   1.51373
H    -1.52151  -1.19639   1.24543
H    -2.75596  -1.86106   0.14115
H    -0.98813  -1.18856  -1.17684
H    -0.70447   1.21955  -2.55370
H     1.08719  -1.56292  -1.54066
H     2.46356  -3.02686  -0.11711
H     3.20326  -2.27419   2.15029
H     2.55816   0.01117   2.94447
H     1.17566   1.48639   1.51615
28

C    -1.83049   2.72468  -0.20623
C    -1.44432   1.33128   0.22570
C    -2.29692   0.21133  -0.22197
C    -2.46771  -0.97054   0.72460
N    -1.46440  -0.40612  -1.66007
N    -0.40585   0.45575  -1.93810
N     0.14066   0.98272  -0.77770
C     0.97708   0.06986  -0.08635
C     1.37815  -1.20521  -0.55014
C     2.17064  -2.03544   0.25342
C     2.59159  -1.62337   1.52040
C     2.22769  -0.34625   1.96881
C     1.44451   0.48696   1.17728
H    -2.75411   3.13393   0.26563
H    -1.01286   3.42611   0.00914
H    -2.01466   2.72962  -1.29451
H    -1.03610   1.25572   1.25040
H    -3.26143   0.51991  -0.69102
H    -3.24975  -0.85619   1.51451
H    -1.52172  -1.19597   1.24627
H    -2.75403  -1.86054   0.13959
H    -0.98818  -1.18556  -1.17415
H    -0.70188   1.21881  -2.55603
H     1.08762  -1.56404  -1.54050
H     2.46384  -3.02728  -0.11666
H     3.20328  -2.27394   2.15060
H     2.55783   0.01142   2.94430
H     1.17572   1.48654   1.51525
28

C    -1.83203   2.72617  -0.20605
C    -1.46390   1.33380   0.23757
C    -2.30968   0.22052  -0.20203
C    -2.46900  -0.97197   0.72727
N    -1.44807  -0.41228  -1.67889
N    -0.40933   0.45937  -1.93353
N     0.15706   0.98017  -0.79193
C     0.97848   0.06794  -0.08828
C     1.37869  -1.20779  -0.54972
C     2.17094  -2.03684   0.25426
C     2.59153  -1.62322   1.52091
C     2.22708  -0.34601   1.96828
C     1.44413   0.48686   1.17559
H    -2.75337   3.13832   0.26435
H    -1.01145   3.42460   0.00813
H    -2.01467   2.72880  -1.29454
H    -1.03461   1.25568   1.24942
H    -3.26063   0.51807  -0.69308
H    -3.25071  -0.86093   1.51528
H    -1.52192  -1.19556   1.24711
H    -2.75209  -1.86001   0.13803
H    -0.98824  -1.18256  -1.17147
H    -0.69929   1.21806  -2.55836
H     1.08805  -1.56515  -1.54034
H     2.46412  -3.02770  -0.11620
H     3.20330  -2.27369   2.15092
H     2.55750   0.01167   2.94413
H     1.17578   1.48669   1.51434
28

C    -1.83357   2.72765  -0.20588
C    -1.48349   1.33632   0.24943
C    -2.32244   0.22972  -0.18210
C    -2.47029  -0.97339   0.72994
N    -1.43173  -0.41845  -1.69772
N    -0.41281   0.46299  -1.92896
N     0.17347   0.97761  -0.80616
C     0.97989   0.06602  -0.09021
C     1.37923  -1.21038  -0.54931
C     2.17124  -2.03823   0.25509
C     2.59146  -1.62308   1.52142
C     2.22646  -0.34577   1.96775
C     1.44376   0.48676   1.17389
H    -2.75264   3.14270   0.26306
H    -1.01004   3.42308   0.00713
H    -2.01467   2.72799  -1.29457
H    -1.03311   1.25564   1.24845
H    -3.25983   0.51623  -0.69514
H    -3.25166  -0.86567   1.51606
H    -1.52212  -1.19514   1.24794
H    -2.75015  -1.85949   0.13647
H    -0.98829  -1.17956  -1.16879
H    -0.69670   1.21731  -2.56070
H     1.08848  -1.56626  -1.54018
H     2.46440  -3.02811  -0.11575
H     3.20332  -2.27344   2.15123
H     2.55716   0.01192   2.94396
H     1.17584   1.48684   1.51343
28

C    -1.83511   2.72914  -0.20570
C    -1.50307   1.33885   0.26129
C    -2.33520   0.23891  -0.16216
C    -2.47158  -0.97482   0.73261
N    -1.41539  -0.42462  -1.71655
N    -0.41629   0.46661  -1.92439
N     0.18988   0.97506  -0.82038
C     0.98129   0.06410  -0.09215
C     1.37977  -1.21297  -0.54889
C     2.17154  -2.03963   0.25593
C     2.59140  -1.62293   1.52193
C     2.22585  -0.34553   1.96722
C     1.44338   0.48667   1.17219
H    -2.75191   3.14709   0.26177
H    -1.00864   3.42156   0.00612
H    -2.01468   2.72717  -1.29460
H    -1.03162   1.25560   1.24747
H    -3.25903   0.51440  -0.69720
H    -3.25261  -0.87041   1.51684
H    -1.52232  -1.19473   1.24878
H    -2.74821  -1.85897   0.13491
H    -0.98834  -1.17657  -1.16611
H    -0.69411   1.21657  -2.56303
H     1.08891  -1.56738  -1.54002
H     2.46468  -3.02853  -0.11529
H     3.20335  -2.27320   2.15155
H     2.55683   0.01217   2.94379
H     1.17590   1.48699   1.51252
28

C    -1.83665   2.73062  -0.20552
C    -1.52266   1.34137   0.27316
C    -2.34796   0.24810  -0.14223
C    -2.47287  -0.97625   0.73528
N    -1.39906  -0.43078  -1.73537
N    -0.41978   0.47024  -1.91982
N     0.20628   0.97251  -0.83461
C     0.98270   0.06218  -0.09408
C     1.38031  -1.21555  -0.54848
C     2.17184  -2.04102   0.25676
C     2.59134  -1.62278   1.52243
C     2.22524  -0.34528   1.96669
C     1.44300   0.48657   1.17049
H    -2.75118   3.15148   0.26049
H    -1.00723   3.42005   0.00511
H    -2.01469   2.72635  -1.29462
H    -1.03012   1.25556   1.24650
H    -3.25823   0.51256  -0.69926
H    -3.25357  -0.87515   1.51762
H    -1.52253  -1.19431   1.24962
H    -2.74627  -1.85844   0.13335
H    -0.98839  -1.17357  -1.16343
H    -0.69152   1.21582  -2.56536
H     1.08934  -1.56849  -1.53986
H     2.46496  -3.02894  -0.11484
H     3.20337  -2.27295   2.15186
H     2.55650   0.01242   2.94362
H     1.17596   1.48714   1.51161
28

C    -1.83819   2.73211  -0.20535
C    -1.54225   1.34389   0.28502
C    -2.36072   0.25730  -0.12229
C    -2.47416  -0.97768   0.73795
N    -1.38272  -0.43695  -1.75420
N    -0.42326   0.47386  -1.91525
N     0.22269   0.96995  -0.84884
C     0.98411   0.06026  -0.09601
C     1.38085  -1.21814  -0.54807
C     2.17214  -2.04242   0.25760
C     2.59127  -1.62264   1.52294
C     2.22463  -0.34504   1.96616
C     1.44263   0.48647   1.16880
H    -2.75045   3.15586   0.25920
H    -1.00583   3.41853   0.00410
H    -2.01469   2.72554  -1.29465
H    -1.02863   1.25552   1.24552
H    -3.25743   0.51072  -0.70132
H    -3.25452  -0.87989   1.51839
H    -1.52273  -1.19390   1.25046
H    -2.74433  -1.85792   0.13179
H    -0.98845  -1.17057  -1.16075
H    -0.68893   1.21507  -2.56770
H     1.08977  -1.56960  -1.53969
H     2.46524  -3.02936  -0.11438
H     3.20339  -2.27270   2.15218
H     2.55617   0.01267   2.94345
H     1.17602   1.48729   1.51070
28

C    -1.83972   2.73359  -0.20517
C    -1.56183   1.34641   0.29688
C    -2.37348   0.26649  -0.10236
C    -2.47545  -0.97911   0.74062
N    -1.36638  -0.44311  -1.77303
N    -0.42674   0.47748  -1.91068
N     0.23910   0.96740  -0.86306
C     0.98551   0.05833  -0.09795
C     1.38139  -1.22073  -0.54765
C     2.17244  -2.04381   0.25843
C     2.59121  -1.62249   1.52345
C     2.22402  -0.34480   1.96563
C     1.44225   0.48637   1.16710
H    -2.74971   3.16025   0.25791
H    -1.00442   3.41702   0.00309
H    -2.01470   2.72472  -1.29468
H    -1.02713   1.25549   1.24454
H    -3.25663   0.50888  -0.70338
H    -3.25548  -0.88463   1.51917
H    -1.52293  -1.19348   1.25129
H    -2.74240  -1.85740   0.13023
H    -0.98850  -1.16757  -1.15807
H    -0.68634   1.21433  -2.57003
H     1.09020  -1.57072  -1.53953
H     2.46552  -3.02977  -0.11392
H     3.20341  -2.27245   2.15249
H     2.55584   0.01292   2.94328
H     1.17608   1.48745   1.50979
28

C    -1.84126   2.73508  -0.20500
C    -1.58142   1.34893   0.30874
C    -2.38624   0.27569  -0.08243
C    -2.47674  -0.98054   0.74329
N    -1.35004  -0.44928  -1.79185
N    -0.43022   0.48110  -1.90611
N     0.25550   0.96484  -0.87729
C     0.98692   0.05641  -0.09988
C     1.38193  -1.22331  -0.54724
C     2.17274  -2.04521   0.25927
C     2.59115  -1.62234   1.52396
C     2.22341  -0.34456   1.96510
C     1.44188   0.48627   1.16540
H    -2.74898   3.16464   0.25663
H    -1.00302   3.41550   0.00208
H    -2.01470   2.72391  -1.29470
H    -1.02564   1.25545   1.24357
H    -3.25583   0.50705  -0.70545
H    -3.25643  -0.88937   1.51995
H    -1.52314  -1.19306   1.25213
H    -2.74046  -1.85687   0.12867
H    -0.98855  -1.16457  -1.15539
H    -0.68375   1.21358  -2.57236
H     1.09063  -1.57183  -1.53937
H     2.46580  -3.03019  -0.11347
H     3.20344  -2.27220   2.15281
H     2.55551   0.01317   2.94311
H     1.17614   1.48760   1.50889
28

C    -1.84280   2.73656  -0.20482
C    -1.60101   1.35145   0.32061
C    -2.39899   0.28488  -0.06249
C    -2.47803  -0.98197   0.74596
N    -1.33371  -0.45545  -1.81068
N    -0.43370   0.48472  -1.90155
N     0.27191   0.96229  -0.89152
C     0.98832   0.05449  -0.10181
C     1.38247  -1.22590  -0.54683
C     2.17304  -2.04660   0.26010
C     2.59108  -1.62220   1.52446
C     2.22280  -0.34432   1.96457
C     1.44150   0.48617   1.16370
H    -2.74825   3.16902   0.25534
H    -1.00161   3.41398   0.00108
H    -2.01471   2.72309  -1.29473
H    -1.02414   1.25541   1.24259
H    -3.25503   0.50521  -0.70751
H    -3.25739  -0.89411   1.52073
H    -1.52334  -1.19265   1.25297
H    -2.73852  -1.85635   0.12711
H    -0.98860  -1.16158  -1.15270
H    -0.68116   1.21283  -2.57470
H     1.09106  -1.57294  -1.53921
H     2.46609  -3.03061  -0.11301
H     3.20346  -2.27195   2.15312
H     2.55518   0.01342   2.94294
H     1.17620   1.48775   1.50798
28

C    -1.84434   2.73805  -0.20464
C    -1.62059   1.35398   0.33247
C    -2.41175   0.29408  -0.04256
C    -2.47932  -0.98340   0.74863
N    -1.31737  -0.46161  -1.82951
N    -0.43718   0.48835  -1.89698
N     0.28832   0.95973  -0.90575
C     0.98973   0.05257  -0.10375
C     1.38301  -1.22849  -0.54641
C     2.17334  -2.04800   0.26094
C     2.59102  -1.62205   1.52497
C     2.22219  -0.34407   1.96404
C     1.44113   0.48607   1.16201
H    -2.74752   3.17341   0.25405
H    -1.00020   3.41247   0.00007
H    -2.01472   2.72227  -1.29476
H    -1.02264   1.25537   1.24162
H    -3.25423   0.50337  -0.70957
H    -3.25834  -0.89886   1.52150
H    -1.52354  -1.19223   1.25380
H    -2.73658  -1.85583   0.12555
H    -0.98866  -1.15858  -1.15002
H    -0.67857   1.21209  -2.57703
H     1.09149  -1.57406  -1.53905
H     2.46637  -3.03102  -0.11256
H     3.20348  -2.27171   2.15344
H     2.55485   0.01367   2.94277
H     1.17626   1.48790   1.50707
28

C    -1.84588   2.73954  -0.20447
C    -1.64018   1.35650   0.34433
C    -2.42451   0.30327  -0.02262
C    -2.48061  -0.98483   0.75130
N    -1.30103  -0.46778  -1.84834
N    -0.44067   0.49197  -1.89241
N     0.30472   0.95718  -0.91997
C     0.99113   0.05065  -0.10568
C     1.38355  -1.23107  -0.54600
C     2.17364  -2.04939   0.26178
C     2.59096  -1.62190   1.52548
C     2.22157  -0.34383   1.96351
C     1.44075   0.48597   1.16031
H    -2.74679   3.17779   0.25277
H    -0.99880   3.41095  -0.00094
H    -2.01472   2.72146  -1.29478
H    -1.02115   1.25533   1.24064
H    -3.25343   0.50153  -0.71163
H    -3.25929  -0.90360   1.52228
H    -1.52374  -1.19182   1.25464
H    -2.73464  -1.85530   0.12398
H    -0.98871  -1.15558  -1.14734
H    -0.67598   1.21134  -2.57936
H     1.09192  -1.57517  -1.53889
H     2.46665  -3.03144  -0.11210
H     3.20350  -2.27146   2.15375
H     2.55451   0.01392   2.94260
H     1.17632   1.48805   1.50616
28

C    -1.84742   2.74102  -0.20429
C    -1.65976   1.35902   0.35619
C    -2.43727   0.31246  -0.00269
C    -2.48190  -0.98626   0.75397
N    -1.28469  -0.47394  -1.86716
N    -0.44415   0.49559  -1.88784
N     0.32113   0.95462  -0.93420
C     0.99254   0.04873  -0.10761
C     1.38409  -1.23366  -0.54558
C     2.17394  -2.05079   0.26261
C     2.59089  -1.62176   1.52599
C     2.22096  -0.34359   1.96298
C     1.44038   0.48587   1.15861
H    -2.74605   3.18218   0.25148
H    -0.99739   3.40944  -0.00195
H    -2.01473   2.72064  -1.29481
H    -1.01965   1.25529   1.23967
H    -3.25263   0.49969  -0.71369
H    -3.26025  -0.90834   1.52306
H    -1.52395  -1.19140   1.25548
H    -2.73270  -1.85478   0.12242
H    -0.98876  -1.15258  -1.14466
H    -0.67339   1.21059  -2.58169
H     1.09235  -1.57628  -1.53872
H     2.46693  -3.03185  -0.11165
H     3.20353  -2.27121   2.15407
H     2.55418   0.01417   2.94243
H     1.17638   1.48820   1.50525
28

C    -1.84896   2.74251  -0.20412
C    -1.67935   1.36154   0.36806
C    -2.45003   0.32166   0.01725
C    -2.48319  -0.98769   0.75664
N    -1.26836  -0.48011  -1.88599
N    -0.44763   0.49921  -1.88327
N     0.33754   0.95207  -0.94843
C     0.99394   0.04681  -0.10955
C     1.38463  -1.23625  -0.54517
C     2.17424  -2.05218   0.26345
C     2.59083  -1.62161   1.52650
C     2.22035  -0.34335   1.96245
C     1.44000   0.48577   1.15691
H    -2.74532   3.18657   0.25019
H    -0.99599   3.40792  -0.00296
H    -2.01473   2.71983  -1.29484
H    -1.01816   1.25525   1.23869
H    -3.25183   0.49786  -0.71575
H    -3.26120  -0.91308   1.52384
H    -1.52415  -1.19099   1.25632
H    -2.73077  -1.85426   0.12086
H    -0.98882  -1.14959  -1.14198
H    -0.67080   1.20985  -2.58403
H     1.09278  -1.57740  -1.53856
H     2.46721  -3.03227  -0.11119
H     3.20355  -2.27096   2.15438
H     2.55385   0.01442   2.94226
H     1.17644   1.48835   1.50434
28

C    -1.85049   2.74399  -0.20394
C    -1.69894   1.36406   0.37992
C    -2.46279   0.33085   0.03718
C    -2.48448  -0.98912   0.75931
N    -1.25202  -0.48628  -1.90482
N    -0.45111   0.50283  -1.87870
N     0.35394   0.94951  -0.96265
C     0.99535   0.04489  -0.11148
C     1.38517  -1.23883  -0.54476
C     2.17455  -2.05358   0.26428
C     2.59077  -1.62146   1.52700
C     2.21974  -0.34311   1.96192
C     1.43962   0.48567   1.15521
H    -2.74459   3.19095   0.24891
H    -0.99458   3.40640  -0.00396
H    -2.01474   2.71901  -1.29487
H    -1.01666   1.25521   1.23772
H    -3.25103   0.49602  -0.71781
H    -3.26216  -0.91782   1.52461
H    -1.52435  -1.19057   1.25715
H    -2.72883  -1.85373   0.11930
H    -0.98887  -1.14659  -1.13930
H    -0.66820   1.20910  -2.58636
H     1.09321  -1.57851  -1.53840
H     2.46749  -3.03268  -0.11074
H     3.20357  -2.27071   2.15470
H     2.55352   0.01467   2.94209
H     1.17650   1.48850   1.50343
28

C    -1.85203   2.74548  -0.20376
C    -1.71852   1.36658   0.39178
C    -2.47555   0.34005   0.05711
C    -2.48577  -0.99055   0.76198
N    -1.23568  -0.49244  -1.92364
N    -0.45459   0.50646  -1.87413
N     0.37035   0.94696  -0.97688
C     0.99676   0.04297  -0.11341
C     1.38571  -1.24142  -0.54434
C     2.17485  -2.05497   0.26512
C     2.59071  -1.62132   1.52751
C     2.21913  -0.34286   1.96139
C     1.43925   0.48557   1.15352
H    -2.74386   3.19534   0.24762
H    -0.99317   3.40489  -0.00497
H    -2.01474   2.71820  -1.29489
H    -1.01517   1.25517   1.23674
H    -3.25023   0.49418  -0.71987
H    -3.26311  -0.92256   1.52539
H    -1.52456  -1.19016   1.25799
H    -2.72689  -1.85321   0.11774
H    -0.98892  -1.14359  -1.13662
H    -0.66561   1.20836  -2.58869
H     1.09365  -1.57962  -1.53824
H     2.46777  -3.03310  -0.11028
H     3.20359  -2.27046   2.15501
H     2.55319   0.01492   2.94192
H     1.17656   1.48865   1.50253
28

C    -1.85357   2.74696  -0.20359
C    -1.73811   1.36910   0.40365
C    -2.48831   0.34924   0.07705
C    -2.48706  -0.99198   0.76465
N    -1.21935  -0.49861  -1.94247
N    -0.45807   0.51008  -1.86956
N     0.38676   0.94440  -0.99111
C     0.99816   0.04105  -0.11535
C     1.38625  -1.24401  -0.54393
C     2.17515  -2.05637   0.26595
C     2.59064  -1.62117   1.52802
C     2.21852  -0.34262   1.96086
C     1.43887   0.48547   1.15182
H    -2.74313   3.19973   0.24634
H    -0.99177   3.40337  -0.00598
H    -2.01475   2.71738  -1.29492
H    -1.01367   1.25513   1.23576
H    -3.24943   0.49234  -0.72194
H    -3.26407  -0.92730   1.52617
H    -1.52476  -1.18974   1.25883
H    -2.72495  -1.85269   0.11618
H    -0.98897  -1.14059  -1.13393
H    -0.66302   1.20761  -2.59103
H     1.09408  -1.58074  -1.53808
H     2.46805  -3.03351  -0.10983
H     3.20362  -2.27022   2.15533
H     2.55286   0.01517   2.94175
H     1.17662   1.48880   1.50162
28

C    -1.85511   2.74845  -0.20341
C    -1.75770   1.37163   0.41551
C    -2.50106   0.35844   0.09698
C    -2.48835  -0.99341   0.76732
N    -1.20301  -0.50477  -1.96130
N    -0.46156   0.51370  -1.86500
N     0.40316   0.94185  -1.00534
C     0.99957   0.03913  -0.11728
C     1.38679  -1.24659  -0.54352
C     2.17545  -2.05776   0.26679
C     2.59058  -1.62102   1.52853
C     2.21791  -0.34238   1.96033
C     1.43850   0.48537   1.15012
H    -2.74239   3.20411   0.24505
H    -0.99036   3.40186  -0.00699
H    -2.01476   2.71656  -1.29495
H    -1.01218   1.25510   1.23479
H    -3.24863   0.49051  -0.72400
H    -3.26502  -0.93204   1.52694
H    -1.52496  -1.18932   1.25966
H    -2.72301  -1.85216   0.11462
H    -0.98903  -1.13759  -1.13125
H    -0.66043   1.20686  -2.59336
H     1.09451  -1.58185  -1.53792
H     2.46833  -3.03393  -0.10937
H     3.20364  -2.26997   2.15564
H     2.55253   0.01542   2.94158
H     1.17668   1.48895   1.50071
