8

N -1.514259559 1.766584522 0.286394041
C -2.384443064 -0.596970322 0.064661496
N -0.136348332 -1.861932656 0.019885021
C 1.856338443 -0.224735434 0.210984161
N 1.052562504 2.068640783 0.381324244
H -2.596478139 3.320362487 0.386592045
H -0.010476377 -3.747214863 -0.135427809
H 3.819413985 -0.767310065 0.218860937

