11

C 4.045382390 0.009232484 -1.430629937
C 1.647698771 0.049840223 -0.285870134
C 0.178094820 2.135699340 0.030352082
C -0.521222181 -1.743558870 0.440659150
C -2.156600845 0.684246208 0.729414291
H 4.323429737 -1.855964882 -2.333074242
H 0.552692263 4.121000196 -0.316329571
H -1.125090873 -3.030306969 -1.051716738
H -0.233959754 -2.806527585 2.181417673
H -3.705972025 0.830464145 -0.625846395
H -2.899292824 1.098833865 2.610404703

