11

C 4.314644060 -0.330634363 -0.565908308
C 1.984075274 0.321941169 -0.261331133
C 0.004318043 2.056659636 -0.125496750
C -0.768857788 -1.479146463 0.024889016
C -2.155568506 0.742809728 1.116231062
H 4.803596843 -2.063770789 -1.553941313
H -0.266962743 3.474284043 -1.593828783
H -1.410603886 -2.096156669 -1.817254145
H -0.201785107 -3.005754286 1.266888627
H -3.998824640 1.146086637 0.305406085
H -2.208745891 0.817890588 3.169780681

