14

O 3.297961276 -1.458247434 -1.237250049
C 2.431297122 -0.416344441 1.018532410
C 0.073691911 1.396607308 0.998779519
C -1.181723602 1.671053783 -1.505941948
C -3.164469133 0.343433213 -2.266926760
C 0.685998343 -1.901224862 2.711857484
N -1.179070691 -0.371418886 2.790863362
H 1.857520316 -1.905391860 -2.254984579
H 4.072431721 0.368320188 1.988621105
H 0.397027094 3.251402015 1.850578728
H -0.323000455 3.043978514 -2.769103147
H -3.969985379 0.619056364 -4.128190113
H -4.071399780 -1.017493873 -1.033879424
H 0.832480691 -3.696790621 3.705998443

