16

C 2.478476610 -0.796853816 2.512088829
C 1.253683731 0.035363976 0.094385433
C 0.450411290 -1.861489062 -1.756922900
C -2.005218173 -0.431270329 -1.595448297
C -1.912215755 1.302105109 1.509324180
O -1.954607528 1.368634505 -3.462872498
H 4.416418020 -1.389256481 2.106167758
H 2.549140708 0.718209802 3.911743452
H 1.493981928 -2.408394360 3.340069760
H 2.012566430 1.740706404 -0.750993262
H 1.323213841 -1.731755490 -3.608124387
H 0.343714499 -3.792010537 -1.066501483
H -3.594705537 2.353734579 0.951274336
H -0.719588660 2.721610040 2.455355452
H -2.491642294 -0.105697825 2.885979344
H -3.510926891 2.298514855 -3.369891339

