14

C 4.494412270 -1.555053644 0.241423378
N 1.892682223 2.199511857 0.253671487
C -0.572708450 2.610930368 0.056704917
C -1.812128490 0.279572754 -0.123910117
C -4.551680685 -0.332078170 -0.358055933
N -0.056309228 -1.512415167 -0.033009641
N 2.088010627 -0.272775787 0.199680179
H 4.337603420 -3.229513620 1.423312483
H 5.886742618 -0.259447057 1.013701665
H 5.041573928 -2.112464949 -1.665725133
H -1.328985235 4.502414580 0.064351222
H -4.792790520 -2.365964717 -0.561677532
H -5.601933490 0.281187279 1.307698604
H -5.386263828 0.588687293 -2.003256713

