13

O 3.779207095 2.133016193 -0.046637401
C 1.977032133 2.384115914 -1.398802660
C 0.572535559 -2.872289355 0.740053260
C -1.351701671 -0.842902719 0.265811617
N -1.321476729 1.334275788 1.912656005
C -0.677367397 1.723305504 -0.738297761
H 2.345558283 -2.052765912 1.385999463
H 2.204868059 3.117056680 -3.352389792
H -0.116190434 -4.157550712 2.199382638
H 0.918710764 -3.971185203 -0.971602687
H -3.189736831 -1.515040639 -0.362575232
H -3.080822825 1.994426665 2.267570911
H -2.071757849 2.596303226 -1.966764495

