13

C 4.173872333 0.364702289 1.274125597
C 2.114703198 1.303268954 -0.459960851
O 2.185356297 3.367493069 -1.469521124
C 0.125830891 -0.519505951 -1.070451218
C -4.335069657 -1.484860088 -0.676127850
N -2.077316062 -0.001091487 -0.167626039
H 5.536035754 -0.712485198 0.159864443
H 3.429144118 -0.899719300 2.725345499
H 5.128709483 1.972565898 2.131667496
H -3.795388158 -3.050621430 -1.890603335
H -5.129931550 -2.205422618 1.084824059
H -5.746001259 -0.317679553 -1.624441628
H -2.381142638 1.586249186 0.880638244

