13

C 3.391070596 -0.515970405 0.986497508
C 1.504034893 1.195278816 -0.274752932
O 1.705712853 3.483140774 -0.263134858
C -0.439565433 0.063728708 -1.988965243
C -3.202321198 -0.945690063 -0.076368746
N -2.843851131 1.203984123 -1.851399833
H 4.860528377 -0.986663577 -0.383753355
H 2.542470069 -2.287959298 1.612938563
H 4.257104338 0.462276030 2.574809217
H -1.461981949 -2.223891403 -0.392551372
H -3.235341913 -0.383866984 1.895903583
H -4.742451278 -2.172876319 -0.658944476
H -2.732432142 2.821928834 -0.797480015

