18

C -2.644781712 -3.194503533 0.786584856
C -0.556592846 -2.185839594 -0.849912016
C -0.073468319 0.416445371 -1.464657574
C -1.775029349 2.324701867 -0.216872189
C 2.148364435 -0.608938827 -0.153155575
C 3.285402686 1.369587475 1.222980292
H -4.336558647 -3.480788594 -0.366095830
H -3.135730689 -1.929877362 2.330144183
H -2.111581332 -5.019599683 1.581330871
H 0.254222059 -3.611216981 -2.077926047
H 1.750265111 2.469386744 -2.669164300
H -0.927416752 4.200349947 -0.217723851
H -2.235248222 1.827750685 1.739991899
H -3.551610106 2.424569319 -1.262035678
H 3.473267106 -1.603375093 -1.354090492
H 2.179820514 2.582668928 2.443911970
H 3.010600054 3.020101635 -1.379136488
H 5.273654690 1.245283312 1.697292819

