11

N -5.234175968 2.378099083 0.975355022
C -2.869499798 2.313819463 0.966882170
O -1.669279670 0.137623670 0.403060535
C 3.650237671 -3.772298596 -0.646308501
C 2.253042318 -1.825373278 -0.121225402
C 0.926496909 0.172701334 0.417424023
H -5.849750057 4.133357474 1.432530737
H -1.590355863 3.888179739 1.382377406
H 4.250575750 -4.162487867 -2.567405364
H 4.241150552 -5.082704365 0.815332050
H 1.816785474 1.955873040 0.905339592

