17

C 4.798226223 0.014573851 0.667962079
O 2.220793424 0.419192031 0.193040021
C 1.020580268 -1.708025254 -0.854616602
C -1.768383635 -1.151270099 -1.200861860
C -3.200314233 0.034166267 1.054465741
C -3.141378929 2.476039090 -0.526536337
C -2.325192912 1.139581330 -2.864947637
H 5.562150409 1.752639174 1.461382811
H 5.826170112 -0.440341827 -1.074203024
H 5.082461630 -1.528371240 2.025319001
H 1.254716976 -3.344221035 0.406032905
H -2.619092246 -2.844397451 -2.036131692
H -5.092209858 -0.744078641 1.286964831
H -2.248584057 0.066617362 2.881599431
H -4.657943991 3.870912197 -0.583669995
H -1.362201745 3.487342523 -0.099514093
H 1.860466323 -2.179176269 -2.693799942

