14

C -3.544615625 1.528148536 0.700511005
C -2.216721555 -1.013494816 0.646264867
C 1.217034099 -0.484329455 -2.574594071
C 3.793327790 -0.236219091 -2.139723625
N 4.213476741 -0.375969819 0.386689762
N 2.140327808 -0.698149925 1.666159524
N 0.413231287 -0.759230956 -0.131691196
H -5.520591098 1.281155983 1.234357672
H -2.655009628 2.792449919 2.065117351
H -3.469321547 2.406171834 -1.161924129
H -2.224667324 -1.912340175 2.499249330
H -3.101879080 -2.275852295 -0.715679157
H 5.342760065 0.023894340 -3.435289224
H 5.849334374 -0.290796309 1.353777440

