10

C 0.991643554 1.157655994 -1.701582686
H 2.615896568 1.474140824 -0.503329026
H 0.871740582 2.374849132 -3.337964454
C -0.047188786 -1.450137164 -1.911156148
H 0.853897750 -2.953628988 -0.861199936
H -0.878517008 -2.017478073 -3.688974184
C -1.452263295 0.506243985 -0.387256548
C -3.782746873 1.510616564 -1.361059613
N -5.638815124 2.311474899 -2.149569571
H -1.413740661 0.328711737 1.649313504

