13

C -2.635432935 -1.068481216 0.018716207
C -2.530855397 1.886077914 0.267648279
C 0.302326795 1.512011730 0.124222980
N 2.607841195 2.378210747 0.097072113
C 4.019030234 0.193753997 -0.151750261
C 2.543340987 -1.944023077 -0.271639173
N 0.139547960 -1.001839533 -0.082816114
H -3.504684219 -1.782231000 -1.706331436
H -3.376767883 -2.067867148 1.659554913
H -3.378029010 2.908849074 -1.304369625
H -3.249449947 2.625566146 2.048689414
H 6.054965962 0.274019170 -0.233386978
H 3.008166219 -3.914046783 -0.465610300

