13

C -2.274245744 -0.857310218 0.216471265
C -2.682716509 2.028568309 -0.034679781
C 0.066235694 1.721100760 -0.579645710
N 2.042577983 2.110082042 0.768954996
C 3.164672676 -0.317747111 0.765224790
C 2.110037502 -1.847689620 -1.167048178
N -0.078603196 -0.718150635 -1.694256520
H -3.799266065 -2.153734017 -0.272770155
H 1.113969494 -1.315140175 2.041175768
H -3.863116755 2.675542372 -1.596634062
H -3.095076406 3.027692438 1.710107392
H 4.979524903 -0.591554991 1.666575283
H 2.463624270 -3.819792781 -1.546548950

