8

O 1.202636068 1.517705815 1.325176549
C 1.335067904 0.688487434 -1.200645562
H 1.856371835 2.201853568 -2.498817433
C 1.923998311 -1.989062715 -1.774949508
H 3.331278150 -3.455588680 -1.852480624
C -0.418355922 -1.319951513 -1.976540747
H -2.357451255 -1.815745822 -2.338808238
H 2.766989148 2.329170804 1.747551710

