11

O 1.310140111 2.705396549 0.842464208
C 1.105020904 0.751512332 -1.002727327
C 0.979401209 -1.921613798 -0.190043766
C -1.305922299 -0.668408584 -1.006036256
O -2.681839128 -0.184707690 1.567467481
H 2.599427378 2.182176228 2.009753931
H 1.852124600 1.362719756 -2.815637804
H -1.126772464 -1.317587805 2.219996696
H 1.888752689 -3.441640291 -1.206704364
H -2.703319834 -0.905698488 -2.473466946
H -2.148891990 1.537548071 1.995640209

