16

C 3.619808507 0.333538059 -1.295250279
C 1.095710771 1.400333357 -0.405249481
C -0.441697649 -2.467477270 1.848063219
O -1.648750441 -2.797158229 3.741913293
C -1.060687287 -0.539019603 -0.161288805
C -3.592762388 0.727625476 0.327733425
H 4.981423587 1.851017126 -1.601711908
H 4.452978608 -0.964904893 0.073007131
H 3.411398588 -0.684096995 -3.080251353
H 0.468649339 2.848497458 -1.738891795
H 1.330317303 2.361349495 1.411964885
H 1.268205860 -3.627731864 1.489019016
H -1.136691183 -1.601132612 -1.944977937
H -3.539559927 1.813626060 2.080011360
H -4.066564443 2.010136941 -1.215987776
H -5.102442668 -0.660883543 0.516721288

