12

C 4.669494432 0.723105894 0.305911492
C 2.428734597 -0.250141724 0.552878136
C 0.180597856 -1.208433010 0.831820023
C -2.229143557 0.304340959 0.690849856
C -3.607919050 -0.226945468 -1.755403730
O -5.733551951 -0.996673570 -1.890151370
H 5.714262930 1.389825251 1.936543220
H 5.556578929 0.883684332 -1.533027450
H 0.004563651 -3.231154488 1.136483861
H -1.781707225 2.321627925 0.732830953
H -3.489186575 -0.134381070 2.262243962
H -2.481090461 0.137199843 -3.488040437

