12

N -4.084812735 0.334941899 0.149248547
C -1.492190922 0.117531989 0.045490168
C 0.119032261 2.178527639 0.191217872
N 2.647007696 2.008339131 0.217245863
C 3.657030594 -0.239833949 0.085652082
N 2.223622684 -2.320204073 -0.111936037
C -0.348629148 -2.276570297 -0.139192011
H -4.846002203 1.988076278 -0.393555440
H -5.035667892 -1.198908904 -0.447113037
H -0.640417752 4.086563774 0.304563928
H 5.691942959 -0.453112710 0.118665503
H 1.159927936 -4.288718946 -0.193906026

