16

C 3.099189414 2.083809218 0.311821761
C 0.702024430 0.604809756 0.099266576
C -1.385412627 0.161416154 2.138450479
C -2.358074638 -1.341605469 -0.190072282
C -1.533704708 0.977216383 -1.792503495
C 0.371742804 -2.178050937 -0.467106037
N 1.789618280 -4.024441635 -0.907761502
H 4.154551320 1.999568289 -1.457725964
H 4.296518431 1.305237822 1.799288708
H 2.716630007 4.062889228 0.749394630
H -2.496122930 1.831847857 2.618356103
H -0.850059622 -0.922206002 3.806415674
H 0.769065035 -5.627553622 -1.203406981
H -4.086458308 -2.438056805 -0.349664566
H -1.135705124 0.654246012 -3.787579564
H -2.650156641 2.684630745 -1.488008258

