16

C 2.979448278 2.160046987 0.300721189
C 0.733977998 0.435607440 0.057611872
C -1.332548616 -0.100703732 2.080483602
C -2.561804896 -1.441674668 -0.178286287
C -1.499198064 0.683844736 -1.839724217
C 1.082806474 -2.308044025 -0.506904236
N 1.992631520 -4.348586849 -0.956552247
H 4.064614737 2.201542368 -1.452266016
H 4.228228982 1.536749114 1.818712314
H 2.359246722 4.079036220 0.722377877
H -2.287323046 1.647897835 2.635042461
H -0.779919300 -1.188034003 3.742198283
H -0.473738069 -4.079810535 -0.798138641
H -4.508430316 -2.107867302 -0.228667103
H -1.101577351 0.327850305 -3.830797015
H -2.467211027 2.495732380 -1.600558230

