11

C 4.648325588 0.907258230 1.464919868
C 2.807185550 0.063673490 0.460205381
C 0.595986285 -0.970329257 -0.742704640
N -1.519246508 -2.026703452 0.837696883
C -1.837798718 0.285769203 -0.403614131
C -3.030699673 2.705035479 0.144889743
N -4.211748643 1.787468131 -1.782526969
H 6.282348997 1.672565979 2.355763711
H 0.949764955 -2.090043538 -2.421062309
H -1.224935422 -1.767778904 2.719265211
H -3.302747102 -0.114420404 -2.511349795

