13

C 2.109851987 1.446449798 -1.995105247
C -0.353971158 -0.039511792 -2.085295336
C -0.936961796 -1.326208679 0.427154260
C -1.581758195 0.502761220 2.472674150
O -0.897270102 -0.486349515 4.639745135
H 2.014854397 2.924089640 -0.555391528
H 2.512935558 2.350193289 -3.804393006
H 3.704117391 0.216109061 -1.533658920
H -0.261561925 -1.463430858 -3.579109400
H 0.553286846 -2.656992631 0.989197114
H -2.691325761 -2.431773541 0.251977026
H -1.913962353 1.229736762 -2.555270979
H -1.387076814 0.659203633 5.965978192

