12

O 3.597620515 -1.349515881 2.155136231
C 1.957807911 -0.385890182 0.287767192
C -0.799431100 -0.490291200 1.098227074
C -2.600829423 0.472006494 -0.891026220
C -1.911291736 1.367943526 -3.090469839
O -1.319939815 2.163520341 -5.043822570
H 3.568803061 -0.240263861 3.587365916
H 2.247938036 -1.564821978 -1.381579318
H -1.265696682 -2.444333549 1.579901161
H -1.036131241 0.623013772 2.828514020
H 2.476195050 1.557329535 -0.227340988
H -4.620084784 0.445939272 -0.562208262

