12

C -3.690873680 -0.521869488 0.109932701
C -0.911470336 -0.082497940 -0.068248442
C 0.228347192 2.257214871 -0.109131778
N 2.979788920 1.323331685 -0.110983974
C 2.967343827 -1.292955754 -0.341121530
N 0.695129935 -2.145199069 -0.301826320
H -4.681396702 1.273357367 0.278259451
H -4.146259598 -1.695539758 1.744214378
H -4.382082244 -1.503921944 -1.568117301
H 2.185165737 2.158146130 1.715110196
H 4.377142273 2.455948354 -0.746555619
H 4.681050296 -2.396556586 -0.449764058

