28

C    -2.51671  -1.00040   1.39106
C    -2.20598  -1.01191  -0.08979
O    -2.60869  -1.93297  -0.81159
C    -1.45590   0.09393  -0.67071
O    -1.16317   1.11244   0.15997
C    -0.36365   2.11098  -0.32193
C    -0.85436   2.79260  -1.59578
C     1.24929   1.26308  -0.79743
C     2.22100   0.90194   0.39098
C     1.38095   0.26375   1.49829
C     1.06720  -0.92375   0.97949
F     0.24056  -1.86644   1.43443
C     1.69571  -1.01589  -0.39871
O     2.90518  -0.25820  -0.15979
C     0.92625  -0.02165  -1.30319
H    -1.85024  -0.35691   1.97839
H    -2.46455  -2.03695   1.77894
H    -3.55353  -0.64831   1.54922
H    -1.64582   0.31736  -1.73510
H    -0.26384   2.83404   0.55660
H    -0.33898   3.74038  -1.71616
H    -0.68396   2.15322  -2.45555
H    -1.98116   3.03524  -1.60864
H     1.57573   2.12259  -1.44314
H     3.00193   1.63980   0.70171
H     1.03351   0.76702   2.38045
H     1.89974  -2.04012  -0.78931
H     0.66756  -0.27057  -2.33206
28

C    -2.51710  -1.00122   1.39260
C    -2.20979  -1.01055  -0.08905
O    -2.61043  -1.93431  -0.81033
C    -1.47066   0.09794  -0.67022
O    -1.16776   1.11418   0.15861
C    -0.39033   2.12188  -0.31568
C    -0.86051   2.79406  -1.59552
C     1.27093   1.25691  -0.80470
C     2.22995   0.89803   0.39063
C     1.38193   0.26475   1.49570
C     1.06689  -0.92253   0.97754
F     0.24076  -1.86509   1.43302
C     1.70076  -1.01796  -0.39879
O     2.91228  -0.26661  -0.15269
C     0.94266  -0.02083  -1.30867
H    -1.85077  -0.35648   1.97859
H    -2.46307  -2.03715   1.77919
H    -3.55396  -0.64988   1.55052
H    -1.64629   0.31728  -1.73529
H    -0.26802   2.83525   0.55841
H    -0.34153   3.74131  -1.71524
H    -0.68181   2.15230  -2.45328
H    -1.98307   3.03398  -1.61372
H     1.57252   2.12483  -1.43918
H     3.00469   1.63810   0.70260
H     1.03414   0.76777   2.37957
H     1.90053  -2.04108  -0.78869
H     0.66597  -0.27031  -2.33075
28

C    -2.51750  -1.00204   1.39414
C    -2.21359  -1.00919  -0.08830
O    -2.61217  -1.93565  -0.80907
C    -1.48541   0.10196  -0.66974
O    -1.17236   1.11592   0.15724
C    -0.41701   2.13277  -0.30942
C    -0.86665   2.79552  -1.59525
C     1.29256   1.25075  -0.81197
C     2.23889   0.89412   0.39029
C     1.38291   0.26576   1.49311
C     1.06658  -0.92132   0.97560
F     0.24095  -1.86374   1.43161
C     1.70581  -1.02003  -0.39888
O     2.91937  -0.27502  -0.14559
C     0.95907  -0.02001  -1.31416
H    -1.85130  -0.35605   1.97880
H    -2.46159  -2.03735   1.77943
H    -3.55438  -0.65146   1.55181
H    -1.64675   0.31720  -1.73548
H    -0.27221   2.83646   0.56022
H    -0.34409   3.74225  -1.71432
H    -0.67966   2.15139  -2.45100
H    -1.98498   3.03271  -1.61881
H     1.56932   2.12706  -1.43522
H     3.00745   1.63640   0.70350
H     1.03477   0.76852   2.37870
H     1.90132  -2.04204  -0.78807
H     0.66438  -0.27005  -2.32943
28

C    -2.51790  -1.00286   1.39567
C    -2.21739  -1.00783  -0.08755
O    -2.61391  -1.93699  -0.80781
C    -1.50017   0.10597  -0.66925
O    -1.17696   1.11766   0.15587
C    -0.44369   2.14367  -0.30317
C    -0.87280   2.79698  -1.59499
C     1.31420   1.24458  -0.81923
C     2.24784   0.89021   0.38994
C     1.38389   0.26676   1.49051
C     1.06627  -0.92011   0.97365
F     0.24114  -1.86238   1.43020
C     1.71086  -1.02210  -0.39897
O     2.92646  -0.28343  -0.13848
C     0.97548  -0.01919  -1.31965
H    -1.85182  -0.35562   1.97900
H    -2.46011  -2.03755   1.77968
H    -3.55481  -0.65303   1.55310
H    -1.64722   0.31712  -1.73567
H    -0.27640   2.83766   0.56202
H    -0.34664   3.74319  -1.71340
H    -0.67751   2.15048  -2.44873
H    -1.98690   3.03144  -1.62389
H     1.56611   2.12930  -1.43126
H     3.01021   1.63470   0.70439
H     1.03540   0.76927   2.37782
H     1.90211  -2.04300  -0.78745
H     0.66279  -0.26979  -2.32811
28

C    -2.51830  -1.00368   1.39721
C    -2.22119  -1.00647  -0.08681
O    -2.61565  -1.93833  -0.80655
C    -1.51493   0.10998  -0.66877
O    -1.18156   1.11940   0.15450
C    -0.47037   2.15457  -0.29692
C    -0.87895   2.79845  -1.59473
C     1.33584   1.23842  -0.82650
C     2.25678   0.88630   0.38959
C     1.38487   0.26777   1.48792
C     1.06596  -0.91890   0.97171
F     0.24134  -1.86103   1.42879
C     1.71591  -1.02417  -0.39905
O     2.93355  -0.29185  -0.13138
C     0.99190  -0.01837  -1.32513
H    -1.85235  -0.35519   1.97921
H    -2.45863  -2.03775   1.77992
H    -3.55524  -0.65460   1.55440
H    -1.64769   0.31704  -1.73586
H    -0.28058   2.83887   0.56383
H    -0.34919   3.74412  -1.71249
H    -0.67536   2.14957  -2.44645
H    -1.98881   3.03018  -1.62898
H     1.56290   2.13153  -1.42730
H     3.01297   1.63300   0.70528
H     1.03603   0.77001   2.37694
H     1.90290  -2.04396  -0.78683
H     0.66120  -0.26954  -2.32679
28

C    -2.51870  -1.00450   1.39875
C    -2.22500  -1.00511  -0.08606
O    -2.61739  -1.93967  -0.80528
C    -1.52969   0.11399  -0.66829
O    -1.18615   1.12113   0.15313
C    -0.49705   2.16546  -0.29067
C    -0.88510   2.79991  -1.59446
C     1.35748   1.23225  -0.83376
C     2.26573   0.88239   0.38925
C     1.38585   0.26877   1.48533
C     1.06565  -0.91768   0.96976
F     0.24153  -1.85967   1.42738
C     1.72097  -1.02624  -0.39914
O     2.94065  -0.30026  -0.12428
C     1.00831  -0.01755  -1.33062
H    -1.85287  -0.35476   1.97942
H    -2.45715  -2.03795   1.78017
H    -3.55567  -0.65617   1.55569
H    -1.64816   0.31696  -1.73604
H    -0.28477   2.84008   0.56564
H    -0.35175   3.74506  -1.71157
H    -0.67321   2.14866  -2.44418
H    -1.99072   3.02891  -1.63406
H     1.55969   2.13377  -1.42335
H     3.01573   1.63130   0.70618
H     1.03666   0.77076   2.37607
H     1.90368  -2.04492  -0.78622
H     0.65961  -0.26928  -2.32548
28

C    -2.51910  -1.00533   1.40028
C    -2.22880  -1.00375  -0.08531
O    -2.61913  -1.94101  -0.80402
C    -1.54445   0.11800  -0.66780
O    -1.19075   1.12287   0.15176
C    -0.52373   2.17636  -0.28442
C    -0.89125   2.80137  -1.59420
C     1.37912   1.22609  -0.84103
C     2.27467   0.87848   0.38890
C     1.38683   0.26977   1.48273
C     1.06534  -0.91647   0.96782
F     0.24172  -1.85832   1.42597
C     1.72602  -1.02831  -0.39923
O     2.94774  -0.30867  -0.11718
C     1.02472  -0.01673  -1.33611
H    -1.85340  -0.35434   1.97962
H    -2.45567  -2.03815   1.78041
H    -3.55609  -0.65775   1.55698
H    -1.64863   0.31688  -1.73623
H    -0.28896   2.84128   0.56744
H    -0.35430   3.74600  -1.71065
H    -0.67106   2.14775  -2.44190
H    -1.99264   3.02765  -1.63914
H     1.55649   2.13601  -1.41939
H     3.01849   1.62960   0.70707
H     1.03729   0.77151   2.37519
H     1.90447  -2.04588  -0.78560
H     0.65801  -0.26902  -2.32416
28

C    -2.51949  -1.00615   1.40182
C    -2.23260  -1.00240  -0.08457
O    -2.62087  -1.94235  -0.80276
C    -1.55920   0.12202  -0.66732
O    -1.19535   1.12461   0.15040
C    -0.55041   2.18725  -0.27817
C    -0.89740   2.80283  -1.59393
C     1.40076   1.21992  -0.84830
C     2.28362   0.87457   0.38856
C     1.38781   0.27078   1.48014
C     1.06502  -0.91526   0.96587
F     0.24192  -1.85697   1.42456
C     1.73107  -1.03038  -0.39931
O     2.95483  -0.31708  -0.11007
C     1.04113  -0.01591  -1.34159
H    -1.85393  -0.35391   1.97983
H    -2.45418  -2.03835   1.78066
H    -3.55652  -0.65932   1.55828
H    -1.64909   0.31680  -1.73642
H    -0.29314   2.84249   0.56925
H    -0.35685   3.74694  -1.70973
H    -0.66891   2.14684  -2.43963
H    -1.99455   3.02638  -1.64423
H     1.55328   2.13824  -1.41543
H     3.02125   1.62790   0.70797
H     1.03792   0.77226   2.37431
H     1.90526  -2.04683  -0.78498
H     0.65642  -0.26876  -2.32284
28

C    -2.51989  -1.00697   1.40336
C    -2.23640  -1.00104  -0.08382
O    -2.62260  -1.94369  -0.80150
C    -1.57396   0.12603  -0.66683
O    -1.19995   1.12635   0.14903
C    -0.57709   2.19815  -0.27192
C    -0.90355   2.80429  -1.59367
C     1.42240   1.21375  -0.85556
C     2.29257   0.87066   0.38821
C     1.38879   0.27178   1.47755
C     1.06471  -0.91404   0.96393
F     0.24211  -1.85561   1.42315
C     1.73612  -1.03245  -0.39940
O     2.96192  -0.32549  -0.10297
C     1.05755  -0.01509  -1.34708
H    -1.85445  -0.35348   1.98004
H    -2.45270  -2.03855   1.78090
H    -3.55695  -0.66089   1.55957
H    -1.64956   0.31672  -1.73661
H    -0.29733   2.84370   0.57105
H    -0.35941   3.74787  -1.70881
H    -0.66676   2.14593  -2.43735
H    -1.99646   3.02511  -1.64931
H     1.55007   2.14048  -1.41147
H     3.02401   1.62621   0.70886
H     1.03855   0.77301   2.37344
H     1.90605  -2.04779  -0.78436
H     0.65483  -0.26850  -2.32153
28

C    -2.52029  -1.00779   1.40490
C    -2.24021  -0.99968  -0.08307
O    -2.62434  -1.94503  -0.80024
C    -1.58872   0.13004  -0.66635
O    -1.20454   1.12809   0.14766
C    -0.60377   2.20904  -0.26566
C    -0.90969   2.80575  -1.59341
C     1.44404   1.20759  -0.86283
C     2.30151   0.86675   0.38787
C     1.38977   0.27279   1.47495
C     1.06440  -0.91283   0.96198
F     0.24230  -1.85426   1.42174
C     1.74117  -1.03452  -0.39949
O     2.96902  -0.33391  -0.09587
C     1.07396  -0.01427  -1.35257
H    -1.85498  -0.35305   1.98024
H    -2.45122  -2.03875   1.78115
H    -3.55738  -0.66246   1.56086
H    -1.65003   0.31664  -1.73680
H    -0.30152   2.84490   0.57286
H    -0.36196   3.74881  -1.70789
H    -0.66461   2.14501  -2.43508
H    -1.99838   3.02385  -1.65440
H     1.54686   2.14271  -1.40752
H     3.02677   1.62451   0.70975
H     1.03918   0.77375   2.37256
H     1.90684  -2.04875  -0.78374
H     0.65324  -0.26824  -2.32021
28

C    -2.52069  -1.00861   1.40643
C    -2.24401  -0.99832  -0.08233
O    -2.62608  -1.94637  -0.79897
C    -1.60348   0.13405  -0.66586
O    -1.20914   1.12983   0.14629
C    -0.63045   2.21994  -0.25941
C    -0.91584   2.80721  -1.59314
C     1.46568   1.20142  -0.87009
C     2.31046   0.86284   0.38752
C     1.39075   0.27379   1.47236
C     1.06409  -0.91162   0.96004
F     0.24250  -1.85291   1.42033
C     1.74623  -1.03659  -0.39957
O     2.97611  -0.34232  -0.08877
C     1.09037  -0.01344  -1.35805
H    -1.85550  -0.35262   1.98045
H    -2.44974  -2.03895   1.78140
H    -3.55780  -0.66404   1.56216
H    -1.65050   0.31656  -1.73699
H    -0.30570   2.84611   0.57467
H    -0.36451   3.74975  -1.70697
H    -0.66246   2.14410  -2.43280
H    -2.00029   3.02258  -1.65948
H     1.54366   2.14495  -1.40356
H     3.02953   1.62281   0.71065
H     1.03981   0.77450   2.37168
H     1.90763  -2.04971  -0.78312
H     0.65165  -0.26798  -2.31889
28

C    -2.52109  -1.00943   1.40797
C    -2.24781  -0.99696  -0.08158
O    -2.62782  -1.94771  -0.79771
C    -1.61824   0.13807  -0.66538
O    -1.21374   1.13157   0.14492
C    -0.65713   2.23084  -0.25316
C    -0.92199   2.80868  -1.59288
C     1.48732   1.19526  -0.87736
C     2.31940   0.85892   0.38717
C     1.39173   0.27480   1.46977
C     1.06378  -0.91041   0.95809
F     0.24269  -1.85155   1.41891
C     1.75128  -1.03866  -0.39966
O     2.98320  -0.35073  -0.08166
C     1.10678  -0.01262  -1.36354
H    -1.85603  -0.35219   1.98066
H    -2.44826  -2.03915   1.78164
H    -3.55823  -0.66561   1.56345
H    -1.65096   0.31648  -1.73717
H    -0.30989   2.84732   0.57647
H    -0.36707   3.75068  -1.70605
H    -0.66031   2.14319  -2.43053
H    -2.00221   3.02131  -1.66456
H     1.54045   2.14718  -1.39960
H     3.03229   1.62111   0.71154
H     1.04044   0.77525   2.37081
H     1.90841  -2.05067  -0.78250
H     0.65006  -0.26772  -2.31757
28

C    -2.52149  -1.01025   1.40951
C    -2.25161  -0.99560  -0.08083
O    -2.62956  -1.94905  -0.79645
C    -1.63299   0.14208  -0.66489
O    -1.21834   1.13330   0.14355
C    -0.68381   2.24173  -0.24691
C    -0.92814   2.81014  -1.59261
C     1.50896   1.18909  -0.88462
C     2.32835   0.85501   0.38683
C     1.39271   0.27580   1.46717
C     1.06347  -0.90919   0.95615
F     0.24288  -1.85020   1.41750
C     1.75633  -1.04073  -0.39974
O     2.99029  -0.35914  -0.07456
C     1.12320  -0.01180  -1.36903
H    -1.85656  -0.35177   1.98086
H    -2.44678  -2.03935   1.78189
H    -3.55866  -0.66718   1.56474
H    -1.65143   0.31640  -1.73736
H    -0.31408   2.84852   0.57828
H    -0.36962   3.75162  -1.70513
H    -0.65816   2.14228  -2.42825
H    -2.00412   3.02005  -1.66965
H     1.53724   2.14942  -1.39564
H     3.03505   1.61941   0.71244
H     1.04107   0.77600   2.36993
H     1.90920  -2.05163  -0.78188
H     0.64847  -0.26746  -2.31626
28

C    -2.52188  -1.01108   1.41104
C    -2.25542  -0.99424  -0.08009
O    -2.63130  -1.95039  -0.79519
C    -1.64775   0.14609  -0.66441
O    -1.22293   1.13504   0.14219
C    -0.71049   2.25263  -0.24066
C    -0.93429   2.81160  -1.59235
C     1.53059   1.18293  -0.89189
C     2.33729   0.85110   0.38648
C     1.39369   0.27681   1.46458
C     1.06316  -0.90798   0.95420
F     0.24307  -1.84885   1.41609
C     1.76138  -1.04280  -0.39983
O     2.99739  -0.36755  -0.06746
C     1.13961  -0.01098  -1.37451
H    -1.85708  -0.35134   1.98107
H    -2.44530  -2.03955   1.78213
H    -3.55909  -0.66875   1.56603
H    -1.65190   0.31632  -1.73755
H    -0.31827   2.84973   0.58009
H    -0.37217   3.75256  -1.70422
H    -0.65601   2.14137  -2.42598
H    -2.00603   3.01878  -1.67473
H     1.53404   2.15165  -1.39168
H     3.03781   1.61771   0.71333
H     1.04170   0.77674   2.36905
H     1.90999  -2.05259  -0.78126
H     0.64688  -0.26720  -2.31494
28

C    -2.52228  -1.01190   1.41258
C    -2.25922  -0.99288  -0.07934
O    -2.63304  -1.95173  -0.79393
C    -1.66251   0.15010  -0.66392
O    -1.22753   1.13678   0.14082
C    -0.73717   2.26352  -0.23441
C    -0.94044   2.81306  -1.59208
C     1.55223   1.17676  -0.89916
C     2.34624   0.84719   0.38614
C     1.39467   0.27781   1.46199
C     1.06285  -0.90677   0.95225
F     0.24327  -1.84749   1.41468
C     1.76643  -1.04487  -0.39992
O     3.00448  -0.37596  -0.06036
C     1.15602  -0.01016  -1.38000
H    -1.85761  -0.35091   1.98127
H    -2.44382  -2.03975   1.78238
H    -3.55952  -0.67033   1.56733
H    -1.65237   0.31624  -1.73774
H    -0.32245   2.85094   0.58189
H    -0.37473   3.75349  -1.70330
H    -0.65385   2.14046  -2.42371
H    -2.00795   3.01752  -1.67982
H     1.53083   2.15389  -1.38773
H     3.04057   1.61601   0.71422
H     1.04233   0.77749   2.36818
H     1.91078  -2.05355  -0.78064
H     0.64528  -0.26694  -2.31362
28

C    -2.52268  -1.01272   1.41412
C    -2.26302  -0.99152  -0.07859
O    -2.63478  -1.95306  -0.79266
C    -1.67727   0.15411  -0.66344
O    -1.23213   1.13852   0.13945
C    -0.76385   2.27442  -0.22816
C    -0.94659   2.81452  -1.59182
C     1.57387   1.17060  -0.90642
C     2.35519   0.84328   0.38579
C     1.39565   0.27882   1.45939
C     1.06254  -0.90555   0.95031
F     0.24346  -1.84614   1.41327
C     1.77149  -1.04694  -0.40000
O     3.01157  -0.38438  -0.05325
C     1.17243  -0.00934  -1.38549
H    -1.85814  -0.35048   1.98148
H    -2.44233  -2.03995   1.78262
H    -3.55994  -0.67190   1.56862
H    -1.65284   0.31616  -1.73793
H    -0.32664   2.85215   0.58370
H    -0.37728   3.75443  -1.70238
H    -0.65170   2.13955  -2.42143
H    -2.00986   3.01625  -1.68490
H     1.52762   2.15612  -1.38377
H     3.04333   1.61431   0.71512
H     1.04296   0.77824   2.36730
H     1.91157  -2.05451  -0.78003
H     0.64369  -0.26669  -2.31231
28

C    -2.52308  -1.01354   1.41566
C    -2.26682  -0.99017  -0.07785
O    -2.63652  -1.95440  -0.79140
C    -1.69203   0.15813  -0.66296
O    -1.23673   1.14026   0.13808
C    -0.79053   2.28532  -0.22190
C    -0.95273   2.81598  -1.59156
C     1.59551   1.16443  -0.91369
C     2.36413   0.83937   0.38544
C     1.39663   0.27982   1.45680
C     1.06223  -0.90434   0.94836
F     0.24365  -1.84479   1.41186
C     1.77654  -1.04901  -0.40009
O     3.01866  -0.39279  -0.04615
C     1.18884  -0.00852  -1.39097
H    -1.85866  -0.35005   1.98169
H    -2.44085  -2.04015   1.78287
H    -3.56037  -0.67347   1.56991
H    -1.65330   0.31608  -1.73812
H    -0.33083   2.85335   0.58551
H    -0.37983   3.75537  -1.70146
H    -0.64955   2.13864  -2.41916
H    -2.01177   3.01498  -1.68998
H     1.52441   2.15836  -1.37981
H     3.04608   1.61262   0.71601
H     1.04359   0.77899   2.36642
H     1.91236  -2.05547  -0.77941
H     0.64210  -0.26643  -2.31099
28

C    -2.52348  -1.01436   1.41719
C    -2.27063  -0.98881  -0.07710
O    -2.63826  -1.95574  -0.79014
C    -1.70678   0.16214  -0.66247
O    -1.24132   1.14200   0.13671
C    -0.81721   2.29621  -0.21565
C    -0.95888   2.81744  -1.59129
C     1.61715   1.15826  -0.92095
C     2.37308   0.83546   0.38510
C     1.39761   0.28083   1.45420
C     1.06192  -0.90313   0.94642
F     0.24385  -1.84343   1.41045
C     1.78159  -1.05108  -0.40018
O     3.02576  -0.40120  -0.03905
C     1.20526  -0.00770  -1.39646
H    -1.85919  -0.34962   1.98189
H    -2.43937  -2.04035   1.78312
H    -3.56080  -0.67504   1.57121
H    -1.65377   0.31600  -1.73830
H    -0.33501   2.85456   0.58731
H    -0.38239   3.75630  -1.70054
H    -0.64740   2.13772  -2.41688
H    -2.01369   3.01372  -1.69507
H     1.52121   2.16060  -1.37585
H     3.04884   1.61092   0.71691
H     1.04422   0.77974   2.36555
H     1.91314  -2.05643  -0.77879
H     0.64051  -0.26617  -2.30967
28

C    -2.52387  -1.01518   1.41873
C    -2.27443  -0.98745  -0.07635
O    -2.64000  -1.95708  -0.78888
C    -1.72154   0.16615  -0.66199
O    -1.24592   1.14374   0.13534
C    -0.84389   2.30711  -0.20940
C    -0.96503   2.81891  -1.59103
C     1.63879   1.15210  -0.92822
C     2.38202   0.83155   0.38475
C     1.39859   0.28183   1.45161
C     1.06161  -0.90192   0.94447
F     0.24404  -1.84208   1.40904
C     1.78664  -1.05315  -0.40026
O     3.03285  -0.40961  -0.03194
C     1.22167  -0.00688  -1.40195
H    -1.85971  -0.34920   1.98210
H    -2.43789  -2.04055   1.78336
H    -3.56123  -0.67662   1.57250
H    -1.65424   0.31592  -1.73849
H    -0.33920   2.85577   0.58912
H    -0.38494   3.75724  -1.69962
H    -0.64525   2.13681  -2.41461
H    -2.01560   3.01245  -1.70015
H     1.51800   2.16283  -1.37190
H     3.05160   1.60922   0.71780
H     1.04484   0.78048   2.36467
H     1.91393  -2.05738  -0.77817
H     0.63892  -0.26591  -2.30835
28

C    -2.52427  -1.01600   1.42027
C    -2.27823  -0.98609  -0.07561
O    -2.64173  -1.95842  -0.78762
C    -1.73630   0.17016  -0.66150
O    -1.25052   1.14547   0.13398
C    -0.87057   2.31800  -0.20315
C    -0.97118   2.82037  -1.59076
C     1.66043   1.14593  -0.93548
C     2.39097   0.82764   0.38441
C     1.39957   0.28284   1.44902
C     1.06130  -0.90070   0.94253
F     0.24423  -1.84072   1.40763
C     1.79170  -1.05522  -0.40035
O     3.03994  -0.41802  -0.02484
C     1.23808  -0.00606  -1.40743
H    -1.86024  -0.34877   1.98231
H    -2.43641  -2.04075   1.78361
H    -3.56165  -0.67819   1.57379
H    -1.65471   0.31584  -1.73868
H    -0.34339   2.85697   0.59093
H    -0.38749   3.75818  -1.69870
H    -0.64310   2.13590  -2.41233
H    -2.01751   3.01118  -1.70524
H     1.51479   2.16507  -1.36794
H     3.05436   1.60752   0.71869
H     1.04547   0.78123   2.36379
H     1.91472  -2.05834  -0.77755
H     0.63733  -0.26565  -2.30704
28

C    -2.52467  -1.01682   1.42181
C    -2.28203  -0.98473  -0.07486
O    -2.64347  -1.95976  -0.78635
C    -1.75106   0.17417  -0.66102
O    -1.25512   1.14721   0.13261
C    -0.89725   2.32890  -0.19690
C    -0.97733   2.82183  -1.59050
C     1.68207   1.13977  -0.94275
C     2.39991   0.82373   0.38406
C     1.40055   0.28384   1.44642
C     1.06099  -0.89949   0.94058
F     0.24443  -1.83937   1.40622
C     1.79675  -1.05729  -0.40044
O     3.04703  -0.42644  -0.01774
C     1.25449  -0.00524  -1.41292
H    -1.86077  -0.34834   1.98251
H    -2.43493  -2.04095   1.78385
H    -3.56208  -0.67976   1.57509
H    -1.65517   0.31576  -1.73887
H    -0.34757   2.85818   0.59273
H    -0.39004   3.75912  -1.69778
H    -0.64095   2.13499  -2.41006
H    -2.01943   3.00992  -1.71032
H     1.51158   2.16730  -1.36398
H     3.05712   1.60582   0.71959
H     1.04610   0.78198   2.36292
H     1.91551  -2.05930  -0.77693
H     0.63574  -0.26539  -2.30572
28

C    -2.52427  -1.01600   1.42027
C    -2.27823  -0.98609  -0.07561
O    -2.64173  -1.95842  -0.78762
C    -1.73630   0.17016  -0.66150
O    -1.25052   1.14547   0.13398
C    -0.87057   2.31800  -0.20315
C    -0.97118   2.82037  -1.59076
C     1.66043   1.14593  -0.93548
C     2.39097   0.82764   0.38441
C     1.39957   0.28284   1.44902
C     1.06130  -0.90070   0.94253
F     0.24423  -1.84072   1.40763
C     1.79170  -1.05522  -0.40035
O     3.03994  -0.41802  -0.02484
C     1.23808  -0.00606  -1.40743
H    -1.86024  -0.34877   1.98231
H    -2.43641  -2.04075   1.78361
H    -3.56165  -0.67819   1.57379
H    -1.65471   0.31584  -1.73868
H    -0.34339   2.85697   0.59093
H    -0.38749   3.75818  -1.69870
H    -0.64310   2.13590  -2.41233
H    -2.01751   3.01118  -1.70524
H     1.51479   2.16507  -1.36794
H     3.05436   1.60752   0.71869
H     1.04547   0.78123   2.36379
H     1.91472  -2.05834  -0.77755
H     0.63733  -0.26565  -2.30704
28

C    -2.52387  -1.01518   1.41873
C    -2.27443  -0.98745  -0.07635
O    -2.64000  -1.95708  -0.78888
C    -1.72154   0.16615  -0.66199
O    -1.24592   1.14374   0.13534
C    -0.84389   2.30711  -0.20940
C    -0.96503   2.81891  -1.59103
C     1.63879   1.15210  -0.92822
C     2.38202   0.83155   0.38475
C     1.39859   0.28183   1.45161
C     1.06161  -0.90192   0.94447
F     0.24404  -1.84208   1.40904
C     1.78664  -1.05315  -0.40026
O     3.03285  -0.40961  -0.03194
C     1.22167  -0.00688  -1.40195
H    -1.85971  -0.34920   1.98210
H    -2.43789  -2.04055   1.78336
H    -3.56123  -0.67662   1.57250
H    -1.65424   0.31592  -1.73849
H    -0.33920   2.85577   0.58912
H    -0.38494   3.75724  -1.69962
H    -0.64525   2.13681  -2.41461
H    -2.01560   3.01245  -1.70015
H     1.51800   2.16283  -1.37190
H     3.05160   1.60922   0.71780
H     1.04484   0.78048   2.36467
H     1.91393  -2.05738  -0.77817
H     0.63892  -0.26591  -2.30835
28

C    -2.52348  -1.01436   1.41719
C    -2.27063  -0.98881  -0.07710
O    -2.63826  -1.95574  -0.79014
C    -1.70678   0.16214  -0.66247
O    -1.24132   1.14200   0.13671
C    -0.81721   2.29621  -0.21565
C    -0.95888   2.81744  -1.59129
C     1.61715   1.15826  -0.92095
C     2.37308   0.83546   0.38510
C     1.39761   0.28083   1.45420
C     1.06192  -0.90313   0.94642
F     0.24385  -1.84343   1.41045
C     1.78159  -1.05108  -0.40018
O     3.02576  -0.40120  -0.03905
C     1.20526  -0.00770  -1.39646
H    -1.85919  -0.34962   1.98189
H    -2.43937  -2.04035   1.78312
H    -3.56080  -0.67504   1.57121
H    -1.65377   0.31600  -1.73830
H    -0.33501   2.85456   0.58731
H    -0.38239   3.75630  -1.70054
H    -0.64740   2.13772  -2.41688
H    -2.01369   3.01372  -1.69507
H     1.52121   2.16060  -1.37585
H     3.04884   1.61092   0.71691
H     1.04422   0.77974   2.36555
H     1.91314  -2.05643  -0.77879
H     0.64051  -0.26617  -2.30967
28

C    -2.52308  -1.01354   1.41566
C    -2.26682  -0.99017  -0.07785
O    -2.63652  -1.95440  -0.79140
C    -1.69203   0.15813  -0.66296
O    -1.23673   1.14026   0.13808
C    -0.79053   2.28532  -0.22190
C    -0.95273   2.81598  -1.59156
C     1.59551   1.16443  -0.91369
C     2.36413   0.83937   0.38544
C     1.39663   0.27982   1.45680
C     1.06223  -0.90434   0.94836
F     0.24365  -1.84479   1.41186
C     1.77654  -1.04901  -0.40009
O     3.01866  -0.39279  -0.04615
C     1.18884  -0.00852  -1.39097
H    -1.85866  -0.35005   1.98169
H    -2.44085  -2.04015   1.78287
H    -3.56037  -0.67347   1.56991
H    -1.65330   0.31608  -1.73812
H    -0.33083   2.85335   0.58551
H    -0.37983   3.75537  -1.70146
H    -0.64955   2.13864  -2.41916
H    -2.01177   3.01498  -1.68998
H     1.52441   2.15836  -1.37981
H     3.04608   1.61262   0.71601
H     1.04359   0.77899   2.36642
H     1.91236  -2.05547  -0.77941
H     0.64210  -0.26643  -2.31099
28

C    -2.52268  -1.01272   1.41412
C    -2.26302  -0.99152  -0.07859
O    -2.63478  -1.95306  -0.79266
C    -1.67727   0.15411  -0.66344
O    -1.23213   1.13852   0.13945
C    -0.76385   2.27442  -0.22816
C    -0.94659   2.81452  -1.59182
C     1.57387   1.17060  -0.90642
C     2.35519   0.84328   0.38579
C     1.39565   0.27882   1.45939
C     1.06254  -0.90555   0.95031
F     0.24346  -1.84614   1.41327
C     1.77149  -1.04694  -0.40000
O     3.01157  -0.38438  -0.05325
C     1.17243  -0.00934  -1.38549
H    -1.85814  -0.35048   1.98148
H    -2.44233  -2.03995   1.78262
H    -3.55994  -0.67190   1.56862
H    -1.65284   0.31616  -1.73793
H    -0.32664   2.85215   0.58370
H    -0.37728   3.75443  -1.70238
H    -0.65170   2.13955  -2.42143
H    -2.00986   3.01625  -1.68490
H     1.52762   2.15612  -1.38377
H     3.04333   1.61431   0.71512
H     1.04296   0.77824   2.36730
H     1.91157  -2.05451  -0.78003
H     0.64369  -0.26669  -2.31231
28

C    -2.52228  -1.01190   1.41258
C    -2.25922  -0.99288  -0.07934
O    -2.63304  -1.95173  -0.79393
C    -1.66251   0.15010  -0.66392
O    -1.22753   1.13678   0.14082
C    -0.73717   2.26352  -0.23441
C    -0.94044   2.81306  -1.59208
C     1.55223   1.17676  -0.89916
C     2.34624   0.84719   0.38614
C     1.39467   0.27781   1.46199
C     1.06285  -0.90677   0.95225
F     0.24327  -1.84749   1.41468
C     1.76643  -1.04487  -0.39992
O     3.00448  -0.37596  -0.06036
C     1.15602  -0.01016  -1.38000
H    -1.85761  -0.35091   1.98127
H    -2.44382  -2.03975   1.78238
H    -3.55952  -0.67033   1.56733
H    -1.65237   0.31624  -1.73774
H    -0.32245   2.85094   0.58189
H    -0.37473   3.75349  -1.70330
H    -0.65385   2.14046  -2.42371
H    -2.00795   3.01752  -1.67982
H     1.53083   2.15389  -1.38773
H     3.04057   1.61601   0.71422
H     1.04233   0.77749   2.36818
H     1.91078  -2.05355  -0.78064
H     0.64528  -0.26694  -2.31362
28

C    -2.52188  -1.01108   1.41104
C    -2.25542  -0.99424  -0.08009
O    -2.63130  -1.95039  -0.79519
C    -1.64775   0.14609  -0.66441
O    -1.22293   1.13504   0.14219
C    -0.71049   2.25263  -0.24066
C    -0.93429   2.81160  -1.59235
C     1.53059   1.18293  -0.89189
C     2.33729   0.85110   0.38648
C     1.39369   0.27681   1.46458
C     1.06316  -0.90798   0.95420
F     0.24307  -1.84885   1.41609
C     1.76138  -1.04280  -0.39983
O     2.99739  -0.36755  -0.06746
C     1.13961  -0.01098  -1.37451
H    -1.85708  -0.35134   1.98107
H    -2.44530  -2.03955   1.78213
H    -3.55909  -0.66875   1.56603
H    -1.65190   0.31632  -1.73755
H    -0.31827   2.84973   0.58009
H    -0.37217   3.75256  -1.70422
H    -0.65601   2.14137  -2.42598
H    -2.00603   3.01878  -1.67473
H     1.53404   2.15165  -1.39168
H     3.03781   1.61771   0.71333
H     1.04170   0.77674   2.36905
H     1.90999  -2.05259  -0.78126
H     0.64688  -0.26720  -2.31494
28

C    -2.52149  -1.01025   1.40951
C    -2.25161  -0.99560  -0.08083
O    -2.62956  -1.94905  -0.79645
C    -1.63299   0.14208  -0.66489
O    -1.21834   1.13330   0.14355
C    -0.68381   2.24173  -0.24691
C    -0.92814   2.81014  -1.59261
C     1.50896   1.18909  -0.88462
C     2.32835   0.85501   0.38683
C     1.39271   0.27580   1.46717
C     1.06347  -0.90919   0.95615
F     0.24288  -1.85020   1.41750
C     1.75633  -1.04073  -0.39974
O     2.99029  -0.35914  -0.07456
C     1.12320  -0.01180  -1.36903
H    -1.85656  -0.35177   1.98086
H    -2.44678  -2.03935   1.78189
H    -3.55866  -0.66718   1.56474
H    -1.65143   0.31640  -1.73736
H    -0.31408   2.84852   0.57828
H    -0.36962   3.75162  -1.70513
H    -0.65816   2.14228  -2.42825
H    -2.00412   3.02005  -1.66965
H     1.53724   2.14942  -1.39564
H     3.03505   1.61941   0.71244
H     1.04107   0.77600   2.36993
H     1.90920  -2.05163  -0.78188
H     0.64847  -0.26746  -2.31626
28

C    -2.52109  -1.00943   1.40797
C    -2.24781  -0.99696  -0.08158
O    -2.62782  -1.94771  -0.79771
C    -1.61824   0.13807  -0.66538
O    -1.21374   1.13157   0.14492
C    -0.65713   2.23084  -0.25316
C    -0.92199   2.80868  -1.59288
C     1.48732   1.19526  -0.87736
C     2.31940   0.85892   0.38717
C     1.39173   0.27480   1.46977
C     1.06378  -0.91041   0.95809
F     0.24269  -1.85155   1.41891
C     1.75128  -1.03866  -0.39966
O     2.98320  -0.35073  -0.08166
C     1.10678  -0.01262  -1.36354
H    -1.85603  -0.35219   1.98066
H    -2.44826  -2.03915   1.78164
H    -3.55823  -0.66561   1.56345
H    -1.65096   0.31648  -1.73717
H    -0.30989   2.84732   0.57647
H    -0.36707   3.75068  -1.70605
H    -0.66031   2.14319  -2.43053
H    -2.00221   3.02131  -1.66456
H     1.54045   2.14718  -1.39960
H     3.03229   1.62111   0.71154
H     1.04044   0.77525   2.37081
H     1.90841  -2.05067  -0.78250
H     0.65006  -0.26772  -2.31757
28

C    -2.52069  -1.00861   1.40643
C    -2.24401  -0.99832  -0.08233
O    -2.62608  -1.94637  -0.79897
C    -1.60348   0.13405  -0.66586
O    -1.20914   1.12983   0.14629
C    -0.63045   2.21994  -0.25941
C    -0.91584   2.80721  -1.59314
C     1.46568   1.20142  -0.87009
C     2.31046   0.86284   0.38752
C     1.39075   0.27379   1.47236
C     1.06409  -0.91162   0.96004
F     0.24250  -1.85291   1.42033
C     1.74623  -1.03659  -0.39957
O     2.97611  -0.34232  -0.08877
C     1.09037  -0.01344  -1.35805
H    -1.85550  -0.35262   1.98045
H    -2.44974  -2.03895   1.78140
H    -3.55780  -0.66404   1.56216
H    -1.65050   0.31656  -1.73699
H    -0.30570   2.84611   0.57467
H    -0.36451   3.74975  -1.70697
H    -0.66246   2.14410  -2.43280
H    -2.00029   3.02258  -1.65948
H     1.54366   2.14495  -1.40356
H     3.02953   1.62281   0.71065
H     1.03981   0.77450   2.37168
H     1.90763  -2.04971  -0.78312
H     0.65165  -0.26798  -2.31889
28

C    -2.52029  -1.00779   1.40490
C    -2.24021  -0.99968  -0.08307
O    -2.62434  -1.94503  -0.80024
C    -1.58872   0.13004  -0.66635
O    -1.20454   1.12809   0.14766
C    -0.60377   2.20904  -0.26566
C    -0.90969   2.80575  -1.59341
C     1.44404   1.20759  -0.86283
C     2.30151   0.86675   0.38787
C     1.38977   0.27279   1.47495
C     1.06440  -0.91283   0.96198
F     0.24230  -1.85426   1.42174
C     1.74117  -1.03452  -0.39949
O     2.96902  -0.33391  -0.09587
C     1.07396  -0.01427  -1.35257
H    -1.85498  -0.35305   1.98024
H    -2.45122  -2.03875   1.78115
H    -3.55738  -0.66246   1.56086
H    -1.65003   0.31664  -1.73680
H    -0.30152   2.84490   0.57286
H    -0.36196   3.74881  -1.70789
H    -0.66461   2.14501  -2.43508
H    -1.99838   3.02385  -1.65440
H     1.54686   2.14271  -1.40752
H     3.02677   1.62451   0.70975
H     1.03918   0.77375   2.37256
H     1.90684  -2.04875  -0.78374
H     0.65324  -0.26824  -2.32021
28

C    -2.51989  -1.00697   1.40336
C    -2.23640  -1.00104  -0.08382
O    -2.62260  -1.94369  -0.80150
C    -1.57396   0.12603  -0.66683
O    -1.19995   1.12635   0.14903
C    -0.57709   2.19815  -0.27192
C    -0.90355   2.80429  -1.59367
C     1.42240   1.21375  -0.85556
C     2.29257   0.87066   0.38821
C     1.38879   0.27178   1.47755
C     1.06471  -0.91404   0.96393
F     0.24211  -1.85561   1.42315
C     1.73612  -1.03245  -0.39940
O     2.96192  -0.32549  -0.10297
C     1.05755  -0.01509  -1.34708
H    -1.85445  -0.35348   1.98004
H    -2.45270  -2.03855   1.78090
H    -3.55695  -0.66089   1.55957
H    -1.64956   0.31672  -1.73661
H    -0.29733   2.84370   0.57105
H    -0.35941   3.74787  -1.70881
H    -0.66676   2.14593  -2.43735
H    -1.99646   3.02511  -1.64931
H     1.55007   2.14048  -1.41147
H     3.02401   1.62621   0.70886
H     1.03855   0.77301   2.37344
H     1.90605  -2.04779  -0.78436
H     0.65483  -0.26850  -2.32153
28

C    -2.51949  -1.00615   1.40182
C    -2.23260  -1.00240  -0.08457
O    -2.62087  -1.94235  -0.80276
C    -1.55920   0.12202  -0.66732
O    -1.19535   1.12461   0.15040
C    -0.55041   2.18725  -0.27817
C    -0.89740   2.80283  -1.59393
C     1.40076   1.21992  -0.84830
C     2.28362   0.87457   0.38856
C     1.38781   0.27078   1.48014
C     1.06502  -0.91526   0.96587
F     0.24192  -1.85697   1.42456
C     1.73107  -1.03038  -0.39931
O     2.95483  -0.31708  -0.11007
C     1.04113  -0.01591  -1.34159
H    -1.85393  -0.35391   1.97983
H    -2.45418  -2.03835   1.78066
H    -3.55652  -0.65932   1.55828
H    -1.64909   0.31680  -1.73642
H    -0.29314   2.84249   0.56925
H    -0.35685   3.74694  -1.70973
H    -0.66891   2.14684  -2.43963
H    -1.99455   3.02638  -1.64423
H     1.55328   2.13824  -1.41543
H     3.02125   1.62790   0.70797
H     1.03792   0.77226   2.37431
H     1.90526  -2.04683  -0.78498
H     0.65642  -0.26876  -2.32284
28

C    -2.51910  -1.00533   1.40028
C    -2.22880  -1.00375  -0.08531
O    -2.61913  -1.94101  -0.80402
C    -1.54445   0.11800  -0.66780
O    -1.19075   1.12287   0.15176
C    -0.52373   2.17636  -0.28442
C    -0.89125   2.80137  -1.59420
C     1.37912   1.22609  -0.84103
C     2.27467   0.87848   0.38890
C     1.38683   0.26977   1.48273
C     1.06534  -0.91647   0.96782
F     0.24172  -1.85832   1.42597
C     1.72602  -1.02831  -0.39923
O     2.94774  -0.30867  -0.11718
C     1.02472  -0.01673  -1.33611
H    -1.85340  -0.35434   1.97962
H    -2.45567  -2.03815   1.78041
H    -3.55609  -0.65775   1.55698
H    -1.64863   0.31688  -1.73623
H    -0.28896   2.84128   0.56744
H    -0.35430   3.74600  -1.71065
H    -0.67106   2.14775  -2.44190
H    -1.99264   3.02765  -1.63914
H     1.55649   2.13601  -1.41939
H     3.01849   1.62960   0.70707
H     1.03729   0.77151   2.37519
H     1.90447  -2.04588  -0.78560
H     0.65801  -0.26902  -2.32416
28

C    -2.51870  -1.00450   1.39875
C    -2.22500  -1.00511  -0.08606
O    -2.61739  -1.93967  -0.80528
C    -1.52969   0.11399  -0.66829
O    -1.18615   1.12113   0.15313
C    -0.49705   2.16546  -0.29067
C    -0.88510   2.79991  -1.59446
C     1.35748   1.23225  -0.83376
C     2.26573   0.88239   0.38925
C     1.38585   0.26877   1.48533
C     1.06565  -0.91768   0.96976
F     0.24153  -1.85967   1.42738
C     1.72097  -1.02624  -0.39914
O     2.94065  -0.30026  -0.12428
C     1.00831  -0.01755  -1.33062
H    -1.85287  -0.35476   1.97942
H    -2.45715  -2.03795   1.78017
H    -3.55567  -0.65617   1.55569
H    -1.64816   0.31696  -1.73604
H    -0.28477   2.84008   0.56564
H    -0.35175   3.74506  -1.71157
H    -0.67321   2.14866  -2.44418
H    -1.99072   3.02891  -1.63406
H     1.55969   2.13377  -1.42335
H     3.01573   1.63130   0.70618
H     1.03666   0.77076   2.37607
H     1.90368  -2.04492  -0.78622
H     0.65961  -0.26928  -2.32548
28

C    -2.51830  -1.00368   1.39721
C    -2.22119  -1.00647  -0.08681
O    -2.61565  -1.93833  -0.80655
C    -1.51493   0.10998  -0.66877
O    -1.18156   1.11940   0.15450
C    -0.47037   2.15457  -0.29692
C    -0.87895   2.79845  -1.59473
C     1.33584   1.23842  -0.82650
C     2.25678   0.88630   0.38959
C     1.38487   0.26777   1.48792
C     1.06596  -0.91890   0.97171
F     0.24134  -1.86103   1.42879
C     1.71591  -1.02417  -0.39905
O     2.93355  -0.29185  -0.13138
C     0.99190  -0.01837  -1.32513
H    -1.85235  -0.35519   1.97921
H    -2.45863  -2.03775   1.77992
H    -3.55524  -0.65460   1.55440
H    -1.64769   0.31704  -1.73586
H    -0.28058   2.83887   0.56383
H    -0.34919   3.74412  -1.71249
H    -0.67536   2.14957  -2.44645
H    -1.98881   3.03018  -1.62898
H     1.56290   2.13153  -1.42730
H     3.01297   1.63300   0.70528
H     1.03603   0.77001   2.37694
H     1.90290  -2.04396  -0.78683
H     0.66120  -0.26954  -2.32679
28

C    -2.51790  -1.00286   1.39567
C    -2.21739  -1.00783  -0.08755
O    -2.61391  -1.93699  -0.80781
C    -1.50017   0.10597  -0.66925
O    -1.17696   1.11766   0.15587
C    -0.44369   2.14367  -0.30317
C    -0.87280   2.79698  -1.59499
C     1.31420   1.24458  -0.81923
C     2.24784   0.89021   0.38994
C     1.38389   0.26676   1.49051
C     1.06627  -0.92011   0.97365
F     0.24114  -1.86238   1.43020
C     1.71086  -1.02210  -0.39897
O     2.92646  -0.28343  -0.13848
C     0.97548  -0.01919  -1.31965
H    -1.85182  -0.35562   1.97900
H    -2.46011  -2.03755   1.77968
H    -3.55481  -0.65303   1.55310
H    -1.64722   0.31712  -1.73567
H    -0.27640   2.83766   0.56202
H    -0.34664   3.74319  -1.71340
H    -0.67751   2.15048  -2.44873
H    -1.98690   3.03144  -1.62389
H     1.56611   2.12930  -1.43126
H     3.01021   1.63470   0.70439
H     1.03540   0.76927   2.37782
H     1.90211  -2.04300  -0.78745
H     0.66279  -0.26979  -2.32811
28

C    -2.51750  -1.00204   1.39414
C    -2.21359  -1.00919  -0.08830
O    -2.61217  -1.93565  -0.80907
C    -1.48541   0.10196  -0.66974
O    -1.17236   1.11592   0.15724
C    -0.41701   2.13277  -0.30942
C    -0.86665   2.79552  -1.59525
C     1.29256   1.25075  -0.81197
C     2.23889   0.89412   0.39029
C     1.38291   0.26576   1.49311
C     1.06658  -0.92132   0.97560
F     0.24095  -1.86374   1.43161
C     1.70581  -1.02003  -0.39888
O     2.91937  -0.27502  -0.14559
C     0.95907  -0.02001  -1.31416
H    -1.85130  -0.35605   1.97880
H    -2.46159  -2.03735   1.77943
H    -3.55438  -0.65146   1.55181
H    -1.64675   0.31720  -1.73548
H    -0.27221   2.83646   0.56022
H    -0.34409   3.74225  -1.71432
H    -0.67966   2.15139  -2.45100
H    -1.98498   3.03271  -1.61881
H     1.56932   2.12706  -1.43522
H     3.00745   1.63640   0.70350
H     1.03477   0.76852   2.37870
H     1.90132  -2.04204  -0.78807
H     0.66438  -0.27005  -2.32943
28

C    -2.51710  -1.00122   1.39260
C    -2.20979  -1.01055  -0.08905
O    -2.61043  -1.93431  -0.81033
C    -1.47066   0.09794  -0.67022
O    -1.16776   1.11418   0.15861
C    -0.39033   2.12188  -0.31568
C    -0.86051   2.79406  -1.59552
C     1.27093   1.25691  -0.80470
C     2.22995   0.89803   0.39063
C     1.38193   0.26475   1.49570
C     1.06689  -0.92253   0.97754
F     0.24076  -1.86509   1.43302
C     1.70076  -1.01796  -0.39879
O     2.91228  -0.26661  -0.15269
C     0.94266  -0.02083  -1.30867
H    -1.85077  -0.35648   1.97859
H    -2.46307  -2.03715   1.77919
H    -3.55396  -0.64988   1.55052
H    -1.64629   0.31728  -1.73529
H    -0.26802   2.83525   0.55841
H    -0.34153   3.74131  -1.71524
H    -0.68181   2.15230  -2.45328
H    -1.98307   3.03398  -1.61372
H     1.57252   2.12483  -1.43918
H     3.00469   1.63810   0.70260
H     1.03414   0.76777   2.37957
H     1.90053  -2.04108  -0.78869
H     0.66597  -0.27031  -2.33075
