15

C -2.942245618 -1.248833031 0.838001998
N -0.909102376 -0.534021220 -0.824828906
C -0.708922290 -0.731012035 -3.379345167
C 1.538870010 0.245396962 -4.335002307
C 1.705100147 1.099418206 2.615902218
C 2.654553373 1.049388765 -2.092058439
N 1.211777523 0.597957175 -0.012254779
H -3.776340286 0.393674776 1.767207867
H -2.318120347 -2.603981958 2.262221342
H -4.384145693 -2.144191693 -0.320747826
H -2.292864271 -1.604157837 -4.342427608
H 3.534261985 2.029575212 2.718109681
H 1.789150667 -0.644400993 3.714947071
H 0.283503819 2.356049683 3.425597839
H 4.459768016 1.960218937 -1.766008684

