14

C -3.577627836 -0.115930125 0.067786876
C -0.813964644 -0.649182151 0.038935766
N 0.379263120 -2.129488339 2.027884644
C 1.437301521 0.340373161 1.790333674
C 3.354449763 0.577863906 -0.357502829
C 1.016903957 0.221266369 -1.764249160
O 0.786681969 1.739201124 -3.628844101
H -3.999663149 1.567422544 -1.042081535
H -4.228451252 0.147775657 2.003406096
H -4.617672473 -1.703976742 -0.738406061
H 1.576550204 -3.451153285 1.323245173
H 0.970804769 1.765452292 3.181599198
H 4.886691333 -0.788985450 -0.327547042
H 2.776149255 2.386367636 -2.664265998

