11

C -3.300886573 -0.044534665 2.117852899
C -3.209158662 -1.541981029 -0.253998523
H -5.129919021 -1.991717686 -0.870110675
H -2.239697677 -0.440859782 -1.692994316
H -2.204019383 -3.316550588 0.081108670
O -4.436708992 -1.099166986 4.085505565
H -5.064503997 -2.751939426 3.660200477
C -2.297709491 2.340855340 2.421680363
C -1.107412598 3.459489207 0.350259962
H -0.425258751 5.343703851 0.926457942
H -2.534321060 3.159048095 4.302325238

