17

C -3.860366259 0.500665495 -0.287254207
C -1.045923858 0.173583609 0.004430992
C 0.760884996 0.418497311 -2.245036815
C 3.052234217 0.505933522 -0.554011216
O 4.861812257 -1.201105446 -0.974473729
C 0.180278247 -2.066519811 1.175885709
C 0.489789951 1.452461452 2.023500423
H -4.609635789 -0.854461286 -1.653554938
H -4.811676179 0.180578921 1.516943178
H -4.335320480 2.403723335 -0.933626694
H 0.593457435 2.181428425 -3.312637645
H 0.614898362 -1.198879991 -3.537821322
H 6.344387704 -0.710693624 -0.047925836
H -0.444282927 -2.726878407 3.013186560
H 1.127183480 -3.466863335 0.014200158
H -0.122546623 1.021851053 3.944920240
H 1.172403435 3.377613800 1.911650651

