10

C 0.740020530 0.437363921 -0.068044465
C 3.145095170 0.989933200 -0.313751096
N 0.166030355 -4.275379142 0.051132795
N -0.511941755 -2.147572678 0.088314933
C -2.943543406 -0.728575385 0.304083711
C -1.808500404 1.520824978 0.164740787
H 3.816900290 2.917469853 -0.406251055
H 4.493912570 -0.547293107 -0.429333114
H -4.826849980 -1.496925233 0.492883621
H -2.492773125 3.436700131 0.204056482

