10

C 1.418729444 1.345922397 -0.002165135
C 3.839508993 0.532103262 0.274310036
N -0.621241341 -5.058577230 0.437161569
N -1.593357277 -3.163913648 0.302957132
C -2.623373251 -0.952988204 0.127901086
C -1.091234502 1.322965267 0.146883404
H 2.558064618 3.220178845 0.083978295
H 4.871006436 0.584488794 -1.533596276
H -4.651904597 -0.931928246 -0.055864121
H -2.109365666 3.090491685 0.219620777

