13

N -2.505091702 0.354374406 0.052818261
C -3.107270015 -0.671942560 2.317869996
O -1.814133565 -2.199219214 3.418804727
C -0.231329028 -0.352725658 -1.283947373
C 2.134760108 0.819846416 -0.083289471
C 4.402184678 0.201988139 -1.525072742
N 6.149664088 -0.296702478 -2.706192596
H -3.686394047 1.627028455 -0.710299050
H -4.919313675 0.033216774 3.072485580
H -0.411388729 0.251638898 -3.244133146
H -0.050541387 -2.406423961 -1.265350390
H 1.953141459 2.873288661 0.008921151
H 2.346076389 0.111622097 1.841715384

