15

C 4.434492910 -0.600499367 1.874034236
C 2.196917547 0.078312008 0.318739161
O 0.351809443 -1.453297278 0.925459581
C -2.001997739 -1.258085149 -0.345975934
N -3.715811905 -2.751928957 0.293186889
C -2.292943677 0.739263657 -2.352597588
N -2.272572052 3.326648339 -1.451917796
H 4.123063683 -2.078218482 3.284902608
H 5.155659869 1.124335833 2.751782975
H 5.911684452 -1.177917675 0.543833756
H -0.787916905 0.517600540 -3.742540928
H -3.128165850 -3.934835490 1.693702585
H -4.086814767 0.334533869 -3.278763813
H -3.569346867 3.593953841 -0.075341321
H -0.537678351 3.747061210 -0.765874931

