14

C -1.311923484 2.265570050 -1.231012686
C -1.500361625 -2.464391008 2.798745863
O -1.001052991 -2.854388169 0.360291781
C 1.310562975 -1.803087265 -0.577958052
C 1.231392748 1.027154701 -1.010601116
N 3.352986511 2.096122258 -1.238207913
O -0.240816001 -1.249434379 4.226335911
H -1.119536155 4.203560535 -1.898343068
H -2.247358060 2.297408307 0.608428468
H -2.533177171 1.217515374 -2.521778645
H -3.266241165 -3.432243193 3.302100816
H 1.608080984 -2.745383286 -2.385293062
H 2.869441708 -2.245722199 0.689457090
H 3.152653923 3.970072344 -1.623572071

