14

C -3.781645938 1.190874242 -0.061126725
C -1.394059541 -0.094196214 0.765233974
O -0.748217859 -2.058728338 -0.883618040
C 1.906510559 -2.295412453 -0.743440405
C 2.770161639 0.336147129 -0.070336872
N 4.984475022 1.165661951 -0.199625679
O 0.694768732 1.626147862 0.696388360
H -4.233144576 2.733554602 1.225861199
H -5.331837921 -0.165180299 -0.045067493
H -3.548299400 1.933198896 -1.967680653
H -1.533687663 -0.809405528 2.713251290
H 2.647891294 -2.916669800 -2.556472600
H 2.480639874 -3.635538550 0.730517910
H 5.086445759 2.989546502 0.396115735

