14

C -2.035211622 1.484949585 -0.576734435
C -1.256211806 -0.939768493 1.958153032
O -0.754088407 -3.001193130 0.332982877
C 1.505812559 -2.348242941 -0.822391934
C 1.775014174 0.446348567 -0.427254246
N 3.238879934 2.125689820 -0.840155586
O 0.580351749 -0.087392293 3.212701615
H -1.768197762 3.391910523 0.147975779
H -4.022068290 0.964225385 -0.348377927
H -1.718078427 1.421162466 -2.617024565
H -3.097572262 -1.253987240 2.845069740
H 1.454143799 -2.809543645 -2.832037395
H 3.154847309 -3.205777186 0.081771983
H 3.125839352 3.965253259 -0.389615172

