12

O -3.887633306 1.357828956 -1.272351390
C -3.013832034 -0.910311461 -0.458204029
C 1.473597396 0.487632942 -0.552523340
C -0.577118182 -1.380940382 -0.110290653
C 4.994224213 0.131702421 2.083915798
O 2.751759108 1.039060826 1.821697553
H -5.694068826 1.334228072 -1.351446690
H -4.433075823 -2.353761225 -0.121203764
H 2.920754273 -0.226771954 -1.836143413
H 0.732183306 2.283874768 -1.226211251
H -0.041202228 -3.250743559 0.524477593
H 5.531606463 0.778829533 4.015321685

