12

O -2.354701307 4.143865089 -1.391284460
C -2.187066272 2.402081767 -0.146319699
C -2.327735557 0.169769291 1.099445267
C 0.054107111 -2.077240832 -0.908159214
N 2.310396262 -1.985465829 0.164593823
C 3.456639765 0.275196242 0.159021644
O 2.388465251 2.320808936 -0.193561793
H -1.329429774 0.096334062 2.881288363
H -4.210405180 -0.643062424 1.053924373
H -0.245618703 -1.164083160 -2.736576085
H -1.039603348 -3.791589469 -0.619850389
H 5.474667824 0.230739849 0.647142267

