12

O 2.415234526 3.587644859 -0.580698042
C 1.035599944 1.866686281 -0.264897821
C 1.348032106 -0.832262673 1.226777659
C 3.648782998 -1.760836768 0.101488082
C -1.541701840 1.133610967 -1.148207382
C -1.286942457 -1.385145136 0.128774461
N -3.122688555 0.402585156 0.986318154
H 3.166192356 -2.446949724 -1.821961887
H -2.420584983 1.715070569 -2.898230760
H 1.413368574 -0.599766191 3.281674691
H -1.908233668 -3.191261103 -0.595860354
H -2.655467736 1.269989818 2.630733696

