12

C -2.186209055 1.868645625 -0.375340445
C -1.225739292 -0.413445601 1.023080206
N -0.253044986 -2.395057958 -0.879420656
C 1.521657515 -0.947391988 0.712952074
C 3.246916826 0.616363164 -0.758135426
N 4.588687872 1.935907214 -1.838997069
H -1.154889567 2.371963709 -2.118431873
H -4.178913159 1.630216196 -0.848541265
H -2.062242057 3.493559571 0.889207132
H -0.527978953 -4.235843653 -0.469026566
H -0.131636734 -2.013338836 -2.758976520
H 2.501207446 -2.032867625 2.152259501

