12

C -2.153053337 1.681567652 -0.390869629
C -1.064745719 -0.527190994 1.000723385
N 0.225724290 -2.800771423 -1.132012410
C 1.639959624 -1.116373755 0.557865879
C 3.242107435 0.691349519 -0.750767062
N 4.517729129 2.142257540 -1.734777521
H -1.054192922 2.368598296 -2.008959755
H -4.088651656 1.299718045 -0.983487855
H -2.254617367 3.223605618 0.983155717
H -1.581301788 -2.907904872 0.124602815
H -0.007881141 -2.017289479 -2.869123686
H 2.684109370 -2.118066608 2.014881703

