14

C -2.014711590 -1.932494784 0.892415944
C -1.072570357 0.692794951 0.120662887
C 1.588249121 0.633570424 -1.013235508
C 3.634144442 0.181941565 0.911277659
O 3.299566655 0.084551430 3.151409501
C -2.825381874 1.857538779 -1.680810741
N -4.187991781 2.741824346 -3.116960700
H -3.892852616 -1.818259139 1.728006556
H -0.732931997 -2.746013547 2.281722465
H -2.114369415 -3.180005498 -0.746707798
H -1.028505591 1.900175082 1.796756324
H 1.744141718 -0.811146193 -2.486801950
H 2.044735011 2.424210063 -1.947383124
H 5.558478274 -0.028687441 0.109648486

