14

C -2.636941881 -2.637203929 0.302178035
C -0.744320545 -0.585855784 0.948950956
C 1.610447771 -0.496502466 -0.883831239
C 3.488055630 1.569196467 -0.765684315
O 1.408789446 4.637437061 -1.194161175
C -1.697381825 2.102480770 0.701472177
N -0.427613482 3.682365377 -0.156866279
H -4.248929288 -2.603029045 1.582992148
H -1.731690483 -4.484224020 0.452866384
H -3.334005572 -2.419264971 -1.625979865
H -0.117625984 -0.785861128 2.907940399
H 2.864652008 -2.095125956 -0.403995213
H 0.933991109 -0.831654313 -2.809221655
H 3.865888530 2.050208602 1.225946274

