16

C 3.621792682 1.059540582 0.488939347
N 2.063385417 -0.776974540 -0.841598714
C 0.007795706 -1.928124207 0.525422475
C -2.153244237 -0.242469474 1.379009914
C -1.653389870 1.864119939 -0.571653567
C -0.187578826 -0.102582857 -2.097514381
C -3.466229313 -2.010980515 -0.435126334
H 2.638237156 2.069904594 2.000563513
H 4.367184891 2.424188558 -0.865628055
H 5.210022509 0.045521745 1.321870832
H 0.198086554 -3.912802190 0.958966901
H -2.664475021 0.024081555 3.352175667
H -0.484226672 3.464134381 -0.003724442
H -3.383455132 2.505079929 -1.462890057
H -0.424900081 -0.592645551 -4.064514959
H -3.659611091 -3.913917715 0.402379818

