14

O 4.074081112 -0.435426876 0.768771806
C 1.514313794 0.000359993 0.805168951
C 0.675477388 2.165362276 -0.625758391
N -1.909335529 2.475779518 -0.581769913
C -2.583144893 -2.150375709 -0.772460646
C 0.018801754 -2.291154107 -0.819576715
O 1.564249920 -3.592639915 -1.939208887
H 4.261534158 -1.848525371 -0.404587378
H 0.669383040 -0.144514727 2.690979412
H -0.444353621 4.014820907 0.569991004
H 1.834322132 2.755473025 -2.223754020
H -2.476410913 3.491067892 -2.128328123
H -3.627895477 -3.129600077 -2.230591049
H -3.587777196 -1.504917169 0.875091993

