13

N 3.935700644 3.437186603 1.769539071
C 2.589031674 2.058151046 0.694850142
C 2.698141096 -0.905001104 -0.772163807
C 0.078940361 -0.927938070 -1.735533392
C -1.993582808 -1.872372184 0.023723206
C -1.655233071 0.592516105 1.502956257
N 0.118884711 1.641063583 -0.485666436
H 3.884776853 -0.311639119 -2.377250048
H -0.222630147 -0.910479231 -3.766730065
H -3.827623674 -2.035063317 -0.892703163
H -1.551978644 -3.605557440 1.034258560
H -3.290826842 1.834217253 1.627035920
H -0.757498229 0.412231622 3.342497076

