12

N 1.413860111 4.397020132 -0.014285914
C -0.172889588 2.507218834 -0.303173978
C 0.889240882 0.092871762 0.352438571
O 2.274389742 -4.696182864 1.720235379
N 0.262477762 -4.524108712 0.723185357
C -0.660044089 -1.941287793 0.370049874
N -3.175919967 -1.949052016 -0.006561942
H 3.207466015 4.207391842 0.649870692
H 0.881367641 6.166558239 -0.457421682
H 2.877421549 -0.229304546 0.793194929
H -3.928182841 -0.294186818 -0.585435245
H -3.991560193 -3.585410371 -0.517381199

