16

C -3.734975353 0.626198603 0.148342443
C -1.426377335 -0.917971352 -0.617702451
C 0.983871791 -0.177588203 0.795564513
C 3.163643096 -2.030843521 0.263125560
C 2.111751729 2.387425259 0.293473182
O 1.334212558 3.192369730 -1.919800152
H -3.485471033 2.627670204 -0.280977519
H -4.097296398 0.457886876 2.174700301
H -5.424147225 -0.020575451 -0.842705451
H -1.794973594 -2.920032435 -0.251329134
H -1.111038397 -0.752196905 -2.652607994
H 0.635626314 -0.230411018 2.836667451
H 2.631191577 -3.926584568 0.872375795
H 3.582124836 -2.100661966 -1.757578068
H 4.882267767 -1.479031360 1.257042832
H 2.143136470 4.786999398 -2.253334451

