16

C 3.736328529 0.854945452 0.325777464
C 1.366529444 -0.541405325 1.161826506
C -0.815720275 -0.408537774 -0.737275325
C -3.040789374 -2.057786007 0.073239265
C -1.664870901 3.827814857 -2.985772530
C -1.683156042 2.287912093 -1.099408531
H 4.448279029 0.100057653 -1.459772859
H 3.368744332 2.865134512 0.047532130
H 5.235488382 0.666110355 1.728347576
H 1.806142574 -2.538304980 1.471781105
H 0.710232153 0.196104703 2.981790140
H -0.122551630 -1.081766086 -2.564596475
H -3.774810931 -1.447219578 1.904994469
H -4.578667033 -1.959537993 -1.294320590
H -2.450586879 -4.026854192 0.249417808
H -2.551780466 3.310976123 0.490870534

