19

C -4.272231765 -0.226363716 0.197192449
C -2.209636348 -1.188322261 -1.504794544
C 0.249515582 -0.026087990 -1.718225221
C 1.074203458 2.279162491 -0.270212505
C 3.908306381 2.340741106 0.211380021
C 0.434050570 -2.731102682 2.224557210
C 0.106070838 -2.740703322 -0.397469459
H -5.264499382 1.325600641 -0.736975104
H -5.640707269 -1.717164423 0.588897752
H -3.530735189 0.439851897 1.992288289
H -2.883492313 -2.138957606 -3.191223611
H 1.191047795 -0.251508525 -3.527619617
H 0.511869907 3.925881627 -1.393114811
H 0.067416339 2.388333575 1.519679426
H 4.980007577 2.175132595 -1.546447283
H 4.467323821 4.101825599 1.125694640
H 4.455937484 0.782729115 1.449050458
H 1.410932812 -4.493517882 2.767209906
H 0.712578381 -4.252229298 -1.655043910

