19

C -3.984722899 -0.137240925 0.632397792
C -2.309788753 -1.237916706 -1.381945225
C 0.038449161 0.039647852 -2.268007456
C 1.132750896 2.376561413 -1.028665991
C 3.227383275 1.626416033 0.768603771
C 1.264594839 -2.114024635 1.861831821
C 0.250661210 -2.385526425 -0.704824853
H -5.050225964 1.479189039 -0.086772274
H -5.335563346 -1.552796800 1.284009092
H -2.892199472 0.458358041 2.273400319
H -3.313967635 -2.253245086 -2.854448999
H 0.489871454 -0.197345044 -4.251049202
H 1.861806649 3.637545137 -2.492194132
H -0.316543110 3.431160229 -0.003757872
H 4.818160452 0.712896233 -0.154921978
H 3.889559750 3.123833521 2.025709626
H 2.157409326 0.260801178 2.271125372
H 3.000293791 -3.243568061 2.024587733
H 0.840030902 -4.031449741 -1.780249679

