18

C 4.508893242 0.302342631 -1.025331871
N 2.910629801 -1.254230051 0.099133181
C 1.059636051 0.000385504 1.682715018
O 1.830415086 1.464416710 3.286424423
C -1.303937860 -0.056743789 0.440888090
C -2.385174369 -2.327536550 -0.899630086
C -3.249605679 1.815643891 1.322706752
H 2.016927218 2.104619354 -2.341717490
H 5.549376446 -0.355141484 -2.658124879
H 5.222915033 1.869733597 0.070099580
H 2.259267133 -2.688388012 -0.971367170
H 0.524533794 1.737443490 -1.742163307
H -3.914409157 -3.139251626 0.235130987
H -1.054697837 -3.864173244 -1.249902578
H -3.214030527 -1.802334493 -2.718153277
H -4.597128750 2.241570566 -0.183490668
H -4.329274736 1.047871032 2.915507052
H -2.372785872 3.563309570 1.960740917

