18

C 4.298133523 0.548724083 0.024159166
C 1.645925811 0.495227940 -0.965605830
C 2.280997245 2.084848114 1.294094466
C -3.952301680 0.328577528 0.885234417
C -2.769106435 -1.425724567 -1.067972786
C 0.062658802 -1.862755972 -0.702099755
H -3.669695085 -0.394907255 2.799961448
H 5.726018973 1.533593611 -1.058445070
H 4.979013713 -1.121156501 0.993063418
H 1.337073924 1.526471498 -2.713577853
H 2.333137831 4.118393338 1.080214242
H 1.605189249 1.445863322 3.117470284
H -5.983872670 0.518387819 0.580958729
H -3.124058172 2.215132428 0.805150016
H -3.733381123 -3.254013239 -1.021567915
H -3.090330907 -0.660192943 -2.964455116
H 0.397229389 -2.693354609 1.167112712
H 0.706701219 -3.264833886 -2.080752454

