18

C 2.463479082 -0.570423109 1.953008404
C 1.937457961 0.337439361 -0.610314113
C 0.969852895 2.890126669 -0.763655561
C -2.499946394 0.167284623 1.700162273
C -2.510433807 -1.150790298 -0.848238550
C 0.184829426 -1.515776782 -1.966979130
H -0.221966361 0.064629295 2.452295456
H 3.430348724 0.686103412 3.260606134
H 2.919079163 -2.559030835 2.183318227
H 3.817884233 0.401814469 -1.554075332
H 0.233550685 3.579533039 -2.548164437
H 1.579218951 4.312149962 0.579895248
H -3.203641191 -1.007703542 3.244696813
H -3.498409799 1.953483273 1.731455004
H -3.450243892 -2.986798576 -0.743802061
H -3.591472234 0.007773955 -2.169099191
H 0.875241791 -3.445018592 -1.707217301
H 0.153979571 -1.150870913 -3.997539929

