11

C -3.173572662 -0.288606552 0.746340662
C -0.752431835 -1.150829207 0.687628478
O 0.250204822 -3.187684494 1.401728371
C 1.172295853 0.646955865 -0.445239298
O 0.748689705 2.889991044 -1.378537992
N 3.448664762 -0.233638160 -0.441986966
H -1.038827936 3.239243914 -1.244392968
H -4.662324263 -1.451844475 1.519440904
H -3.738122994 1.556884580 0.058261730
H 3.442708742 -2.015301884 0.349327458
H 4.959132963 0.690620840 -1.124599997

