14

C 3.262086810 0.455992501 -0.880736699
C 1.656557486 -0.572728462 1.213842748
O 0.583092060 1.154614650 2.897813111
C -1.644513751 0.186177386 1.755308167
C -2.611986517 1.954733743 -0.258439096
O -4.378651900 0.741872650 -1.828221624
H 2.282576111 1.874562471 -2.000460825
H 3.872363488 -1.070071081 -2.124596122
H 4.934629924 1.341526195 -0.061273670
H 2.469945423 -2.174999558 2.229677725
H -0.267267934 -1.657116202 0.493593081
H -1.210479451 2.850792077 -1.480993992
H -3.478216941 3.481831591 0.864954009
H -5.295372915 -0.429450901 -0.781769021

