11

N 3.606231335 0.634913736 1.035649795
C 2.342588937 -0.448342134 -0.511030378
O 1.129555955 -2.564964972 -1.030177186
C -1.366494938 -1.749606145 -0.063671903
C -1.291702242 1.230308197 -0.177283712
O -0.608305466 2.592678524 1.707010376
H 2.149535820 2.194057484 1.572319712
H 0.659566234 1.164910085 -1.669880093
H -1.516114590 -2.391907614 1.887703494
H -2.785474638 -2.601888614 -1.281580888
H -2.716686188 2.023357900 -1.469457970

