10

C 1.159978581 1.009012631 -0.141326475
C -1.266833730 2.601532911 -0.801497251
H -1.827054945 4.375988199 0.040178166
O -0.993195567 2.495264994 -3.462468096
C 0.603168737 0.396696165 -3.001040724
H 1.977243026 -0.101779553 -4.427191878
C -0.728102859 -1.456899417 -1.431937854
H -0.308242110 -3.432265662 -1.156750324
C -2.072263615 0.128045234 0.148993491
H -2.938925653 -0.330290754 1.935808135

