18

C -3.010776101 -0.794092246 -2.178737096
C -2.202267021 0.774204428 0.092187965
C 0.656316623 0.870008781 0.511911765
C 1.367203264 2.613301804 2.689672005
N 1.700000305 -1.654778932 0.895113187
C 3.219932406 -3.401222129 -1.249217136
O 2.996469760 -2.846971636 -3.385656361
H -2.134218437 -0.096976455 -3.910726099
H -2.464624748 -2.771780001 -1.973629001
H -5.057201888 -0.725105432 -2.422810910
H -2.870799987 2.718110739 -0.130217645
H -3.099213338 0.054226863 1.816627606
H 1.536323926 1.559019385 -1.233149797
H 0.693390479 4.531966552 2.341549720
H 0.528810036 1.953440792 4.458884833
H 3.412461559 2.681139589 2.936183528
H 0.797710807 -2.757103348 2.184582019
H 3.952114068 -2.722070018 0.926012251

