12

C -3.401094591 -0.123078354 -0.185066019
C -0.619620579 -0.268140610 0.102733732
C 1.374382296 1.774017117 0.613636591
O 2.969154770 1.917538528 -1.570191446
C 3.288073455 -0.133875965 0.172071091
C 1.158567673 -2.016662751 -0.290545996
H -3.893715503 1.251195245 -1.646804288
H -4.297087050 0.500596406 1.566983598
H -4.192957150 -1.951113651 -0.710329399
H 1.364606365 3.355177478 1.906741332
H 5.115780620 -0.373746461 1.048687016
H 1.125162153 -3.930737260 -1.007251029

