13

O 4.867901559 1.863736098 0.018561797
C 2.927977298 1.161172812 -0.623607429
C 1.249033171 -2.491262252 -0.327153280
C -1.225223529 -2.229428603 0.364789197
C -1.885855115 2.064154498 0.667103312
N 0.018593658 3.244904891 -0.361285116
H 1.746085018 -2.967457475 -2.252492370
H 2.671380363 -2.949541926 1.073655646
H -2.704015707 -2.477397426 -1.025289598
H -1.772769935 -2.454865692 2.321117812
H -3.667490077 1.815474722 -0.318760458
H -1.921789769 1.915352304 2.710122697
H -0.275089870 3.555715800 -2.235355804

