14

C -3.008321328 -0.529243558 0.648510769
C -0.301212083 0.336760326 0.641040738
C 0.680085617 1.980599520 -1.291935756
C 1.406851438 -0.897430048 -1.528433714
C 3.925445535 -1.602984298 -1.102966602
O 0.763602101 0.649864682 3.003469041
H -3.178930999 -2.367028822 1.573778297
H -4.162652519 0.832003762 1.682021829
H -3.748263359 -0.705707544 -1.264569630
H 2.217612032 3.229697377 -0.796060604
H -0.551274760 2.629292137 -2.788244901
H 0.289813350 -1.886905557 -2.938652833
H 4.644714945 -0.408623625 0.451595675
H 0.606506806 -0.898799212 3.937987723

