14

C -3.248261366 -0.354612002 0.702619543
C -0.498684136 0.201380875 0.408641048
C 0.611797302 1.937266343 -1.517194927
C 1.411566286 -0.793362642 -1.432664738
C 3.339301322 -1.417142508 0.528674751
O 0.947242001 0.156436971 2.690315249
H -3.536086724 -2.215693355 1.543765762
H -4.131526538 1.056910404 1.922083999
H -4.192376040 -0.311068441 -1.128343961
H 1.926560704 3.385332310 -0.906604990
H -0.653380555 2.476665251 -3.031839480
H 1.022315585 -2.097113683 -2.959485401
H 4.951830608 -0.121905571 0.603574272
H 1.804539822 -1.682071585 2.717122526

