14

C 3.638228821 0.254987020 -0.090317722
C 0.815796261 0.093828285 -0.023013576
C -0.714742816 -1.040579297 -2.091840214
C -3.136634318 0.966411212 1.298013644
C -2.859430279 -1.350692765 -0.313903862
N -0.327418937 -2.493597519 0.189799141
C -0.812998559 1.880305311 1.480871897
H 4.247860421 2.026181585 -0.953136964
H 4.428521451 -1.307500693 -1.175401316
H 4.413112360 0.167003488 1.818476987
H -0.307177230 -1.693607853 -3.987613594
H -4.877331500 1.665032511 2.098138671
H -4.369644596 -2.678573266 -0.678927990
H -0.140104522 3.531509599 2.473044271

