15

C 3.408451220 -0.584095353 -1.471567377
C 1.509487188 -0.021170753 0.653384259
C -0.153361404 -2.299174350 0.933158779
C -2.709655576 -1.492851230 0.069026177
C -2.736320688 1.339644840 -0.278440335
O -2.032406343 2.598316125 1.990558358
C -0.155820958 2.243972540 0.101632495
H 2.445106504 -0.910593087 -3.267749186
H 4.519404862 -2.257033042 -1.024735398
H 4.680262507 1.019593510 -1.719689872
H 2.565824873 0.220078657 2.417988575
H -3.005824773 -2.537055002 -1.706277560
H -4.173267772 -2.211190478 1.340660530
H -4.118135485 2.311221883 -1.440907326
H 0.576834307 3.958794590 -0.756081747

