15

C 3.942729103 -0.379821950 -1.305359955
C 1.271035328 -0.286901168 -0.340081803
C -0.213660032 -2.445860278 0.229189291
C -2.901933621 -1.463016177 0.451073544
C -2.909279025 1.355325126 -0.041244803
O -1.477557487 2.747305628 1.759044420
C -0.301747802 2.097728147 -0.571325283
H 3.920517526 -0.124142912 -3.353530355
H 4.778345397 -2.216849206 -0.902880567
H 5.113860488 1.113627907 -0.499072644
H 1.324508814 -0.913131688 1.855229155
H -3.949449838 -2.468811512 -1.025257945
H -3.792193217 -1.989504495 2.236858080
H -4.536071812 2.337848087 -0.811407920
H 0.257264253 3.664194716 -1.770332208

