11

O -3.162763996 -0.879229737 -0.547971708
C -1.859663454 1.337643431 0.168965836
C 0.883861966 1.124230102 0.771818762
C 1.968156713 -1.430917497 0.846403701
O 2.403166130 -0.521126410 -1.688606976
H -2.526441639 -1.394550152 -2.167923384
H -2.145428689 2.850462773 -1.215000791
H -2.719463708 1.999232541 1.934919170
H 2.696965195 1.486559179 -1.080897416
H 0.689700581 -3.034280042 0.796119204
H 3.690777399 -1.761159288 1.915650408

