13

O 4.235406351 2.515593704 -2.715550501
C 3.895477824 0.874653066 -1.163853067
C 1.402890836 -0.040994471 -0.472855737
O 1.204984903 -1.471740457 1.615558366
C -1.174789819 -1.189004472 2.478498701
C -2.975268166 -0.602395121 0.426642201
C -1.087471339 1.153500297 -0.813753372
H 5.464643035 -0.073860078 -0.161999059
H 0.146996561 -0.547435668 -2.417064782
H -1.513211744 -1.920833379 4.352363485
H -3.633978316 -2.224490106 -0.729454504
H -4.643159077 0.389061690 1.113751363
H -1.364731842 2.967346208 -1.705503849

