12

C -3.393321883 -0.224060934 0.592109965
C -1.552474451 0.855770582 -1.180668455
C 2.629994775 1.290848615 -0.084325646
C 3.760472123 -1.148239772 0.369045220
O 5.606027071 -2.281409280 0.959622466
O 1.443655404 -1.798862386 -0.234215736
H -3.177062117 0.416816513 2.538664992
H -3.647137575 -2.275183786 0.516163252
H -5.152499378 0.635877326 -0.134695861
H -1.619887218 -0.192079473 -2.970460117
H 2.874210904 2.230266413 -1.877114735
H 1.962238053 2.418826441 1.477880252

