11

C 3.224447529 -0.429818585 -2.421057433
O 1.080873719 -1.845730371 -1.749680109
C 1.215529310 -2.786871769 0.720001811
H 2.815240924 -4.069590613 0.964613478
C 0.222961737 -1.279665159 2.868325126
H 0.481153638 0.302873663 4.119027417
C -1.162207607 -3.144652237 2.109187238
H -2.876358049 -4.228598821 2.258405947
H 4.963397999 -1.550028786 -2.260367728
H 3.420082749 1.260486896 -1.235162657
H 2.992210865 0.151995019 -4.382023757

