17

C 4.276986997 1.233188933 0.203425691
O 1.888856775 0.683019322 -0.834012144
C 0.729409566 -1.390507593 0.293608279
C -0.678653507 -1.045748227 2.727826936
C -2.083971451 -1.409427550 0.273418256
C -3.438566670 0.798175415 -0.916516112
O -3.206214412 0.803273745 -3.575104466
H 5.597233458 -0.338899288 -0.078378262
H 4.136936332 1.628211953 2.231377005
H 4.999968660 2.898491769 -0.765084780
H 1.719856754 -3.167788645 -0.003872616
H -0.657697276 -2.557694874 4.103451198
H -0.698425371 0.842776070 3.518781500
H -2.961144958 -3.232378048 -0.046134696
H -5.457737844 0.690491054 -0.509098775
H -2.729086722 2.570634963 -0.114508427
H -1.437750255 0.994181002 -3.943999263

