17

C 4.167819087 0.666319831 -0.785073150
O 1.805096309 -0.343167915 -1.464113031
C 0.817720002 -1.955420658 0.368330147
C -0.630955988 -0.952844453 2.557983738
C -1.942807171 -2.047120185 0.683066414
C -3.680970684 0.942811708 -1.623278974
O -3.174654719 3.074872739 -0.793337773
H 5.579037663 -0.826520948 -0.499272029
H 4.033128990 1.790956924 0.950196228
H 4.779308855 1.882435542 -2.327596984
H 1.991994984 -3.633386416 0.643503675
H -0.550830467 -0.894330633 4.592486978
H -0.588986607 2.074885326 2.401846024
H -3.445800863 -3.403508887 0.493167553
H -2.647610443 0.181040147 -3.247866111
H -5.521543086 0.089145487 -1.185339537
H -1.434367891 2.910190874 1.379525601

