11

N 2.580287060 -0.725926707 -0.829197140
C 0.708450293 -2.080735616 -1.436610580
C -1.891943529 -1.041242439 -1.373953328
H -3.232595064 -1.922380686 -2.649542802
C -2.825184247 -0.017863109 1.074822910
H -4.816195156 -0.172071904 1.528941521
H -1.534560981 -0.125759932 2.663853282
N -2.208890530 1.658777876 -0.998815442
H -0.461708885 2.411366067 -0.723284265
H 0.879862776 -4.058852716 -2.021529684
H 4.228141526 -1.704910248 -0.919423324

