13

O 2.594428467 4.225405372 -0.050974928
C 1.789881027 2.116340362 -0.011993449
N 2.831644275 -0.168803925 -0.492559665
C 1.045218461 -2.279097994 0.095458457
C -1.220363003 -0.890564636 -0.899813125
C -3.278621479 0.228649057 0.559608566
N -0.730134428 1.294648949 0.995537032
H 4.723673447 -0.333473884 -0.538332196
H 0.072344329 -0.405176821 2.210903807
H 1.632765607 -4.008281737 -0.854811717
H -1.162715849 -0.189310647 -2.840086022
H -4.604054180 1.392888969 -0.474549272
H -3.989355279 -0.633939318 2.277573325

