16

C -1.624141502 1.290891096 0.998990091
C -3.512367278 -0.061168866 -0.749534469
N -1.887814742 -2.329316332 -0.673140836
C 0.210683109 -0.884087939 0.307465092
O 1.545782572 -2.076194113 2.238292798
O 1.893515592 -0.270067318 -1.616582673
C 3.991455256 1.194438568 -0.852360307
H -2.165776750 1.264369206 2.983092067
H 0.393837330 -3.248876188 3.003892774
H -1.032815357 3.181659329 0.451815488
H -5.412614340 -0.373907353 -0.016407245
H -3.629750092 0.815941770 -2.614967862
H -1.530541893 -3.215276442 -2.329315954
H 5.010603339 1.701099067 -2.565870888
H 3.389560195 2.928369246 0.107910543
H 5.230076245 0.125973584 0.403928449

