11

O -3.110291139 -0.818657363 -0.672444774
C -1.665985027 1.329627496 -0.093836033
C 1.088624109 0.764834429 0.425819376
C 1.931861915 -1.594702592 1.642680641
O 2.139803315 -0.763174305 -1.579613507
H -2.368767861 -1.615301193 -2.125684812
H -1.782145093 2.744068395 -1.607289793
H -2.486735451 2.171286662 1.602232036
H 2.180139084 2.477508749 0.774961566
H 0.368744810 -2.950640027 1.667316339
H 3.607679886 -1.663663857 -0.433555405

