14

C -2.470432065 -1.759100715 0.232864091
C -0.833263944 -0.042071199 -1.366711557
C 0.172106202 2.245929200 0.086248234
N 1.754342838 1.575158005 2.189898046
C 3.464715736 0.124710737 2.529098688
O 5.139975841 -1.178165002 3.115597452
O 1.181187185 -1.531252203 -2.309605941
H -1.387656809 -2.534226044 1.805604815
H -3.162024489 -3.327688596 -0.907549626
H -4.086892926 -0.729044793 0.992258527
H -1.964622868 0.706715713 -2.939559977
H -1.412626327 3.357767896 0.797020074
H 1.241453896 3.467287389 -1.198218549
H 2.099125089 -0.586694596 -3.555260679

