14

C -2.591935653 -1.744970496 0.097971717
C -0.654703288 -0.182484767 -1.316657758
C 0.086201256 2.317902556 0.134284222
N 2.831936975 2.013182877 0.621493203
C 3.200511672 -0.320649107 1.407384567
O 4.151662741 -1.797017899 2.691495232
O 1.665013972 -1.449574366 -1.571028954
H -1.912061308 -2.216477195 1.991644554
H -2.965262048 -3.506488850 -0.902245373
H -4.366509748 -0.706095543 0.288073422
H -1.366263428 0.296060198 -3.199071228
H -0.947364871 2.510634741 1.906274948
H -0.162570398 4.028456207 -0.976895810
H 2.962546795 0.754037025 -1.391301751

