19

C 4.608304722 -0.934782092 -0.665253818
O 2.030051820 -1.548527078 -0.503712772
C 0.758096629 -0.097187632 1.297339655
C 0.189523071 2.658221841 0.559698743
C -2.107733736 1.904765151 -0.594763519
C -2.225207295 -0.547513657 0.910094993
C -3.085247770 -3.000608770 -0.278709224
H 5.558908376 -1.181208917 1.162192206
H 4.868880777 1.024900919 -1.288103032
H 5.457918520 -2.207442357 -2.041314569
H 1.528517202 -0.469923827 3.191092294
H 0.231276910 4.035679440 2.069804193
H -0.173914840 4.886709663 -1.094966578
H -2.401031344 1.860568123 -2.616051299
H -2.204215404 4.825765599 -1.041333014
H -3.108638025 -0.258426605 2.752104134
H -5.132470246 -2.991015802 -0.542574272
H -2.185463180 -3.295227183 -2.107634753
H -2.611530299 -4.610708189 0.922143641

