10

O 3.971614266 -0.879080127 -0.578740588
C 1.553934680 -0.279202537 -0.215834484
C -0.448237953 -2.214957099 -0.101088367
N -2.575176032 -1.157092100 0.255518921
C -2.025130123 1.531473093 0.387680867
N 0.657965995 1.931348590 0.068711028
H 4.936980195 0.665275758 -0.588421239
H -0.193671946 -4.238476230 -0.288203171
H -2.667478117 2.264630761 2.209885131
H -3.091315454 2.513234343 -1.085593764

