10

O 4.010309942 -0.873329842 -0.442023702
C 1.550344938 -0.334568981 -0.272056084
C -0.385148256 -2.083424640 0.099845947
N -2.594410401 -0.825847450 0.096574189
C -1.839100040 1.734904624 -0.124587697
N 0.664334221 2.013454280 -0.388194514
H 4.901144563 0.691293564 -0.699091632
H -0.272618864 -4.090082708 0.426558864
H -2.697965616 0.731933787 1.943183113
H -3.217404992 3.172819890 -0.576296076

