13

N -3.819667057 -1.515181386 1.024401238
C -2.010497425 -0.000640560 1.323280020
C -0.447611037 1.199038161 -0.765046173
C 2.318815842 0.258558678 -0.687715953
O 3.553194225 0.900214333 1.564008054
H 3.899671239 2.682560966 1.575878369
H 3.315446119 0.982405684 -2.351252651
H 2.298293700 -1.800192110 -0.791079777
C -0.466906312 3.956557117 -0.536789650
N -0.379637550 6.110783955 -0.307600283
H -1.259621061 0.697904430 -2.599370516
H -1.433011880 0.479928453 3.242217209
H -4.199453348 -1.819592870 -0.842031877

