16

N 2.985996331 0.749659172 2.644713077
C 2.470301750 -1.687405583 2.041818162
O 3.115160831 -3.454175864 3.352294247
C 1.016784716 -2.038171897 -0.421630137
C -1.593389932 -0.868100308 -0.402101348
C -2.042475144 1.479825064 -1.684510333
O -0.196686323 3.287509145 -1.385644383
H 3.839900903 1.098313302 4.302431271
H 2.274270009 2.184069337 1.621113178
H 2.136283624 -1.297463658 -1.991122800
H 0.825885509 -4.073264146 -0.685737561
H -4.470867492 -0.904832578 -1.261564834
H -2.630988941 -1.287942746 1.304998979
H -2.849241330 1.559470160 -3.560577480
H -4.829165669 0.842159792 -1.072078556
H -0.083625842 4.349730284 -2.853165176

