12

C 0.762761626 -1.222990100 2.921025373
O 1.646900078 -3.319870553 2.700905728
N -1.217566850 -0.290508126 1.596341892
C -2.478244930 -1.823780824 -0.275827298
H -4.469623523 -2.082512356 0.213329708
H -1.552862487 -3.657011035 -0.345351172
H -2.370573721 -0.932205337 -2.137242944
C -2.140368645 2.239953886 1.993249252
H -1.001563614 3.179055173 3.429608234
H -2.034557267 3.347212264 0.250567744
H -4.107389009 2.222502454 2.630589170
H 1.523914396 0.170955775 4.277294398

