17

C 4.238665732 0.565026127 -0.665593931
N 2.471439176 0.032144638 -2.345805723
C 0.818938422 -1.606871521 -0.574619359
O 1.082426866 -3.901226371 -0.715599769
N -1.633080511 -0.391282553 -0.457799136
C -3.270587705 -1.810780643 1.237151632
C -1.651361570 2.282346509 0.103750726
H 1.920267746 -0.610494601 1.485776360
H 5.238086926 -1.002512843 0.188439143
H 5.119058009 2.423786198 -0.568384511
H 1.671293173 1.440213645 -3.340660791
H -2.690620950 -1.627952966 3.226187381
H -3.211852958 -3.796780546 0.720347782
H -5.195492159 -1.104061792 1.035339256
H -1.110991928 3.425890387 -1.526640402
H -3.562922157 2.840591070 0.621289245
H -0.388652659 2.759752763 1.693722465

