17

O 3.366425166 0.244350148 2.557574858
C 3.826910850 -0.245302136 -0.037853123
C 1.538508751 -1.543628322 -1.170236241
C -0.817764789 0.103224022 -1.448550267
C -6.536411468 1.377806083 0.692723123
O -4.300107720 2.307162468 0.515720886
C -2.030601938 0.850344045 1.035398839
H 4.830512666 1.023831977 3.282536481
H 5.481643181 -1.473746231 -0.254867230
H 4.210986819 1.521172801 -1.058818763
H 1.108205565 -3.218360494 -0.034960595
H 2.074178758 -2.225695751 -3.045207176
H -0.364258373 1.813818812 -2.517440155
H -6.317343096 -0.642773466 1.337904799
H -2.222468439 -0.932076098 -2.557644551
H -0.814503499 2.059911420 2.165640198
H -2.577753297 -0.803491782 2.149503147

