19

C 3.561602562 -2.751469508 0.558495895
C 4.107751799 -0.021302599 0.011310181
C 1.494418323 -1.050359404 -0.370139711
C -2.594922441 2.853747249 -1.909092813
C -2.568589580 1.602634642 0.648767091
C -3.254089999 -1.137519941 0.940963499
C -0.580771420 -0.290035978 1.383140987
H -2.078628590 1.536660089 -3.408790218
H 4.308352009 -4.162585774 -0.719227911
H 3.493513027 -3.338602388 2.517944618
H 4.402581294 1.230456427 1.603451249
H 5.231482994 0.432510311 -1.635798145
H 0.929098778 -1.341921298 -2.317485985
H -4.477634450 3.577308850 -2.347381812
H -1.272348839 4.437032211 -1.983440138
H -3.187977855 2.824546105 2.174439330
H -4.388812088 -1.716323835 2.540965280
H -3.620015243 -2.193385592 -0.776517888
H 0.009863029 -0.212241075 3.347515735

