19

C 3.745756391 0.819992681 -1.334006218
C 2.311449728 -1.633744750 -0.970799950
C 0.670074736 -1.671846126 1.215298291
C -0.581877136 2.674467325 0.938566438
C -2.897031710 1.007856213 0.939167957
C -3.335077633 -0.784893683 -1.197764977
C -2.089240763 -1.765456393 1.140182471
H 1.288822168 2.131915957 -0.477096490
H 4.946387214 0.851257501 -3.014871024
H 4.809900951 1.412398370 0.336426166
H 1.361519573 -2.197409764 -2.709631519
H 3.783629432 -3.057139455 -0.547099505
H 1.565625584 -1.714493692 3.061285684
H -0.984245068 4.549804187 0.158139085
H 0.129852115 2.948928181 2.850848164
H -4.591359775 1.670993311 1.897277187
H -5.268504827 -1.371666136 -1.510802362
H -2.233435862 -0.572812196 -2.907091685
H -3.117377461 -3.019001172 2.391095315

