14

C 4.234568522 -0.945037692 -0.342552355
C 2.174471002 0.448790075 -1.807246023
C -0.395204623 -0.605915964 -1.278561994
N -2.153804296 0.696789908 -0.347576854
C -4.556758512 -0.515666178 0.104552594
H -5.032510669 -0.348528539 2.105540974
H -6.026829244 0.476988379 -0.949860556
H -4.585872502 -2.522633406 -0.428502126
H -0.673502643 -2.622682877 -1.727882572
H 2.159180529 2.456158661 -1.339427257
H 2.544145368 0.281137126 -3.837303134
H 4.225335868 -2.965117332 -0.771076629
H 3.962625065 -0.729636730 1.690944756
H 6.101545424 -0.212837794 -0.818726281

