16

C 4.673707047 -0.813727899 -0.554336305
C 2.259584191 0.623982691 -0.579056058
C -0.183968126 -0.519050810 -0.843790191
N -2.109722465 0.892794323 0.015762602
C -4.612021455 -0.183121359 0.110336989
C -0.618737964 1.985348950 2.946927679
O -1.954410127 2.857459975 4.436051613
H 4.356876756 -2.836891894 -0.782307801
H 5.568613499 -0.528255288 1.284791249
H 6.003146932 -0.160093478 -1.988552262
H 2.299657213 2.655600186 -0.812194896
H 0.603798999 -0.009894908 -2.926455482
H -0.244824054 -2.590806353 -0.781396953
H -5.581448878 0.597099844 1.759133596
H -5.725253313 0.324144269 -1.556694568
H -4.607005177 -2.252659006 0.284765135

