16

C 3.118218691 0.756482879 -1.878789561
C 1.425745638 1.579050992 0.300888921
C 0.203875106 -0.652749160 1.612734170
O -1.544669202 0.286351655 3.482217662
C -1.891612903 -2.206696256 0.511596521
C -3.300897231 -1.016791141 -1.568253456
H 4.575018916 -0.560911910 -1.242340442
H 4.067094757 2.377474094 -2.726329064
H 2.040781496 -0.180598178 -3.368920133
H 2.535653014 2.601110916 1.713165668
H -0.020768695 2.895656707 -0.354906478
H 1.669612470 -1.816585617 2.495201745
H -2.053579004 -1.125866492 4.513715464
H -3.076207434 1.012650486 -1.899444835
H -5.292707116 -1.542379950 -1.573057442
H -2.471660916 -2.021613286 -3.199278682

