8

O -2.710719076 -2.175512203 -0.027086786
C -3.068041266 0.429412086 0.322911052
C -1.373198571 1.995400101 -1.235148106
N 0.021878796 3.138191282 -2.455293696
O 1.463233495 4.341390450 -3.721659076
H -5.018145293 0.830721337 -0.208250351
H -2.830680099 0.986797464 2.302825358
H -1.029601367 -2.621213842 0.487176724

