12

O -4.188444918 -0.006736817 -1.953383307
C -3.149780065 -0.114210342 0.490847952
C -0.544545937 0.881296115 0.636392522
N 0.720362975 2.737290231 0.839820141
O 2.882664046 3.474538665 0.777113851
C 4.481937546 -0.424210142 -0.090553446
C 2.569012690 -1.707065349 -0.126924702
H -3.061351541 -0.827278086 -3.113845147
H -4.361807486 1.029972680 1.702986394
H -3.151421330 -2.043542575 1.241554977
H 6.300365683 0.434930483 -0.113936275
H 1.511330691 -3.419657277 -0.286790506

