10

C 4.809855862 -0.221547730 -0.415159658
C 2.560079123 -0.069000798 -0.224570839
C -0.100926512 0.109343598 -0.003905837
C -1.763184904 2.096262400 -0.143805588
N -4.131428933 1.199954036 0.206158953
N -4.034172062 -1.213949442 0.553315041
N -1.627303013 -1.897633041 0.431928729
H 6.810569476 -0.348919561 -0.587654086
H -1.381821921 4.067580587 -0.471453825
H -1.141667134 -3.722090066 0.655147147

