10

C 4.750705658 -0.496039936 -0.579090811
C 2.518174163 -0.353975353 -0.261548754
C -0.140263353 -0.152957059 0.109285923
C -1.779268533 1.906033119 -0.153335458
N -4.123234608 1.053677612 -0.214241407
N -4.094863602 -1.436475219 0.047240942
N -1.794656063 -2.332613942 0.153005039
H 6.736932159 -0.636807771 -0.872809128
H -1.324284220 3.886588892 -0.296981364
H -0.728653034 -1.340406135 2.112309066

