8

C 4.043743789 -2.246962464 0.619444721
H 5.820883168 -3.280336141 0.726898347
C 3.499880176 -0.298263411 -1.268239119
H 1.628985474 -0.334858260 -2.094371918
H 4.961399520 0.269358104 -2.596360428
C 3.435544752 0.974848216 1.396505811
C 2.759206443 -1.169673140 2.667189159
H 2.274375512 -1.691938053 4.573764743

