9

C -2.837403254 2.903990947 0.076678585
C -3.234024642 0.113884666 0.287218019
C -3.571193054 -1.439837817 -1.644438823
H -3.853637076 -3.448196922 -1.366739091
H -3.578068709 -0.757312866 -3.578637195
H -3.242733823 -0.660209497 2.191321368
H -4.310005350 3.935026201 1.094269440
H -1.031626492 3.460034469 0.911418973
H -2.857800183 3.520120182 -1.890562763

