18

C -2.418290156 1.373336805 -0.174193594
C -0.052570650 2.641134239 0.885979555
C 2.348599154 1.484727146 -0.220714191
C 2.418376214 -1.373247477 0.174469380
C 0.052743522 -2.641061824 -0.885876093
C -2.348582147 -1.484710894 0.220502636
H -4.111979815 2.175795057 0.694665818
H -2.552440151 1.774371100 -2.203029412
H -0.026877612 2.415395587 2.945922609
H -0.104096452 4.673520361 0.518600677
H 2.424719004 1.890962024 -2.251499527
H 4.020045433 2.363546680 0.616696304
H 4.112114043 -2.175899143 -0.694123391
H 2.552174739 -1.774073487 2.203383509
H 0.027170066 -2.415465091 -2.945835096
H 0.104089441 -4.673461685 -0.518512446
H -4.019826036 -2.363357329 -0.617576784
H -2.425368560 -1.891512067 2.251140006

