15

N 3.594732050 0.915779875 -0.976350151
C 2.172226499 -0.512784459 0.562389317
C 0.829889555 0.597755976 2.904898450
N 2.400050916 0.621075857 4.534567023
C -1.334318911 -1.389434852 -1.284879934
C -2.466884482 1.110305088 -1.968610852
C -3.284307627 -0.622017546 0.086336295
H 5.372865368 0.423289978 -1.414861590
H 3.105531183 2.718163047 -1.311703104
H 2.929432859 -2.391297233 0.876413554
H -0.617450985 -3.040945012 -2.233390055
H -1.432336322 2.832695832 -1.482844752
H -3.609504587 1.310161768 -3.667875657
H -4.909792214 -1.204606768 1.157771135
H -1.302639014 0.868113121 2.690969510

