17

C 2.910045516 1.451387199 -1.184919885
C 2.318633200 -0.942700743 0.259677944
C 1.250138434 -0.993303848 2.887360923
O -1.006095121 0.594629443 2.374761524
C -2.237191277 -0.670970334 0.529007153
C -3.615984250 0.965072341 -1.327561988
O -0.104227277 -2.197526757 -0.805871778
H 2.842624170 1.165764109 -3.227664504
H 4.834703172 2.009214339 -0.695410275
H 1.647321525 2.986786142 -0.662653838
H 3.764790318 -2.377617562 -0.043673064
H 2.324458451 -0.069488574 4.375340760
H 0.069826779 -3.358983613 0.820086601
H -3.407905731 -2.227730306 1.253820641
H -2.345910773 2.304226854 -2.234483998
H -4.533291930 -0.190142069 -2.763977964
H -5.060236259 2.017947292 -0.300370720

