13

C -1.876769482 1.523980064 0.136340282
C -1.313461683 -2.187504726 0.271373100
C 0.237111363 -0.498848372 -0.972701997
C 2.988979131 0.220968983 0.115185856
O 4.530068473 -1.371075766 -0.875833313
H -3.818742301 1.008746992 0.623687364
H -0.977083346 2.419028189 1.754631494
H -2.014559656 2.760591915 -1.502279224
H -2.632314395 -3.436063766 -0.686723431
H -1.209400871 -2.317832826 2.317682951
H 0.212617225 -0.558644900 -3.022754735
H 3.220341475 2.272100433 -0.371586920
H 2.678865228 0.153432741 2.223194453

