16

C 3.091252639 -1.309579826 1.604031962
C 0.782879329 -0.093549493 0.459955748
C 0.946714994 1.598141024 -1.835037961
C -0.957817966 2.860177345 -0.158926647
C -3.272524335 1.062398434 -0.082593920
N -3.399241602 -1.172092216 -1.699877397
C -1.876292477 -1.282088960 0.533708849
H 2.697145022 -2.028598224 3.496349657
H 4.659262982 0.020884989 1.732736730
H 3.690018938 -2.893634568 0.421037576
H 2.738641385 2.585298595 -1.992610789
H 0.359167829 0.816341900 -3.634324892
H 0.356823699 1.742181109 1.876943715
H -5.028926407 1.697600013 0.740257426
H -2.438328661 -1.059256348 -3.346905353
H -2.362290674 -2.647164695 1.980542885

