11

C 0.728287693 0.911886548 -1.134461023
H 2.117400914 2.250903035 -1.789235025
C 1.107957255 -1.536178511 -0.782900513
H 2.791971195 -2.654963878 -1.072012018
O -0.912553262 -2.845343618 0.107322951
C -3.020642985 -1.123333106 0.112691417
H -4.001053874 -1.329730600 1.911219095
H -4.295912358 -1.688615310 -1.410824322
C -1.933027536 1.537653934 -0.328264476
H -2.998616300 2.564298050 -1.765150881
H -1.953676838 2.685675631 1.391258514

