13

C 1.548837957 1.295215092 -0.127318748
C -1.311562111 1.541597433 0.156265989
C -2.193665630 -1.062643739 -0.694973012
O -0.259353119 -2.778962018 0.026539994
C 1.977712869 -1.438921470 0.674558017
H 2.097214803 1.563785917 -2.100002319
H 2.611777381 2.633877331 1.021718337
H -2.123099666 3.065789185 -0.966732352
H -1.811632361 1.860578497 2.134208006
H -3.963009341 -1.656174306 0.186070711
H -2.442704624 -1.126619604 -2.753078950
H 2.284759614 -1.578797712 2.719807827
H 3.584724230 -2.318724587 -0.277063500

