13

O 3.442677032 1.531190598 0.655077435
C 1.533434685 0.558284661 -0.877003999
C 0.591288539 -2.161051584 -0.345533814
C -2.029600440 -1.061963664 0.301872580
N -2.120744954 0.429442284 2.429832358
C -1.143996600 1.615853087 -0.406994152
H 2.951577312 1.230150971 2.380909673
H 2.119899302 0.842762464 -2.830284429
H 1.507830484 -3.131807334 1.221597825
H 0.631806611 -3.350955735 -2.027333732
H -3.764727409 -1.799281583 -0.531566958
H -1.311177835 2.679489462 1.549008844
H -2.338896771 2.684280012 -1.684167348

