11

O -4.933311670 -2.302914893 -0.258900265
C -3.781596805 -0.358517310 -0.288395734
C -0.967428433 -0.178280221 -0.070363026
C 0.529173997 2.179285552 -0.141424817
N 2.874100847 1.688386502 0.100540063
C 2.998473720 -1.027543871 0.342665059
N 0.490087734 -2.080753587 0.214568084
H -4.762728001 1.482907226 -0.481939915
H -0.188803973 4.086374555 -0.366090293
H 4.168922214 -1.830436270 -1.161729941
H 3.881128188 -1.549767192 2.138917751

