11

O -4.200428050 -2.672541902 0.156229592
C -3.459332984 -0.515561828 0.009210601
C -0.805110880 0.160321379 -0.016014994
C 0.441776262 2.433024237 -0.163851614
N 2.983948037 2.072091801 -0.120060537
C 3.288547114 -0.388340400 0.051955110
N 1.071239801 -1.624964931 0.121656751
H -4.790612630 1.088552905 -0.118415889
H -0.379293847 4.295894576 -0.297542896
H 5.085458887 -1.351195186 0.128695999
H 0.763808308 -3.497280631 0.248137859

