15

C 2.901448944 -1.588576478 1.761473209
C 0.746735785 -0.343220695 0.443370586
C 0.708424215 0.102260999 -2.356944601
C -1.399758691 0.543812024 1.385116564
O -2.292579074 0.602426944 3.777673563
C -3.037893898 1.637907212 -0.639818123
O -1.626962674 1.321816351 -2.883648575
H 4.649342204 -0.509982770 1.535340021
H 3.247500506 -3.481049679 1.007602253
H 2.567927250 -1.793245439 3.789087698
H 2.273346292 1.313044431 -2.984357371
H 0.820155009 -1.668745747 -3.434919688
H -1.077448912 -0.143211553 4.900250174
H -4.853472347 0.645470313 -0.772343464
H -3.431941404 3.645403071 -0.306223164

