10

O -3.258014620 -3.274373205 -0.440644694
C -2.174564506 -1.070997179 0.176022055
C 1.104407197 3.266109867 0.266435321
N 2.326601589 2.685714031 -1.667049736
C 1.993591690 0.715320883 0.362375941
N 0.296935784 -1.327551651 -0.090822127
H -5.045118469 -3.068359647 -0.236896388
H 0.057825071 4.831560652 1.052437876
H 3.669134328 0.181208351 1.415517873
H 1.045723812 -2.984476877 -0.705747229

