13

C 3.247391563 1.050988437 0.232939358
C 0.625945890 0.250834082 -0.408793946
C -0.684273949 -2.060587829 0.528400684
N -3.079707150 -1.439952618 -0.841622827
C -3.373783306 0.997134928 -0.205292023
O -1.198064234 2.119074455 0.066388176
H 3.712127449 2.848512103 -0.659349029
H 3.531073072 1.245400608 2.277752396
H 4.580370318 -0.359143130 -0.459610930
H -1.500896020 -0.902073332 -2.514472435
H 0.072468975 -3.837474589 -0.165835788
H -1.000851471 -2.143033537 2.589642528
H -5.031775188 2.152533644 -0.495093750

