18

C -4.007261247 -1.860906497 0.106695335
C -2.925910032 0.777279202 0.432568420
N -0.160955382 0.735024094 0.795816394
C 0.657248126 0.381456544 3.151480876
C 1.240906366 0.932705490 -1.270580301
C 4.018265840 0.601680653 -1.131573691
O 5.114834490 0.289221979 -3.546452646
H -6.042973363 -1.744517169 -0.199961313
H -3.669466901 -3.015175894 1.778770704
H -3.158784497 -2.797627334 -1.520543635
H -3.304482910 1.936914721 -1.224622294
H -3.743756173 1.723213814 2.067657729
H 2.649807099 0.419714484 3.551447230
H -0.722444697 0.068119449 4.612576316
H 0.332733641 1.506265677 -3.003278802
H 4.972268563 2.242240606 -0.288284448
H 4.450383579 -1.015253641 0.120260697
H 4.323458480 -1.141596024 -4.329462707

