14

C 2.488208700 -0.174560200 -0.616831910
C 1.045230706 0.892757663 1.601110937
C -1.399578978 1.461843394 1.582686958
C -3.184382198 1.188590206 -0.590896421
O 1.099480548 -3.952884245 -2.709572031
C 1.992431020 -2.971591496 -0.870268051
H 1.986656584 0.736787870 -2.395231510
H 4.515966430 0.085726537 -0.311925148
H 2.094841061 1.166163371 3.340935009
H -4.008753242 3.016313830 -1.087267872
H -2.208142860 2.211882949 3.315180461
H -2.289582081 0.398284536 -2.267700961
H -4.751519922 -0.054229263 -0.076828384
H 2.473778959 -4.119075321 0.818710011

