14

C 2.710583714 0.028431912 -0.959662339
C 1.218966646 0.892965514 1.303606402
C -1.432988977 1.110500392 1.285444150
C -2.832909107 0.271110314 -0.873956796
O -0.624266490 -3.029551683 -1.326631260
C 1.397572089 -2.340920233 -0.255202033
H 2.217937329 0.787366106 -2.806022329
H 4.733115898 0.094594871 -0.626216253
H 2.216835921 1.264384229 3.045443354
H -2.513603482 2.861986739 0.197972490
H -2.403351663 1.016107816 3.090941798
H -2.145493904 0.667066141 -2.748224961
H -4.820478636 -0.176320386 -0.677379208
H 2.233229881 -3.494042717 1.246398024

