10

C 2.127509116 1.476427412 0.119389136
C 1.304891510 -1.218232469 -0.113448555
N -0.968381573 -1.169898717 -1.792272041
C -1.305060830 -1.361850842 0.912152886
C -1.833433848 1.078077113 -0.340602234
N 0.202775418 2.897617147 -0.016999598
H 4.039190948 2.165167389 0.368145899
H 2.534355812 -2.841699981 -0.265995619
H -2.382888367 -2.798488539 1.884539658
H -3.716556324 1.760753224 -0.732523835

