15

O 4.161856264 1.356542922 -0.691447614
C 1.752601871 0.454387595 -0.311854076
C 1.088140510 -2.250913013 0.347506461
C -1.628263278 -1.573206561 -0.629250340
C -2.919656645 1.044013685 1.264494911
C -0.532280216 2.223169565 0.196210377
C -0.415020102 0.649189124 -2.122129141
H 4.700189461 2.237411694 0.798242293
H 1.294438623 -2.945965015 2.285305631
H 1.987951197 -3.544087730 -0.980047438
H -2.929822218 -2.982673304 -1.339608803
H -2.107546767 -1.097465004 1.672381315
H -3.132405923 0.827732924 3.341608999
H -0.160729956 4.233984937 0.193551476
H -0.595469747 1.104444689 -4.102781101

