12

C 2.451596163 -1.809078831 0.057096582
C 0.086785313 -0.326199327 -0.448938588
C -0.949157881 1.265066704 1.138245351
C -2.026412982 2.856576906 2.658973726
C -1.191246650 -0.664309276 -2.917847818
O -0.428482001 -2.066730289 -4.536560457
H 3.189480792 -1.412013981 1.935084144
H 3.888162259 -1.350297075 -1.348951873
H 2.068525434 -3.827961462 -0.111081239
H -1.520153577 4.841510702 2.637351423
H -3.449252996 2.240636323 3.997575720
H -2.925417097 0.475963032 -3.181566279

