13

O 4.231898490 -0.639982114 0.784626854
C 2.875140291 1.197936942 0.709116005
C 0.740855449 1.459352565 -0.978813561
C -1.536749756 3.159979068 -0.710520885
H -1.620115497 4.324979086 0.977674925
H -2.289960480 4.046819375 -2.404977206
C -1.877637849 0.438378780 -0.295944188
O -2.740890462 -0.627850393 1.867440377
H -2.056140169 -2.303040257 2.031563261
C -0.499203413 -0.661798888 -2.440225511
H 0.321926127 -2.521719969 -2.147240483
H -1.100112095 -0.287003308 -4.370310365
H 3.170534001 2.804006143 2.020426897

