10

N 2.968586983 -0.080509552 -1.059842220
C 0.407957383 -0.042934842 -0.433914812
C -1.333941779 -1.915405008 -0.445501781
O -3.623886725 -0.980942205 0.143425999
N -3.420678674 1.544126076 0.574488836
C -1.055278116 2.113998386 0.224776479
H 4.031707916 1.055504543 0.036848242
H 3.716427691 -1.829922397 -1.114174076
H -1.245458093 -3.912550233 -0.834505494
H -0.445436586 4.048635251 0.450177342

