14

C -4.261814839 1.249530566 -0.782116371
O -2.375573086 -0.005000726 0.638370064
C -0.765761321 -1.481140446 -0.759855776
C 0.679952183 0.270425534 -3.242386737
C 2.271260450 0.035968083 -1.511870983
C 4.318379595 0.078177573 0.344841759
H -5.411972456 -0.107971619 -1.841025180
H -5.449927057 2.244338126 0.569442285
H -3.417982394 2.583178266 -2.112001664
H 0.303774703 -2.639606603 0.575764307
H -1.721481975 -2.774264235 -2.048490974
H 5.117931884 -1.796535207 0.658198979
H 5.808117237 1.306783693 -0.373751016
H 3.661360637 0.851345260 2.139663021

