14

O -4.004007422 0.922274599 -0.657194684
C -1.483134806 0.308669415 -1.106987523
C 0.542415648 2.084433659 -0.138567910
C 2.784447383 0.687646487 -0.124690611
C 2.177274562 -1.866776591 -0.017908103
C -0.452197629 -2.103814010 0.033404519
H -4.241785859 1.021032896 1.142502639
H -1.278384095 0.175424675 -3.165020159
H -0.453080509 1.137561553 2.509934579
H 0.428010930 4.115853622 -0.361735400
H 4.665038099 1.465212322 0.054733838
H 3.508279290 -3.391966307 0.261323045
H -1.468924424 -3.880125386 -0.029850964
H -0.865060797 -0.595304453 2.583825478

