17

O 5.342441647 -0.527275541 1.546826513
C 2.845505095 -1.067637680 0.695118086
C 1.084818919 0.727053588 1.851041787
C -0.777791223 2.194710706 0.537490115
C -3.541354354 1.059020624 0.057611854
O -3.279782867 -1.347661209 -0.936421618
C -1.505965456 -1.698018965 -2.684469400
H 6.276951806 -2.074932532 1.656011600
H 2.598077660 -0.920464978 -1.402346539
H 2.414946815 -3.056406052 1.104552649
H 1.452684704 1.147630279 3.826526536
H -1.117769866 4.021524956 1.445957657
H -0.115331346 2.411848987 -1.430550493
H -4.485586512 2.346877500 -1.256852499
H -4.648581476 0.884341201 1.785826318
H -1.532875837 -0.493491300 -4.353443369
H -0.992694204 -3.663866168 -2.926223859

