17

C -3.003858853 -3.080169245 -0.194793007
C -1.075405645 -1.107806606 0.449470773
C 1.538489665 -1.279816073 -0.673293696
C 2.969791230 0.909378881 0.298348883
O 1.761929918 4.257927351 -1.688867475
C -1.553566165 1.533594273 1.118664027
O -0.977073728 -0.327899400 3.007995350
H -3.300091980 -3.170290680 -2.235902389
H -2.406893482 -4.949915881 0.450116473
H -4.799903733 -2.627355678 0.704956284
H 1.463744893 -1.259211614 -2.736714375
H 2.566201477 -3.005755949 -0.122113686
H 4.770148483 1.352378287 -0.561961483
H 2.732126195 1.372020440 2.271716327
H 2.459968368 5.761516156 -0.935358061
H -3.495907348 2.215151930 1.294052381
H 0.351109527 3.625205055 -0.506959511

