11

N 5.158661567 -1.073784147 2.515321716
C 3.773111198 -0.888776369 0.853120997
C 2.029666391 -0.660656946 -1.247420215
O 0.059595499 -1.971533918 -1.320397866
C -2.743905047 -0.490659036 0.084291744
C -1.653217357 2.008250597 0.505525152
N -3.328372715 3.261763138 1.376404473
H 2.717451168 0.335053979 -2.918084959
H 0.481191470 2.249056772 -0.021275123
H -4.091677675 -0.691945878 -1.440888674
H -3.066051592 -1.658775911 1.733664907

