8

O 2.253565621 -2.554175826 -0.156485764
C 4.055976742 -2.065237065 1.141166225
C 4.520657543 0.434449434 2.326478568
C 2.925379699 2.343688644 2.024002599
H 3.253459039 4.170839757 2.884990412
H 1.235160768 2.103847496 0.891011046
H 6.224772122 0.625815990 3.450566034
H 5.507947961 -3.524450641 1.523338087

