17

O 1.276485998 -2.800375242 2.441381022
C 3.218300911 -2.033997133 1.362298914
C 3.427910977 0.301958204 0.140645815
C 1.279777239 2.058071545 0.499905201
C -1.462292242 1.368324760 -1.414036158
C -2.337047410 -1.324042789 -2.168949978
C -3.560433766 0.031169993 -0.065488364
H 4.917699187 -3.252801962 1.323442366
H 5.121379992 0.926785961 -0.808595006
H 0.700108758 0.504830640 -1.423000773
H 1.625400966 3.984955864 -0.101360525
H 0.367167285 1.876475195 2.329413766
H -1.844248278 2.881337515 -2.727184146
H -3.248980161 -1.445397958 -3.993631862
H -1.088590321 -2.866450328 -1.668824964
H -5.425418519 0.821651275 -0.343250552
H -3.126093671 -0.647698187 1.816253743

