13

C 3.643480256 1.420914742 1.858809808
N 2.455251650 -2.461869943 -0.398319798
C 0.400977471 -1.490325006 -0.274034080
C -2.510454046 -1.734194389 -0.454370719
C -2.693502820 0.769349023 0.937495530
O 0.096407629 1.039695680 0.721059396
H 3.013281765 3.216411903 2.594923518
H 4.828421798 1.463551687 0.203607407
H 4.037771083 -0.060438733 3.200216497
H -3.242533493 -3.388284100 0.518467093
H -3.195178373 -1.685086379 -2.392027423
H -3.634716254 2.317864101 -0.030384547
H -3.263066180 0.661259825 2.912146438

