12

O 4.444978396 -1.304424332 0.546779158
C 2.386164245 -0.430824637 0.188697714
C -0.017472257 -1.987361527 -0.157354981
C -2.294926246 -0.356803517 0.180718761
C -0.517297050 3.177006937 -0.295535308
C 1.799628594 2.304469306 -0.058665905
H 0.030327308 -3.549896389 1.185348210
H 0.066008795 -2.799450315 -2.053107026
H -3.847845708 -0.745168257 -1.116164165
H -2.974109405 -0.213686866 2.115734402
H -2.464822167 2.173674445 -0.473765791
H 3.372206783 3.617252350 -0.063183938

