12

O -2.083007785 2.609512034 -0.712286380
C -2.318876861 0.275289897 0.464139904
C -2.472187734 -2.124229477 -0.848713514
C 0.252128450 -1.083983566 1.269531824
C 2.475123877 0.231964411 0.399045756
C 4.294260945 1.331769765 -0.374770107
H -0.973186750 2.461795336 -2.144158075
H -3.540696257 0.548349124 2.089443210
H -1.574617525 -1.858824832 -2.717360329
H 0.155228245 -3.048222536 0.385270862
H 0.227437137 -1.531724049 3.271047778
H 5.928138070 2.298937908 -1.039985450

