13

N -2.239640928 -0.249832301 -2.255021957
C -1.585197081 0.356635690 0.526099337
O -2.912903198 1.871555822 1.554169857
C 0.160988717 -1.537950205 1.805033891
O 2.472538278 -0.390418268 2.419642992
C 3.130678808 1.303161901 0.509655111
N 1.688599965 1.867915284 -1.234997987
H -3.820641986 0.713292886 -2.745936786
H -2.363183531 -2.103394113 -2.712279252
H 0.486042397 -3.160835814 0.556232778
H -0.715353670 -2.168601645 3.557397694
H 5.037110282 1.995616607 0.896654354
H -0.356738718 0.747192381 -2.656961791

