12

O -2.023867275 1.955531490 1.635474473
C -1.842547657 -0.276391910 0.702670074
C 0.558979344 -1.815627355 1.315018080
O 2.374963215 -1.058369103 -0.507239512
C 1.358408233 0.898068001 -1.929831669
O 1.283526985 3.140433215 -1.027919360
H -0.208622400 3.002961366 0.604025123
H -1.071562868 0.067660756 -1.750511928
H -3.618644285 -1.298536872 0.398301563
H 0.260830091 -3.851849679 1.148812718
H 1.184306291 -1.356848831 3.228614072
H 1.795447575 0.711545437 -3.937709782

