11

O -0.877477262 -2.233370628 0.601092155
C -2.563105009 -0.700103524 -0.906698475
C -0.609950000 1.443649243 -0.951360886
C 0.932287596 -0.367748168 0.614690567
C 3.171846435 -0.422346986 1.710256359
H 3.791928013 -2.065285159 2.755498612
H -2.968959070 -1.600498949 -2.716153115
H -4.318178434 -0.313018241 0.103169277
H 0.179043406 1.892387993 -2.797170247
H -1.166174615 3.175409929 0.009041508
H 4.410533299 1.193883820 1.566063453

