13

C -2.181779990 -2.258571884 0.055813628
C -0.259600011 -0.255842688 -0.587338388
O 1.226175706 -0.633517814 -2.511944114
C 3.548417357 -0.457620009 -0.082147396
O 4.821537261 1.369000715 0.046038094
C -0.963979135 2.328310374 0.045494911
C -1.566852659 4.450409525 0.543003637
H -3.637220973 -2.196680103 -1.408309796
H -3.064360495 -1.928560355 1.885757889
H -1.296310585 -4.116553104 -0.003056197
H 1.578050911 -0.588853268 1.403870130
H 3.941281743 -2.466440434 -0.310265326
H -2.083992143 6.349534996 0.963262248

