15

C 3.077594455 0.170439766 0.607940881
C 0.209881997 0.318917948 0.864785389
C -0.939538513 -2.307719068 1.190662290
C -3.580851199 1.954969429 -0.921349975
C -0.879623858 1.754103410 -1.496840782
H 3.918276557 2.041489671 0.398576159
H 3.895767764 -0.710753756 2.285568965
H 3.616555533 -0.964812769 -1.031052696
H -0.243321287 1.451406210 2.531295533
H -0.755378655 -3.412871856 -0.545985379
H 0.032522678 -3.331552783 2.695311477
H -2.940547170 -2.227645382 1.686645081
H -4.511581453 0.264487977 -1.732767892
H 0.044986934 3.600164578 -1.527860882
H -0.353327555 0.664526387 -3.182413973

