12

C -1.596745934 -1.825439172 -0.595355381
C 0.233765433 0.230574631 0.101081375
C -0.765336851 3.580303443 0.827438618
O -0.349166888 1.505798046 2.394045556
C 3.021937939 -0.463511041 0.210435574
O 3.820051522 -2.441248760 -0.526860236
H -1.419300897 -3.369351917 0.756774407
H -3.524990668 -1.107867455 -0.547697149
H -1.188012327 -2.560660289 -2.474098739
H 0.307029000 1.828558298 -1.406199577
H -2.716633692 3.282916222 0.056364426
H 4.220050701 1.023357297 1.057054213

