15

C -2.882439547 0.810087171 -1.342462270
C -2.876636784 -0.297270228 1.282529304
C -0.482367106 -0.038878205 -0.144843993
C 1.326389828 -2.038642420 -1.098745426
C 3.465422192 0.402610875 2.380836219
O 3.489920034 -0.324966281 -0.763744548
C 1.797233990 1.561825950 0.490785250
H -3.655731199 -0.317999956 -2.865423243
H -3.193396210 2.824247018 -1.537484576
H -3.174614430 0.959161883 2.868647626
H -3.639980351 -2.178273301 1.535171627
H 1.579736963 -3.696918744 0.090606169
H 1.172830003 -2.524730926 -3.094542634
H 5.196068355 1.558570972 2.360603696
H 1.942980912 3.483890031 -0.237977690

