11

N 1.755781335 1.511543285 0.369284799
C 3.498136280 0.669342524 -1.350149563
O 3.388583811 -1.281747127 -2.494777671
C -4.125448687 -1.531369101 0.993840323
C -2.209039630 -0.187694402 0.140011283
O 0.080966015 -0.207380397 1.367935533
H 2.277872337 2.817914508 1.654848776
H 4.981567017 2.114940868 -1.630770699
H -3.970534476 -2.672026026 2.683304138
H -5.889694597 -1.519142838 -0.030682217
H -2.250372116 0.973150203 -1.545252882

