13

N 3.667833100 0.091612638 -0.543054735
C 1.583555173 0.319090007 0.834379015
O 1.392889782 2.070380711 2.510923605
C -0.697805636 -1.166175616 0.624489043
C -2.592484128 -1.249555643 -1.453199258
C -2.312707605 1.265465550 -0.130910399
H 3.864827694 -1.380592484 -1.719512483
H 4.984366211 1.460243382 -0.500961785
H -1.333661740 -1.875174931 2.439372394
H -1.993362863 -1.358343737 -3.411053373
H -4.174935625 -2.480016624 -1.018524662
H -0.852375349 2.265544482 2.150425522
H -1.163398134 2.397050201 -1.444974716

