14

C -2.945306464 -0.487982333 -0.384602730
C -1.421115317 0.281880978 1.578887380
N -0.833098555 2.664842402 2.008449794
O 0.308894689 -1.438154165 2.418136313
C 2.371993510 -1.622733920 0.577876151
C 1.940817535 0.388011739 -1.427079954
O 1.988193649 2.677434762 -0.489668933
H -4.163892293 0.854093205 -1.336809722
H -0.196629405 -0.131582443 -2.102355198
H -3.305787898 -2.481449603 -0.681017214
H -2.074776233 3.828767279 1.106835948
H 4.110645007 -1.259171647 1.617395898
H 2.382833527 -3.536366441 -0.200916853
H 2.844567564 0.187486343 -3.279086956

