12

O 0.739895808 -4.640323675 0.557621764
C 1.203250909 -2.476690422 0.564788815
C 2.791144497 -0.605654615 1.435619570
C 2.934935496 1.785672532 1.114538056
C -1.165223005 -0.557514182 -1.536100012
C -2.825736047 0.927695826 0.087409263
N -0.968625140 1.900348993 -1.780651189
H 4.236401689 3.162551760 1.871234417
H -1.257451297 -2.009568738 -2.972428021
H -2.340371287 1.064049279 2.080369047
H -4.799959442 1.251083940 -0.361066248
H 1.282898349 2.491751180 -0.328429752

