10

O 4.464428912 -0.807068920 -0.034396682
C 2.239288079 0.406139901 -0.205360261
N 0.267433720 -1.274972875 -0.891913768
C -1.924950997 -0.858086310 -0.300170882
C -4.294318015 -0.570040950 0.260520478
N 1.917564342 2.731012637 0.120505945
H 4.207683521 -2.548765673 -0.492298959
H -5.052288392 -1.380929498 1.974550450
H -5.496263048 0.539804935 -0.962055961
H 3.582735123 3.596690240 0.521237148

