10

O -3.923398471 -0.229131352 0.797170629
C -1.739946432 -1.167347719 -0.232762612
C -0.573816169 -0.092551642 -2.360152732
C 1.563577990 0.844709902 -2.646754454
C 3.139531344 1.263604453 -0.734092119
C 3.011659246 0.711294897 1.578722747
H -3.931579360 1.578436000 0.627388525
H -1.735144279 -3.218343808 -0.086295213
H 0.524843047 -0.391244928 1.348562987
H 3.986558333 0.673596449 3.356081769

