10

N 3.563791715 -0.153869306 -0.045562412
C 1.171841960 -0.027129966 0.519670810
O 0.984242139 0.154192468 2.929704205
N -0.877154005 -0.067039527 -1.044516730
C -3.355927756 0.081758831 -0.207515947
O -5.114690474 0.035232602 -1.632687901
H 4.306335974 -0.299231952 -1.790935929
H 3.380185811 0.034957628 2.449106374
H -0.621821581 -0.218527702 -2.925675309
H -3.495891739 0.243130236 1.857062643

