9

O 2.798712869 0.359488308 2.063745523
C 2.909102411 0.321034611 -0.182388731
O 1.010244166 -0.353297319 -1.742754716
C -1.296059025 -1.012549802 -0.564640018
C -4.003346188 2.938360436 0.342679912
N -2.769055053 1.162045884 -0.064488813
H 4.568895769 0.812283260 -1.321871512
H -2.298703355 -2.212074511 -1.898417806
H -0.949910048 -2.004133924 1.206155305

