9

O 3.096839747 0.040887929 1.947503915
C 2.921443267 0.408705620 -0.257516059
O 0.843243928 -0.091099123 -1.685397919
C -1.296612828 -0.883746693 -0.424033359
C -2.729636028 1.827800291 0.912410928
N -3.969635552 1.402223669 -0.899591801
H 4.398261248 1.169361902 -1.493475860
H -2.380219129 -2.106885930 -1.654744218
H -0.913803108 -1.756085052 1.392859735

