16

C -2.521631152 1.450787665 -0.132178935
C -0.411499278 3.228032830 -0.229534582
C 2.079308041 2.046883214 0.231617079
C 2.227817271 -0.738768208 0.971201952
C 0.507050180 -2.274149595 -0.751197409
C -2.239388839 -1.433369681 -0.458993878
H -2.829277016 1.936953725 1.903836067
H -4.223978573 2.190498071 -1.031883703
H -3.333926487 -2.022423165 -2.105575726
H 2.935557556 2.335857921 -1.654471871
H 3.221902937 3.275677966 1.439976957
H 1.638853605 -0.973611900 2.943153310
H 4.177858616 -1.408314615 0.859078529
H 0.678032826 -4.295606071 -0.374415028
H 1.114651704 -1.988513825 -2.710033067
H -3.090009710 -2.390777444 1.162563594

