15

C -4.468579922 -0.036040932 -0.847184763
N -1.911222685 0.331716212 0.106542872
C -1.033360562 -0.588123456 2.400654117
N 1.385100369 -0.828878646 2.392881390
C 2.219813941 -0.077326951 0.025017971
C 4.982984217 -0.072581206 -0.530769172
C 0.352965540 0.540801331 -1.685611023
H -4.682977269 1.098995134 -2.547504772
H -4.737768083 -2.016876763 -1.332153569
H -5.848662218 0.536276079 0.570561343
H -2.291326979 -0.970555514 3.964821305
H 5.994603007 1.179603575 0.759001487
H 5.772785594 -1.965411168 -0.303350138
H 5.312560182 0.551796362 -2.463377302
H -1.165707115 2.304249077 -0.404147241

