10

C 2.568382957 2.012562971 0.141422870
C 2.581495049 -0.222839849 -1.606006121
C 0.655120407 -0.926559402 -3.054266958
H 0.776045721 -2.559781945 -4.278134325
H -1.098446622 0.128793736 -3.039726876
C 4.886417757 -1.671473812 -1.672004372
N 6.747385009 -2.788964168 -1.683323056
H 4.044663160 3.354631328 -0.381984307
H 2.935643293 1.420427211 2.082869230
H 0.747244461 2.968556766 0.071941647

