16

C 2.671097812 2.490488088 0.181029205
C 1.585812395 0.068870766 -0.799541800
C -1.369332229 -1.058736088 1.677190819
C -3.791940599 -0.806684550 0.619949259
C -1.077810605 -0.083192887 -1.621125877
C 3.036976001 -2.136090797 -0.907121679
N 4.157155060 -4.018596353 -0.956950317
H 4.699079739 2.556993049 -0.174172618
H 2.421889895 2.767533521 2.230398921
H 1.824267864 4.128331067 -0.757029520
H -0.696380499 0.354266503 2.997587381
H -0.569311157 -2.927714531 1.913076563
H -4.755141639 -2.431950741 -0.146684907
H -4.863113428 0.908990259 0.879645987
H -1.466144713 -1.583901636 -2.956793845
H -1.837709863 1.736058339 -2.185842958

