13

O 3.393748413 1.079749464 -0.590925561
C 1.319815339 -0.174517833 -1.248233553
C -0.090129259 -1.015622931 2.530564114
C -1.961598872 0.014622946 0.861948286
C -0.640849970 1.104806987 -2.484983750
H 4.241304300 0.102715232 0.702429304
H 1.468747527 -2.197562227 -1.520452588
H 0.627915702 0.177778555 4.025655123
H -0.057143901 -3.036215613 2.839217882
H -2.687343107 1.882636288 1.279708245
H -3.391603348 -1.240276407 0.100317245
H -0.630695678 3.145041634 -2.466419307
H -1.600158780 0.155052463 -4.018231636

