11

N -3.153392976 -0.705223000 0.328764725
C -0.965070357 -1.800289034 -0.006809628
C 1.230434997 -2.438957032 -0.751366427
C 2.200853582 -0.297294832 0.761974140
N 1.904120452 2.189606366 0.229396613
N 0.202183933 2.873585481 -1.316336788
H -4.221743896 -1.185132725 1.827285567
H -3.040522299 1.172819118 -0.187408977
H 2.128703404 -3.927001366 -1.824074034
H 3.337340674 -0.684431382 2.419547013
H 0.357584843 4.789746077 -1.457766348

