9

N -1.828061904 -0.617876778 1.604911233
C -0.635397808 1.240659020 -0.054294043
N 2.104603632 1.159970965 0.001471530
C 0.773328257 -0.847651355 -1.215064324
O -0.255540256 -2.606787597 0.533081970
H -1.285958836 -0.412217978 3.444230406
H -1.635275579 2.897618016 -0.700999613
H 2.883383030 0.678076574 1.687139453
H 1.231296297 -1.505714369 -3.092291951

