15

O 5.334686192 -0.884662284 -1.051814248
C 3.096498708 -0.668660541 -0.699640843
N 1.402448829 -2.407947704 0.041750872
C -1.216262883 -2.257766067 -0.854780782
C -2.203164377 -0.530288974 1.237361713
C -0.269244626 2.548106177 -0.091976561
N 2.169886961 1.997077592 -0.578605472
H 0.100775012 -0.472740690 1.835664121
H -1.436774136 -1.461462123 -2.752836932
H -2.054255885 -4.137735195 -0.881711193
H -2.458211981 -1.703934639 2.929828284
H -3.881513560 0.660893766 1.112139672
H -0.628716304 4.111595048 1.186924752
H -1.577105387 2.387186776 -1.655774156
H 3.466644070 2.977764381 0.423129805

