12

C -3.423354205 -0.820379073 1.328298017
N -1.086179239 -0.193015511 0.399015652
C 0.846608774 -1.922484848 -0.072421562
C 2.937515955 -0.641434727 -0.821610721
N 2.335804896 1.846288502 -0.834178458
C -0.137183081 2.097915872 -0.101585157
H 3.488650346 3.279120877 -1.272720473
H -3.953847439 -2.765362793 1.016869243
H -4.847818306 0.627623494 1.131240287
H 0.541712103 -3.911792302 0.204649100
H 4.776654621 -1.332912955 -1.344970787
H -1.135403373 3.851710557 0.100158451

