19

C 3.455320150 -1.650654038 -1.855110632
C 2.340549393 -0.657447265 0.156077470
O 0.059521025 3.998055881 -1.803906972
C -0.677458085 2.853003075 0.481606303
C -0.429162907 -0.049539586 0.472043117
C -1.314624394 -1.035071671 3.045889367
C -2.068931007 -1.160405394 -1.624177860
H 1.733048648 3.415908797 -2.209625482
H 5.476813722 -1.972770215 -1.888590286
H 2.404711888 -2.206276056 -3.523307318
H 3.513648966 -0.150273440 1.770998506
H -2.657573873 3.363865154 0.770270453
H 0.405322292 3.622169456 2.079507578
H -0.189346060 -0.243452453 4.586045733
H -1.152797772 -3.089849197 3.135657537
H -3.290400010 -0.536593308 3.379389840
H -1.865164220 -3.211819188 -1.717819610
H -1.589674674 -0.365995372 -3.463595469
H -4.055777301 -0.733015183 -1.264364312

