18

C -3.128627737 -1.619379354 -2.142459665
C -2.961333383 0.644200153 -0.338744160
C -0.331875176 1.637841374 0.136542860
C 2.512754938 2.146712437 2.883132264
N 1.379830357 -0.455482426 1.089541439
C 2.987431445 -1.895187962 -0.462022995
O 3.614937171 -1.237436962 -2.539706137
H -2.396541808 -1.128139984 -4.006821999
H -2.034354632 -3.238752963 -1.462482273
H -5.077231397 -2.269192107 -2.354473651
H -4.071472459 2.212515705 -1.096783966
H -3.882168974 0.144465688 1.454469286
H 0.592360467 2.350706615 -1.555302124
H 3.247305713 3.618958263 1.675073740
H 1.196585675 2.875918007 4.264282708
H 4.047335856 1.095748150 3.796219940
H 0.594823877 -1.497606877 2.487227195
H 3.781350460 -3.571319042 0.494969917

