15

C 4.837689260 0.497517797 0.031178062
C 2.363624556 -0.700812530 0.880458588
C 0.504790691 1.227412059 1.967252573
C -1.893062852 0.040956223 2.887603545
C -4.184317757 0.551699873 2.021963093
H -4.484017000 1.938925314 0.541018517
H -5.846349817 -0.385431923 2.763453130
H -1.682425928 -1.367767102 4.372399099
H 0.069754043 2.660779019 0.541403530
H 1.419529761 2.216095659 3.542191559
H 2.745177948 -2.154039548 2.303026217
H 1.467686238 -1.671890799 -0.709828942
H 4.511039895 1.919493638 -1.430124851
H 5.790116348 1.431572854 1.607840630
H 6.132878406 -0.910189895 -0.739659535

