16

O 2.154685588 3.219054647 -1.776012233
C 2.726619004 -0.544284701 -0.343464205
C 0.671953124 -2.310463215 -1.064601495
C -1.522883948 -1.638967650 0.634905138
C -3.336018565 0.291375246 -0.364782432
C -1.201539441 1.097153086 1.304337273
H 3.285801758 4.411636257 -0.992966286
H 3.088037781 -0.299651283 1.649568730
H 4.357991449 -0.380513344 -1.568468507
H 1.407758355 -4.253705684 -0.927018870
H 0.183597778 -2.050336027 -3.057335684
H -2.210609520 -3.040863489 1.961934563
H -3.271296825 0.730389616 -2.372037749
H -5.236658217 0.269752546 0.406042656
H 0.745779527 2.753002680 -0.449002688
H -1.622745391 1.777339085 3.195230605

