8

C -2.968080158 0.757094470 0.606736086
C -2.794933738 -2.028805659 1.047097151
H -4.431714729 -2.991779781 1.818030274
O -1.557930827 -3.512051788 -0.929999100
C -0.316395428 -3.369460123 1.148866481
H -3.495671416 1.691096615 2.368839293
H -4.394654687 1.211587266 -0.813357002
H -1.159834848 1.525759960 -0.013959539

