13

C -3.024927145 0.775649483 0.329917514
C -1.200903000 -1.342883358 0.802917097
O -0.182387748 -2.612594366 -1.335586521
C 1.507683766 -1.249255214 0.247425186
C 2.850083278 0.978309797 -0.881671112
H -3.282499518 1.888817695 2.048774621
H -4.862483450 0.015943676 -0.219133794
H -2.382339515 2.025235154 -1.173046377
H -1.776219479 -2.631369532 2.303080830
H 2.712169157 -2.472349438 1.385331633
H 1.590612167 2.134606095 -2.026050854
H 3.658698353 2.155222195 0.608744601
H 4.392513117 0.334667832 -2.090702825

