13

C -2.698836686 0.977358736 0.456208629
C -1.507892127 -1.550482755 0.911403496
O -0.625890539 -2.936702654 -1.281667816
C 1.099728858 -2.318485934 0.501967856
C 2.982523127 0.959242423 -0.865265077
H -2.547919170 2.145548611 2.151230961
H -4.703166423 0.737306486 0.031852505
H -1.814834785 1.966829143 -1.111508995
H -2.542943729 -2.744114032 2.229701026
H 3.108504289 -1.537714896 0.249709544
H 2.094662198 1.050236478 -2.710689955
H 2.415367619 2.458128947 0.414963410
H 5.037582808 0.866964526 -1.032964664

