13

C 3.129810592 -0.456022869 -1.057138324
C -0.980353687 -0.316422772 1.504393809
C -0.557933078 2.244290600 0.606832784
N 0.425048689 0.067904530 -0.899120692
C -3.309069540 -1.659706544 1.422733282
O -5.244835610 -1.083899057 2.528388397
H 3.402455119 -2.438099815 -1.541088492
H 4.020390894 0.751530379 -2.471623122
H 3.940655468 -0.111622815 0.799513644
H -2.026949910 3.304436801 -0.372047503
H 0.922706401 3.418585764 1.414272827
H -0.507871190 -0.181950636 -2.554287264
H -3.210764135 -3.469812347 0.340948167

