13

C 2.681229767 -1.031475088 -0.488070281
C -0.305842158 0.270865992 1.210530342
C -0.773040829 2.680019870 0.028669791
N 0.323337809 0.964982183 -1.836268021
C -2.293350044 -1.564721048 1.572429486
O -4.203421225 -1.167213964 2.777683127
H 3.178213886 -1.700435169 -2.380763710
H 4.095235746 0.282509105 0.189088774
H 2.581037357 -2.676848229 0.745153990
H -2.737246560 3.103271090 -0.389495741
H 0.377895506 4.324471109 0.458228633
H -1.030726624 0.068194112 -2.859046306
H -1.898559045 -3.493683537 0.831438129

