9

C -2.648717898 1.288429974 0.721817686
O -1.450961387 -0.704473024 1.327468409
C 0.949252405 -1.391675368 1.155767099
C 2.876195079 0.173278002 0.119092940
O 5.082617608 -0.452637708 -0.039842778
H 2.275472781 2.062201919 -0.570636970
H 1.288798546 -3.265637360 1.877497971
H -1.705477261 2.888845378 -0.128849010
H -4.647492918 1.245208441 1.121554099

