9

N -1.228436744 -1.326667807 -0.704954451
C 0.661512595 -0.552997113 0.609389035
C 3.191345876 -1.216209914 -0.069892503
N 5.219546369 -1.788935068 -0.574727433
C -1.040626634 3.847585909 0.378014805
N -3.173295439 3.365346302 0.650440387
H -2.901684593 -0.419473185 -0.307486352
H -1.005650147 -2.244804284 -2.361334094
H 0.331419903 0.448399223 2.356575669

