11

N 4.057889391 -0.730948030 0.338888214
C 1.519698229 -0.048665512 0.087867994
C 0.926545815 2.380660153 -0.305506599
C -3.216055576 1.062823131 -0.050834351
C -2.536865765 -1.337723518 0.076223086
O -0.097327528 -2.037228754 0.279335706
H 4.754605297 -1.611570703 -1.206395300
H 5.155078457 0.746775696 0.831880041
H -1.852652419 2.683198125 0.250645752
H -5.142588936 1.687671278 -0.314269127
H -3.808250352 -2.935387197 -0.003229107

