12

C -2.467222743 -0.845406228 -0.647067717
N -0.575228475 0.968392042 1.739726109
C 0.708331089 -1.280106562 1.088239437
C 2.783119113 -0.611381260 -0.383611871
N 2.780208047 1.896394042 -0.730448368
C 0.762603513 2.748797492 0.512996657
H -1.816937087 -0.115844199 -2.447095270
H -2.754862284 -2.878850862 -0.685905142
H -4.159475266 0.080424533 0.034437537
H 0.367820639 -3.002903937 2.123089254
H 4.210267873 -1.828478759 -1.186746003
H 0.214061146 4.714420006 0.543931341

