25

C    -0.81055   4.10010  -0.54240
N    -1.12390   2.71253  -0.23407
C    -0.63120   1.70274  -0.98642
O    -0.07075   1.88510  -2.07407
C    -0.69319   0.35989  -0.38007
C    -0.82511  -0.88427  -0.01996
Br   -2.12314  -2.22550  -0.47179
C     0.31836  -1.45134   1.05113
C     0.42074  -2.83221   1.51125
N     0.39235  -3.95750   1.79723
N     1.19665  -0.59522   1.48749
C     1.28386   0.66532   0.97621
C     1.06254   1.77236   1.86023
N     0.82103   2.68434   2.54039
C     2.21139   0.85178  -0.20788
O     2.61207  -0.07267  -0.87546
O     2.45079   2.13566  -0.41101
C     3.15583   2.48242  -1.62392
H     0.27472   4.31044  -0.45291
H    -1.34487   4.75286   0.16808
H    -1.12366   4.36052  -1.56062
H    -1.45025   2.49615   0.69816
H     4.17274   2.06784  -1.60793
H     2.60235   2.09086  -2.49144
H     3.18553   3.57696  -1.65404
25

C    -0.80996   4.10147  -0.54184
N    -1.12191   2.71400  -0.23368
C    -0.63024   1.70539  -0.98738
O    -0.06910   1.88785  -2.07469
C    -0.70447   0.36220  -0.38946
C    -0.84993  -0.87585  -0.04051
Br   -2.12428  -2.23032  -0.47081
C     0.33544  -1.45976   1.06788
C     0.42688  -2.83723   1.51737
N     0.39090  -3.96372   1.79780
N     1.19110  -0.58974   1.48136
C     1.29606   0.66733   0.98279
C     1.06553   1.77351   1.86291
N     0.82021   2.68568   2.54143
C     2.21395   0.85240  -0.20600
O     2.61126  -0.07218  -0.87560
O     2.45231   2.13653  -0.41108
C     3.15577   2.48244  -1.62452
H     0.27485   4.31103  -0.45280
H    -1.34480   4.75317   0.16823
H    -1.12356   4.36078  -1.56047
H    -1.45003   2.49623   0.69807
H     4.17271   2.06780  -1.60841
H     2.60211   2.09089  -2.49148
H     3.18563   3.57696  -1.65436
25

C    -0.80938   4.10283  -0.54127
N    -1.11992   2.71548  -0.23330
C    -0.62927   1.70805  -0.98835
O    -0.06745   1.89060  -2.07532
C    -0.71574   0.36450  -0.39886
C    -0.87474  -0.86742  -0.06107
Br   -2.12542  -2.23515  -0.46983
C     0.35253  -1.46819   1.08462
C     0.43302  -2.84224   1.52349
N     0.38945  -3.96994   1.79838
N     1.18556  -0.58426   1.47523
C     1.30826   0.66934   0.98937
C     1.06853   1.77467   1.86559
N     0.81939   2.68702   2.54247
C     2.21652   0.85302  -0.20411
O     2.61045  -0.07168  -0.87575
O     2.45382   2.13739  -0.41116
C     3.15572   2.48245  -1.62511
H     0.27499   4.31162  -0.45269
H    -1.34474   4.75348   0.16838
H    -1.12345   4.36104  -1.56033
H    -1.44982   2.49631   0.69797
H     4.17269   2.06775  -1.60889
H     2.60187   2.09092  -2.49153
H     3.18572   3.57697  -1.65468
25

C    -0.80879   4.10420  -0.54071
N    -1.11793   2.71695  -0.23292
C    -0.62831   1.71070  -0.98931
O    -0.06580   1.89335  -2.07594
C    -0.72701   0.36681  -0.40825
C    -0.89956  -0.85900  -0.08163
Br   -2.12655  -2.23998  -0.46885
C     0.36961  -1.47661   1.10136
C     0.43916  -2.84726   1.52961
N     0.38799  -3.97615   1.79895
N     1.18002  -0.57877   1.46911
C     1.32046   0.67135   0.99595
C     1.07153   1.77583   1.86827
N     0.81858   2.68836   2.54351
C     2.21908   0.85363  -0.20223
O     2.60965  -0.07119  -0.87589
O     2.45534   2.13825  -0.41123
C     3.15567   2.48247  -1.62571
H     0.27513   4.31220  -0.45258
H    -1.34467   4.75379   0.16854
H    -1.12334   4.36130  -1.56018
H    -1.44961   2.49639   0.69788
H     4.17267   2.06771  -1.60937
H     2.60163   2.09094  -2.49158
H     3.18582   3.57697  -1.65500
25

C    -0.80820   4.10557  -0.54015
N    -1.11594   2.71842  -0.23253
C    -0.62735   1.71335  -0.99028
O    -0.06416   1.89610  -2.07657
C    -0.73829   0.36912  -0.41764
C    -0.92437  -0.85058  -0.10219
Br   -2.12769  -2.24480  -0.46787
C     0.38670  -1.48504   1.11811
C     0.44531  -2.85227   1.53573
N     0.38654  -3.98237   1.79952
N     1.17448  -0.57329   1.46298
C     1.33266   0.67336   1.00253
C     1.07452   1.77698   1.87095
N     0.81776   2.68970   2.54455
C     2.22165   0.85425  -0.20035
O     2.60884  -0.07069  -0.87604
O     2.45685   2.13911  -0.41130
C     3.15561   2.48248  -1.62630
H     0.27527   4.31279  -0.45247
H    -1.34460   4.75411   0.16869
H    -1.12324   4.36155  -1.56004
H    -1.44940   2.49648   0.69778
H     4.17265   2.06766  -1.60985
H     2.60139   2.09097  -2.49163
H     3.18591   3.57698  -1.65531
25

C    -0.80761   4.10694  -0.53958
N    -1.11395   2.71989  -0.23215
C    -0.62639   1.71600  -0.99124
O    -0.06251   1.89885  -2.07719
C    -0.74956   0.37143  -0.42703
C    -0.94919  -0.84216  -0.12274
Br   -2.12883  -2.24963  -0.46689
C     0.40379  -1.49346   1.13485
C     0.45145  -2.85728   1.54185
N     0.38508  -3.98859   1.80009
N     1.16894  -0.56781   1.45685
C     1.34486   0.67537   1.00911
C     1.07752   1.77814   1.87363
N     0.81694   2.69104   2.54559
C     2.22421   0.85487  -0.19846
O     2.60804  -0.07020  -0.87618
O     2.45837   2.13997  -0.41137
C     3.15556   2.48250  -1.62689
H     0.27540   4.31337  -0.45236
H    -1.34453   4.75442   0.16884
H    -1.12313   4.36181  -1.55989
H    -1.44919   2.49656   0.69769
H     4.17263   2.06762  -1.61034
H     2.60115   2.09099  -2.49167
H     3.18601   3.57698  -1.65563
25

C    -0.80702   4.10830  -0.53902
N    -1.11196   2.72137  -0.23177
C    -0.62543   1.71865  -0.99221
O    -0.06086   1.90160  -2.07782
C    -0.76083   0.37373  -0.43643
C    -0.97401  -0.83373  -0.14330
Br   -2.12996  -2.25445  -0.46591
C     0.42087  -1.50189   1.15159
C     0.45759  -2.86230   1.54797
N     0.38363  -3.99480   1.80066
N     1.16339  -0.56233   1.45073
C     1.35706   0.67739   1.01569
C     1.08051   1.77929   1.87631
N     0.81612   2.69238   2.54663
C     2.22678   0.85549  -0.19658
O     2.60723  -0.06970  -0.87633
O     2.45988   2.14083  -0.41145
C     3.15551   2.48251  -1.62749
H     0.27554   4.31396  -0.45225
H    -1.34447   4.75473   0.16900
H    -1.12303   4.36207  -1.55975
H    -1.44898   2.49664   0.69759
H     4.17261   2.06757  -1.61082
H     2.60091   2.09102  -2.49172
H     3.18610   3.57699  -1.65595
25

C    -0.80643   4.10967  -0.53846
N    -1.10996   2.72284  -0.23139
C    -0.62446   1.72131  -0.99317
O    -0.05921   1.90435  -2.07844
C    -0.77211   0.37604  -0.44582
C    -0.99882  -0.82531  -0.16386
Br   -2.13110  -2.25928  -0.46492
C     0.43796  -1.51031   1.16833
C     0.46374  -2.86731   1.55409
N     0.38218  -4.00102   1.80123
N     1.15785  -0.55685   1.44460
C     1.36927   0.67940   1.02227
C     1.08351   1.78045   1.87899
N     0.81530   2.69372   2.54767
C     2.22934   0.85611  -0.19470
O     2.60643  -0.06921  -0.87647
O     2.46140   2.14170  -0.41152
C     3.15545   2.48253  -1.62808
H     0.27568   4.31454  -0.45214
H    -1.34440   4.75504   0.16915
H    -1.12292   4.36233  -1.55960
H    -1.44877   2.49672   0.69749
H     4.17259   2.06753  -1.61130
H     2.60067   2.09104  -2.49177
H     3.18619   3.57699  -1.65627
25

C    -0.80584   4.11104  -0.53789
N    -1.10797   2.72431  -0.23100
C    -0.62350   1.72396  -0.99414
O    -0.05756   1.90710  -2.07907
C    -0.78338   0.37835  -0.45521
C    -1.02364  -0.81689  -0.18442
Br   -2.13224  -2.26411  -0.46394
C     0.45504  -1.51874   1.18508
C     0.46988  -2.87233   1.56021
N     0.38072  -4.00724   1.80181
N     1.15231  -0.55137   1.43847
C     1.38147   0.68141   1.02885
C     1.08650   1.78161   1.88167
N     0.81449   2.69506   2.54871
C     2.23191   0.85673  -0.19281
O     2.60562  -0.06872  -0.87662
O     2.46291   2.14256  -0.41159
C     3.15540   2.48254  -1.62868
H     0.27581   4.31513  -0.45203
H    -1.34433   4.75535   0.16930
H    -1.12281   4.36259  -1.55946
H    -1.44855   2.49681   0.69740
H     4.17257   2.06748  -1.61178
H     2.60043   2.09107  -2.49181
H     3.18629   3.57700  -1.65658
25

C    -0.80526   4.11241  -0.53733
N    -1.10598   2.72578  -0.23062
C    -0.62254   1.72661  -0.99510
O    -0.05592   1.90985  -2.07969
C    -0.79466   0.38066  -0.46460
C    -1.04845  -0.80847  -0.20497
Br   -2.13337  -2.26893  -0.46296
C     0.47213  -1.52717   1.20182
C     0.47602  -2.87734   1.56633
N     0.37927  -4.01346   1.80238
N     1.14677  -0.54589   1.43235
C     1.39367   0.68342   1.03543
C     1.08950   1.78276   1.88435
N     0.81367   2.69640   2.54975
C     2.23447   0.85735  -0.19093
O     2.60481  -0.06822  -0.87676
O     2.46442   2.14342  -0.41166
C     3.15534   2.48256  -1.62927
H     0.27595   4.31572  -0.45192
H    -1.34426   4.75567   0.16945
H    -1.12271   4.36285  -1.55931
H    -1.44834   2.49689   0.69730
H     4.17255   2.06744  -1.61226
H     2.60019   2.09109  -2.49186
H     3.18638   3.57700  -1.65690
25

C    -0.80467   4.11377  -0.53677
N    -1.10399   2.72726  -0.23024
C    -0.62158   1.72926  -0.99607
O    -0.05427   1.91260  -2.08032
C    -0.80593   0.38296  -0.47400
C    -1.07327  -0.80004  -0.22553
Br   -2.13451  -2.27376  -0.46198
C     0.48921  -1.53559   1.21856
C     0.48216  -2.88236   1.57245
N     0.37782  -4.01967   1.80295
N     1.14123  -0.54041   1.42622
C     1.40587   0.68543   1.04201
C     1.09249   1.78392   1.88703
N     0.81285   2.69774   2.55079
C     2.23704   0.85797  -0.18904
O     2.60401  -0.06773  -0.87691
O     2.46594   2.14428  -0.41174
C     3.15529   2.48257  -1.62987
H     0.27609   4.31630  -0.45181
H    -1.34420   4.75598   0.16961
H    -1.12260   4.36311  -1.55917
H    -1.44813   2.49697   0.69721
H     4.17253   2.06739  -1.61274
H     2.59995   2.09112  -2.49191
H     3.18648   3.57701  -1.65722
25

C    -0.80408   4.11514  -0.53620
N    -1.10200   2.72873  -0.22985
C    -0.62062   1.73191  -0.99703
O    -0.05262   1.91535  -2.08094
C    -0.81720   0.38527  -0.48339
C    -1.09808  -0.79162  -0.24609
Br   -2.13565  -2.27858  -0.46100
C     0.50630  -1.54402   1.23531
C     0.48831  -2.88737   1.57857
N     0.37636  -4.02589   1.80352
N     1.13568  -0.53493   1.42009
C     1.41807   0.68744   1.04859
C     1.09549   1.78508   1.88971
N     0.81203   2.69908   2.55183
C     2.23960   0.85859  -0.18716
O     2.60320  -0.06723  -0.87705
O     2.46745   2.14514  -0.41181
C     3.15524   2.48259  -1.63046
H     0.27622   4.31689  -0.45170
H    -1.34413   4.75629   0.16976
H    -1.12250   4.36337  -1.55902
H    -1.44792   2.49705   0.69711
H     4.17251   2.06734  -1.61322
H     2.59971   2.09115  -2.49195
H     3.18657   3.57701  -1.65754
25

C    -0.80349   4.11651  -0.53564
N    -1.10001   2.73020  -0.22947
C    -0.61966   1.73457  -0.99800
O    -0.05097   1.91810  -2.08157
C    -0.82848   0.38758  -0.49278
C    -1.12290  -0.78320  -0.26665
Br   -2.13678  -2.28341  -0.46002
C     0.52339  -1.55244   1.25205
C     0.49445  -2.89239   1.58469
N     0.37491  -4.03211   1.80409
N     1.13014  -0.52944   1.41397
C     1.43027   0.68945   1.05517
C     1.09848   1.78623   1.89239
N     0.81121   2.70042   2.55287
C     2.24217   0.85921  -0.18528
O     2.60240  -0.06674  -0.87720
O     2.46897   2.14600  -0.41188
C     3.15518   2.48260  -1.63106
H     0.27636   4.31747  -0.45159
H    -1.34406   4.75660   0.16991
H    -1.12239   4.36362  -1.55888
H    -1.44771   2.49714   0.69702
H     4.17249   2.06730  -1.61370
H     2.59948   2.09117  -2.49200
H     3.18667   3.57701  -1.65786
25

C    -0.80290   4.11787  -0.53508
N    -1.09802   2.73168  -0.22909
C    -0.61869   1.73722  -0.99896
O    -0.04932   1.92085  -2.08219
C    -0.83975   0.38989  -0.50217
C    -1.14772  -0.77478  -0.28720
Br   -2.13792  -2.28823  -0.45904
C     0.54047  -1.56087   1.26879
C     0.50059  -2.89740   1.59081
N     0.37346  -4.03832   1.80466
N     1.12460  -0.52396   1.40784
C     1.44247   0.69146   1.06175
C     1.10148   1.78739   1.89507
N     0.81039   2.70176   2.55391
C     2.24473   0.85982  -0.18339
O     2.60159  -0.06624  -0.87734
O     2.47048   2.14687  -0.41195
C     3.15513   2.48262  -1.63165
H     0.27650   4.31806  -0.45148
H    -1.34399   4.75692   0.17006
H    -1.12228   4.36388  -1.55873
H    -1.44750   2.49722   0.69692
H     4.17247   2.06725  -1.61418
H     2.59924   2.09120  -2.49205
H     3.18676   3.57702  -1.65817
25

C    -0.80231   4.11924  -0.53452
N    -1.09603   2.73315  -0.22871
C    -0.61773   1.73987  -0.99993
O    -0.04768   1.92360  -2.08282
C    -0.85102   0.39219  -0.51156
C    -1.17253  -0.76635  -0.30776
Br   -2.13906  -2.29306  -0.45806
C     0.55756  -1.56929   1.28553
C     0.50673  -2.90241   1.59693
N     0.37200  -4.04454   1.80524
N     1.11906  -0.51848   1.40171
C     1.45467   0.69347   1.06833
C     1.10447   1.78855   1.89775
N     0.80958   2.70310   2.55495
C     2.24730   0.86044  -0.18151
O     2.60078  -0.06575  -0.87749
O     2.47200   2.14773  -0.41203
C     3.15508   2.48263  -1.63225
H     0.27663   4.31865  -0.45137
H    -1.34393   4.75723   0.17022
H    -1.12218   4.36414  -1.55859
H    -1.44729   2.49730   0.69682
H     4.17245   2.06721  -1.61466
H     2.59900   2.09122  -2.49209
H     3.18685   3.57702  -1.65849
25

C    -0.80172   4.12061  -0.53395
N    -1.09404   2.73462  -0.22832
C    -0.61677   1.74252  -1.00089
O    -0.04603   1.92635  -2.08344
C    -0.86230   0.39450  -0.52096
C    -1.19735  -0.75793  -0.32832
Br   -2.14019  -2.29789  -0.45708
C     0.57464  -1.57772   1.30228
C     0.51288  -2.90743   1.60305
N     0.37055  -4.05076   1.80581
N     1.11352  -0.51300   1.39559
C     1.46687   0.69548   1.07491
C     1.10747   1.78970   1.90043
N     0.80876   2.70444   2.55599
C     2.24986   0.86106  -0.17963
O     2.59998  -0.06525  -0.87763
O     2.47351   2.14859  -0.41210
C     3.15502   2.48265  -1.63284
H     0.27677   4.31923  -0.45126
H    -1.34386   4.75754   0.17037
H    -1.12207   4.36440  -1.55844
H    -1.44707   2.49738   0.69673
H     4.17243   2.06716  -1.61514
H     2.59876   2.09125  -2.49214
H     3.18695   3.57703  -1.65881
25

C    -0.80114   4.12198  -0.53339
N    -1.09205   2.73609  -0.22794
C    -0.61581   1.74517  -1.00186
O    -0.04438   1.92910  -2.08407
C    -0.87357   0.39681  -0.53035
C    -1.22216  -0.74951  -0.34888
Br   -2.14133  -2.30271  -0.45610
C     0.59173  -1.58614   1.31902
C     0.51902  -2.91244   1.60917
N     0.36910  -4.05698   1.80638
N     1.10797  -0.50752   1.38946
C     1.47907   0.69749   1.08149
C     1.11047   1.79086   1.90311
N     0.80794   2.70578   2.55703
C     2.25243   0.86168  -0.17774
O     2.59917  -0.06476  -0.87778
O     2.47503   2.14945  -0.41217
C     3.15497   2.48266  -1.63344
H     0.27691   4.31982  -0.45115
H    -1.34379   4.75785   0.17052
H    -1.12197   4.36466  -1.55830
H    -1.44686   2.49747   0.69663
H     4.17241   2.06712  -1.61562
H     2.59852   2.09127  -2.49219
H     3.18704   3.57703  -1.65913
25

C    -0.80055   4.12334  -0.53283
N    -1.09006   2.73757  -0.22756
C    -0.61485   1.74783  -1.00282
O    -0.04273   1.93185  -2.08469
C    -0.88485   0.39912  -0.53974
C    -1.24698  -0.74109  -0.36943
Br   -2.14247  -2.30754  -0.45512
C     0.60881  -1.59457   1.33576
C     0.52516  -2.91746   1.61529
N     0.36764  -4.06319   1.80695
N     1.10243  -0.50204   1.38334
C     1.49127   0.69950   1.08807
C     1.11346   1.79202   1.90579
N     0.80712   2.70712   2.55807
C     2.25499   0.86230  -0.17586
O     2.59837  -0.06427  -0.87792
O     2.47654   2.15031  -0.41224
C     3.15491   2.48268  -1.63403
H     0.27704   4.32040  -0.45104
H    -1.34372   4.75817   0.17067
H    -1.12186   4.36492  -1.55815
H    -1.44665   2.49755   0.69654
H     4.17239   2.06707  -1.61610
H     2.59828   2.09130  -2.49224
H     3.18714   3.57704  -1.65944
25

C    -0.79996   4.12471  -0.53226
N    -1.08807   2.73904  -0.22717
C    -0.61388   1.75048  -1.00379
O    -0.04108   1.93460  -2.08532
C    -0.89612   0.40142  -0.54913
C    -1.27180  -0.73266  -0.38999
Br   -2.14360  -2.31236  -0.45414
C     0.62590  -1.60299   1.35251
C     0.53130  -2.92247   1.62141
N     0.36619  -4.06941   1.80752
N     1.09689  -0.49656   1.37721
C     1.50347   0.70151   1.09465
C     1.11646   1.79317   1.90847
N     0.80630   2.70845   2.55911
C     2.25756   0.86292  -0.17397
O     2.59756  -0.06377  -0.87807
O     2.47806   2.15117  -0.41232
C     3.15486   2.48269  -1.63463
H     0.27718   4.32099  -0.45093
H    -1.34366   4.75848   0.17083
H    -1.12175   4.36518  -1.55801
H    -1.44644   2.49763   0.69644
H     4.17237   2.06703  -1.61658
H     2.59804   2.09133  -2.49228
H     3.18723   3.57704  -1.65976
25

C    -0.79937   4.12608  -0.53170
N    -1.08608   2.74051  -0.22679
C    -0.61292   1.75313  -1.00475
O    -0.03944   1.93736  -2.08594
C    -0.90739   0.40373  -0.55853
C    -1.29661  -0.72424  -0.41055
Br   -2.14474  -2.31719  -0.45316
C     0.64299  -1.61142   1.36925
C     0.53745  -2.92749   1.62753
N     0.36474  -4.07563   1.80809
N     1.09135  -0.49108   1.37108
C     1.51568   0.70352   1.10123
C     1.11945   1.79433   1.91115
N     0.80549   2.70979   2.56015
C     2.26012   0.86354  -0.17209
O     2.59676  -0.06328  -0.87821
O     2.47957   2.15204  -0.41239
C     3.15481   2.48271  -1.63522
H     0.27732   4.32157  -0.45082
H    -1.34359   4.75879   0.17098
H    -1.12165   4.36544  -1.55786
H    -1.44623   2.49772   0.69635
H     4.17235   2.06698  -1.61706
H     2.59780   2.09135  -2.49233
H     3.18732   3.57705  -1.66008
25

C    -0.79878   4.12745  -0.53114
N    -1.08408   2.74198  -0.22641
C    -0.61196   1.75578  -1.00572
O    -0.03779   1.94011  -2.08657
C    -0.91867   0.40604  -0.56792
C    -1.32143  -0.71582  -0.43111
Br   -2.14588  -2.32201  -0.45218
C     0.66007  -1.61984   1.38599
C     0.54359  -2.93250   1.63365
N     0.36328  -4.08184   1.80866
N     1.08581  -0.48560   1.36496
C     1.52788   0.70553   1.10781
C     1.12245   1.79549   1.91383
N     0.80467   2.71113   2.56119
C     2.26269   0.86416  -0.17021
O     2.59595  -0.06278  -0.87836
O     2.48108   2.15290  -0.41246
C     3.15475   2.48272  -1.63582
H     0.27745   4.32216  -0.45071
H    -1.34352   4.75910   0.17113
H    -1.12154   4.36569  -1.55772
H    -1.44602   2.49780   0.69625
H     4.17233   2.06694  -1.61754
H     2.59756   2.09138  -2.49238
H     3.18742   3.57705  -1.66040
25

C    -0.79937   4.12608  -0.53170
N    -1.08608   2.74051  -0.22679
C    -0.61292   1.75313  -1.00475
O    -0.03944   1.93736  -2.08594
C    -0.90739   0.40373  -0.55853
C    -1.29661  -0.72424  -0.41055
Br   -2.14474  -2.31719  -0.45316
C     0.64299  -1.61142   1.36925
C     0.53745  -2.92749   1.62753
N     0.36474  -4.07563   1.80809
N     1.09135  -0.49108   1.37108
C     1.51568   0.70352   1.10123
C     1.11945   1.79433   1.91115
N     0.80549   2.70979   2.56015
C     2.26012   0.86354  -0.17209
O     2.59676  -0.06328  -0.87821
O     2.47957   2.15204  -0.41239
C     3.15481   2.48271  -1.63522
H     0.27732   4.32157  -0.45082
H    -1.34359   4.75879   0.17098
H    -1.12165   4.36544  -1.55786
H    -1.44623   2.49772   0.69635
H     4.17235   2.06698  -1.61706
H     2.59780   2.09135  -2.49233
H     3.18732   3.57705  -1.66008
25

C    -0.79996   4.12471  -0.53226
N    -1.08807   2.73904  -0.22717
C    -0.61388   1.75048  -1.00379
O    -0.04108   1.93460  -2.08532
C    -0.89612   0.40142  -0.54913
C    -1.27180  -0.73266  -0.38999
Br   -2.14360  -2.31236  -0.45414
C     0.62590  -1.60299   1.35251
C     0.53130  -2.92247   1.62141
N     0.36619  -4.06941   1.80752
N     1.09689  -0.49656   1.37721
C     1.50347   0.70151   1.09465
C     1.11646   1.79317   1.90847
N     0.80630   2.70845   2.55911
C     2.25756   0.86292  -0.17397
O     2.59756  -0.06377  -0.87807
O     2.47806   2.15117  -0.41232
C     3.15486   2.48269  -1.63463
H     0.27718   4.32099  -0.45093
H    -1.34366   4.75848   0.17083
H    -1.12175   4.36518  -1.55801
H    -1.44644   2.49763   0.69644
H     4.17237   2.06703  -1.61658
H     2.59804   2.09133  -2.49228
H     3.18723   3.57704  -1.65976
25

C    -0.80055   4.12334  -0.53283
N    -1.09006   2.73757  -0.22756
C    -0.61485   1.74783  -1.00282
O    -0.04273   1.93185  -2.08469
C    -0.88485   0.39912  -0.53974
C    -1.24698  -0.74109  -0.36943
Br   -2.14247  -2.30754  -0.45512
C     0.60881  -1.59457   1.33576
C     0.52516  -2.91746   1.61529
N     0.36764  -4.06319   1.80695
N     1.10243  -0.50204   1.38334
C     1.49127   0.69950   1.08807
C     1.11346   1.79202   1.90579
N     0.80712   2.70712   2.55807
C     2.25499   0.86230  -0.17586
O     2.59837  -0.06427  -0.87792
O     2.47654   2.15031  -0.41224
C     3.15491   2.48268  -1.63403
H     0.27704   4.32040  -0.45104
H    -1.34372   4.75817   0.17067
H    -1.12186   4.36492  -1.55815
H    -1.44665   2.49755   0.69654
H     4.17239   2.06707  -1.61610
H     2.59828   2.09130  -2.49224
H     3.18714   3.57704  -1.65944
25

C    -0.80114   4.12198  -0.53339
N    -1.09205   2.73609  -0.22794
C    -0.61581   1.74517  -1.00186
O    -0.04438   1.92910  -2.08407
C    -0.87357   0.39681  -0.53035
C    -1.22216  -0.74951  -0.34888
Br   -2.14133  -2.30271  -0.45610
C     0.59173  -1.58614   1.31902
C     0.51902  -2.91244   1.60917
N     0.36910  -4.05698   1.80638
N     1.10797  -0.50752   1.38946
C     1.47907   0.69749   1.08149
C     1.11047   1.79086   1.90311
N     0.80794   2.70578   2.55703
C     2.25243   0.86168  -0.17774
O     2.59917  -0.06476  -0.87778
O     2.47503   2.14945  -0.41217
C     3.15497   2.48266  -1.63344
H     0.27691   4.31982  -0.45115
H    -1.34379   4.75785   0.17052
H    -1.12197   4.36466  -1.55830
H    -1.44686   2.49747   0.69663
H     4.17241   2.06712  -1.61562
H     2.59852   2.09127  -2.49219
H     3.18704   3.57703  -1.65913
25

C    -0.80172   4.12061  -0.53395
N    -1.09404   2.73462  -0.22832
C    -0.61677   1.74252  -1.00089
O    -0.04603   1.92635  -2.08344
C    -0.86230   0.39450  -0.52096
C    -1.19735  -0.75793  -0.32832
Br   -2.14019  -2.29789  -0.45708
C     0.57464  -1.57772   1.30228
C     0.51288  -2.90743   1.60305
N     0.37055  -4.05076   1.80581
N     1.11352  -0.51300   1.39559
C     1.46687   0.69548   1.07491
C     1.10747   1.78970   1.90043
N     0.80876   2.70444   2.55599
C     2.24986   0.86106  -0.17963
O     2.59998  -0.06525  -0.87763
O     2.47351   2.14859  -0.41210
C     3.15502   2.48265  -1.63284
H     0.27677   4.31923  -0.45126
H    -1.34386   4.75754   0.17037
H    -1.12207   4.36440  -1.55844
H    -1.44707   2.49738   0.69673
H     4.17243   2.06716  -1.61514
H     2.59876   2.09125  -2.49214
H     3.18695   3.57703  -1.65881
25

C    -0.80231   4.11924  -0.53452
N    -1.09603   2.73315  -0.22871
C    -0.61773   1.73987  -0.99993
O    -0.04768   1.92360  -2.08282
C    -0.85102   0.39219  -0.51156
C    -1.17253  -0.76635  -0.30776
Br   -2.13906  -2.29306  -0.45806
C     0.55756  -1.56929   1.28553
C     0.50673  -2.90241   1.59693
N     0.37200  -4.04454   1.80524
N     1.11906  -0.51848   1.40171
C     1.45467   0.69347   1.06833
C     1.10447   1.78855   1.89775
N     0.80958   2.70310   2.55495
C     2.24730   0.86044  -0.18151
O     2.60078  -0.06575  -0.87749
O     2.47200   2.14773  -0.41203
C     3.15508   2.48263  -1.63225
H     0.27663   4.31865  -0.45137
H    -1.34393   4.75723   0.17022
H    -1.12218   4.36414  -1.55859
H    -1.44729   2.49730   0.69682
H     4.17245   2.06721  -1.61466
H     2.59900   2.09122  -2.49209
H     3.18685   3.57702  -1.65849
25

C    -0.80290   4.11787  -0.53508
N    -1.09802   2.73168  -0.22909
C    -0.61869   1.73722  -0.99896
O    -0.04932   1.92085  -2.08219
C    -0.83975   0.38989  -0.50217
C    -1.14772  -0.77478  -0.28720
Br   -2.13792  -2.28823  -0.45904
C     0.54047  -1.56087   1.26879
C     0.50059  -2.89740   1.59081
N     0.37346  -4.03832   1.80466
N     1.12460  -0.52396   1.40784
C     1.44247   0.69146   1.06175
C     1.10148   1.78739   1.89507
N     0.81039   2.70176   2.55391
C     2.24473   0.85982  -0.18339
O     2.60159  -0.06624  -0.87734
O     2.47048   2.14687  -0.41195
C     3.15513   2.48262  -1.63165
H     0.27650   4.31806  -0.45148
H    -1.34399   4.75692   0.17006
H    -1.12228   4.36388  -1.55873
H    -1.44750   2.49722   0.69692
H     4.17247   2.06725  -1.61418
H     2.59924   2.09120  -2.49205
H     3.18676   3.57702  -1.65817
25

C    -0.80349   4.11651  -0.53564
N    -1.10001   2.73020  -0.22947
C    -0.61966   1.73457  -0.99800
O    -0.05097   1.91810  -2.08157
C    -0.82848   0.38758  -0.49278
C    -1.12290  -0.78320  -0.26665
Br   -2.13678  -2.28341  -0.46002
C     0.52339  -1.55244   1.25205
C     0.49445  -2.89239   1.58469
N     0.37491  -4.03211   1.80409
N     1.13014  -0.52944   1.41397
C     1.43027   0.68945   1.05517
C     1.09848   1.78623   1.89239
N     0.81121   2.70042   2.55287
C     2.24217   0.85921  -0.18528
O     2.60240  -0.06674  -0.87720
O     2.46897   2.14600  -0.41188
C     3.15518   2.48260  -1.63106
H     0.27636   4.31747  -0.45159
H    -1.34406   4.75660   0.16991
H    -1.12239   4.36362  -1.55888
H    -1.44771   2.49714   0.69702
H     4.17249   2.06730  -1.61370
H     2.59948   2.09117  -2.49200
H     3.18667   3.57701  -1.65786
25

C    -0.80408   4.11514  -0.53620
N    -1.10200   2.72873  -0.22985
C    -0.62062   1.73191  -0.99703
O    -0.05262   1.91535  -2.08094
C    -0.81720   0.38527  -0.48339
C    -1.09808  -0.79162  -0.24609
Br   -2.13565  -2.27858  -0.46100
C     0.50630  -1.54402   1.23531
C     0.48831  -2.88737   1.57857
N     0.37636  -4.02589   1.80352
N     1.13568  -0.53493   1.42009
C     1.41807   0.68744   1.04859
C     1.09549   1.78508   1.88971
N     0.81203   2.69908   2.55183
C     2.23960   0.85859  -0.18716
O     2.60320  -0.06723  -0.87705
O     2.46745   2.14514  -0.41181
C     3.15524   2.48259  -1.63046
H     0.27622   4.31689  -0.45170
H    -1.34413   4.75629   0.16976
H    -1.12250   4.36337  -1.55902
H    -1.44792   2.49705   0.69711
H     4.17251   2.06734  -1.61322
H     2.59971   2.09115  -2.49195
H     3.18657   3.57701  -1.65754
25

C    -0.80467   4.11377  -0.53677
N    -1.10399   2.72726  -0.23024
C    -0.62158   1.72926  -0.99607
O    -0.05427   1.91260  -2.08032
C    -0.80593   0.38296  -0.47400
C    -1.07327  -0.80004  -0.22553
Br   -2.13451  -2.27376  -0.46198
C     0.48921  -1.53559   1.21856
C     0.48216  -2.88236   1.57245
N     0.37782  -4.01967   1.80295
N     1.14123  -0.54041   1.42622
C     1.40587   0.68543   1.04201
C     1.09249   1.78392   1.88703
N     0.81285   2.69774   2.55079
C     2.23704   0.85797  -0.18904
O     2.60401  -0.06773  -0.87691
O     2.46594   2.14428  -0.41174
C     3.15529   2.48257  -1.62987
H     0.27609   4.31630  -0.45181
H    -1.34420   4.75598   0.16961
H    -1.12260   4.36311  -1.55917
H    -1.44813   2.49697   0.69721
H     4.17253   2.06739  -1.61274
H     2.59995   2.09112  -2.49191
H     3.18648   3.57701  -1.65722
25

C    -0.80526   4.11241  -0.53733
N    -1.10598   2.72578  -0.23062
C    -0.62254   1.72661  -0.99510
O    -0.05592   1.90985  -2.07969
C    -0.79466   0.38066  -0.46460
C    -1.04845  -0.80847  -0.20497
Br   -2.13337  -2.26893  -0.46296
C     0.47213  -1.52717   1.20182
C     0.47602  -2.87734   1.56633
N     0.37927  -4.01346   1.80238
N     1.14677  -0.54589   1.43235
C     1.39367   0.68342   1.03543
C     1.08950   1.78276   1.88435
N     0.81367   2.69640   2.54975
C     2.23447   0.85735  -0.19093
O     2.60481  -0.06822  -0.87676
O     2.46442   2.14342  -0.41166
C     3.15534   2.48256  -1.62927
H     0.27595   4.31572  -0.45192
H    -1.34426   4.75567   0.16945
H    -1.12271   4.36285  -1.55931
H    -1.44834   2.49689   0.69730
H     4.17255   2.06744  -1.61226
H     2.60019   2.09109  -2.49186
H     3.18638   3.57700  -1.65690
25

C    -0.80584   4.11104  -0.53789
N    -1.10797   2.72431  -0.23100
C    -0.62350   1.72396  -0.99414
O    -0.05756   1.90710  -2.07907
C    -0.78338   0.37835  -0.45521
C    -1.02364  -0.81689  -0.18442
Br   -2.13224  -2.26411  -0.46394
C     0.45504  -1.51874   1.18508
C     0.46988  -2.87233   1.56021
N     0.38072  -4.00724   1.80181
N     1.15231  -0.55137   1.43847
C     1.38147   0.68141   1.02885
C     1.08650   1.78161   1.88167
N     0.81449   2.69506   2.54871
C     2.23191   0.85673  -0.19281
O     2.60562  -0.06872  -0.87662
O     2.46291   2.14256  -0.41159
C     3.15540   2.48254  -1.62868
H     0.27581   4.31513  -0.45203
H    -1.34433   4.75535   0.16930
H    -1.12281   4.36259  -1.55946
H    -1.44855   2.49681   0.69740
H     4.17257   2.06748  -1.61178
H     2.60043   2.09107  -2.49181
H     3.18629   3.57700  -1.65658
25

C    -0.80643   4.10967  -0.53846
N    -1.10996   2.72284  -0.23139
C    -0.62446   1.72131  -0.99317
O    -0.05921   1.90435  -2.07844
C    -0.77211   0.37604  -0.44582
C    -0.99882  -0.82531  -0.16386
Br   -2.13110  -2.25928  -0.46492
C     0.43796  -1.51031   1.16833
C     0.46374  -2.86731   1.55409
N     0.38218  -4.00102   1.80123
N     1.15785  -0.55685   1.44460
C     1.36927   0.67940   1.02227
C     1.08351   1.78045   1.87899
N     0.81530   2.69372   2.54767
C     2.22934   0.85611  -0.19470
O     2.60643  -0.06921  -0.87647
O     2.46140   2.14170  -0.41152
C     3.15545   2.48253  -1.62808
H     0.27568   4.31454  -0.45214
H    -1.34440   4.75504   0.16915
H    -1.12292   4.36233  -1.55960
H    -1.44877   2.49672   0.69749
H     4.17259   2.06753  -1.61130
H     2.60067   2.09104  -2.49177
H     3.18619   3.57699  -1.65627
25

C    -0.80702   4.10830  -0.53902
N    -1.11196   2.72137  -0.23177
C    -0.62543   1.71865  -0.99221
O    -0.06086   1.90160  -2.07782
C    -0.76083   0.37373  -0.43643
C    -0.97401  -0.83373  -0.14330
Br   -2.12996  -2.25445  -0.46591
C     0.42087  -1.50189   1.15159
C     0.45759  -2.86230   1.54797
N     0.38363  -3.99480   1.80066
N     1.16339  -0.56233   1.45073
C     1.35706   0.67739   1.01569
C     1.08051   1.77929   1.87631
N     0.81612   2.69238   2.54663
C     2.22678   0.85549  -0.19658
O     2.60723  -0.06970  -0.87633
O     2.45988   2.14083  -0.41145
C     3.15551   2.48251  -1.62749
H     0.27554   4.31396  -0.45225
H    -1.34447   4.75473   0.16900
H    -1.12303   4.36207  -1.55975
H    -1.44898   2.49664   0.69759
H     4.17261   2.06757  -1.61082
H     2.60091   2.09102  -2.49172
H     3.18610   3.57699  -1.65595
25

C    -0.80761   4.10694  -0.53958
N    -1.11395   2.71989  -0.23215
C    -0.62639   1.71600  -0.99124
O    -0.06251   1.89885  -2.07719
C    -0.74956   0.37143  -0.42703
C    -0.94919  -0.84216  -0.12274
Br   -2.12883  -2.24963  -0.46689
C     0.40379  -1.49346   1.13485
C     0.45145  -2.85728   1.54185
N     0.38508  -3.98859   1.80009
N     1.16894  -0.56781   1.45685
C     1.34486   0.67537   1.00911
C     1.07752   1.77814   1.87363
N     0.81694   2.69104   2.54559
C     2.22421   0.85487  -0.19846
O     2.60804  -0.07020  -0.87618
O     2.45837   2.13997  -0.41137
C     3.15556   2.48250  -1.62689
H     0.27540   4.31337  -0.45236
H    -1.34453   4.75442   0.16884
H    -1.12313   4.36181  -1.55989
H    -1.44919   2.49656   0.69769
H     4.17263   2.06762  -1.61034
H     2.60115   2.09099  -2.49167
H     3.18601   3.57698  -1.65563
25

C    -0.80820   4.10557  -0.54015
N    -1.11594   2.71842  -0.23253
C    -0.62735   1.71335  -0.99028
O    -0.06416   1.89610  -2.07657
C    -0.73829   0.36912  -0.41764
C    -0.92437  -0.85058  -0.10219
Br   -2.12769  -2.24480  -0.46787
C     0.38670  -1.48504   1.11811
C     0.44531  -2.85227   1.53573
N     0.38654  -3.98237   1.79952
N     1.17448  -0.57329   1.46298
C     1.33266   0.67336   1.00253
C     1.07452   1.77698   1.87095
N     0.81776   2.68970   2.54455
C     2.22165   0.85425  -0.20035
O     2.60884  -0.07069  -0.87604
O     2.45685   2.13911  -0.41130
C     3.15561   2.48248  -1.62630
H     0.27527   4.31279  -0.45247
H    -1.34460   4.75411   0.16869
H    -1.12324   4.36155  -1.56004
H    -1.44940   2.49648   0.69778
H     4.17265   2.06766  -1.60985
H     2.60139   2.09097  -2.49163
H     3.18591   3.57698  -1.65531
25

C    -0.80879   4.10420  -0.54071
N    -1.11793   2.71695  -0.23292
C    -0.62831   1.71070  -0.98931
O    -0.06580   1.89335  -2.07594
C    -0.72701   0.36681  -0.40825
C    -0.89956  -0.85900  -0.08163
Br   -2.12655  -2.23998  -0.46885
C     0.36961  -1.47661   1.10136
C     0.43916  -2.84726   1.52961
N     0.38799  -3.97615   1.79895
N     1.18002  -0.57877   1.46911
C     1.32046   0.67135   0.99595
C     1.07153   1.77583   1.86827
N     0.81858   2.68836   2.54351
C     2.21908   0.85363  -0.20223
O     2.60965  -0.07119  -0.87589
O     2.45534   2.13825  -0.41123
C     3.15567   2.48247  -1.62571
H     0.27513   4.31220  -0.45258
H    -1.34467   4.75379   0.16854
H    -1.12334   4.36130  -1.56018
H    -1.44961   2.49639   0.69788
H     4.17267   2.06771  -1.60937
H     2.60163   2.09094  -2.49158
H     3.18582   3.57697  -1.65500
25

C    -0.80938   4.10283  -0.54127
N    -1.11992   2.71548  -0.23330
C    -0.62927   1.70805  -0.98835
O    -0.06745   1.89060  -2.07532
C    -0.71574   0.36450  -0.39886
C    -0.87474  -0.86742  -0.06107
Br   -2.12542  -2.23515  -0.46983
C     0.35253  -1.46819   1.08462
C     0.43302  -2.84224   1.52349
N     0.38945  -3.96994   1.79838
N     1.18556  -0.58426   1.47523
C     1.30826   0.66934   0.98937
C     1.06853   1.77467   1.86559
N     0.81939   2.68702   2.54247
C     2.21652   0.85302  -0.20411
O     2.61045  -0.07168  -0.87575
O     2.45382   2.13739  -0.41116
C     3.15572   2.48245  -1.62511
H     0.27499   4.31162  -0.45269
H    -1.34474   4.75348   0.16838
H    -1.12345   4.36104  -1.56033
H    -1.44982   2.49631   0.69797
H     4.17269   2.06775  -1.60889
H     2.60187   2.09092  -2.49153
H     3.18572   3.57697  -1.65468
25

C    -0.80996   4.10147  -0.54184
N    -1.12191   2.71400  -0.23368
C    -0.63024   1.70539  -0.98738
O    -0.06910   1.88785  -2.07469
C    -0.70447   0.36220  -0.38946
C    -0.84993  -0.87585  -0.04051
Br   -2.12428  -2.23032  -0.47081
C     0.33544  -1.45976   1.06788
C     0.42688  -2.83723   1.51737
N     0.39090  -3.96372   1.79780
N     1.19110  -0.58974   1.48136
C     1.29606   0.66733   0.98279
C     1.06553   1.77351   1.86291
N     0.82021   2.68568   2.54143
C     2.21395   0.85240  -0.20600
O     2.61126  -0.07218  -0.87560
O     2.45231   2.13653  -0.41108
C     3.15577   2.48244  -1.62452
H     0.27485   4.31103  -0.45280
H    -1.34480   4.75317   0.16823
H    -1.12356   4.36078  -1.56047
H    -1.45003   2.49623   0.69807
H     4.17271   2.06780  -1.60841
H     2.60211   2.09089  -2.49148
H     3.18563   3.57696  -1.65436
