10

C -2.662163791 -1.361180027 -0.254827867
C 0.322366754 2.119646268 0.987265342
C 2.878934672 2.109874002 0.624921734
O 3.685459313 -0.050379702 -0.515961202
N 1.722926916 -1.497197600 -0.930617929
N -0.173290852 -0.219133322 -0.056370379
H -2.484983334 -3.209571737 -1.134563144
H -3.456429268 -1.524378929 1.633143023
H -3.856245087 -0.130219497 -1.386792940
H 4.365750456 3.434227103 1.045821983

