10

C -2.640190509 -0.861574990 -0.329493932
C 0.151871053 1.035404981 1.470334765
C 2.311700608 2.008774108 0.342220784
O 3.720903356 0.174137658 -0.606457144
N 2.490202304 -2.051235933 -0.343861425
N 0.468323758 -1.541109374 0.923827160
H -2.526183105 -2.434823408 -1.642057371
H -3.834702134 -1.222042780 1.282410667
H -3.080991351 0.894309147 -1.285468603
H 3.094520562 3.883034695 0.193910013

