14

C -4.009126331 -0.577325542 -1.202473532
C -1.172047335 -0.597607538 -0.916888180
O -0.458027415 1.582942600 0.493455604
C 2.079509146 1.990547114 0.654249848
C 4.768573944 -1.399595683 1.513758385
O 3.226157221 0.243474733 2.446975254
H -4.630369429 1.113093285 -2.204456174
H -4.922866114 -0.611017658 0.644393887
H -4.624910350 -2.233699630 -2.264506946
H -0.542026932 -2.304697320 0.067913053
H -0.225256148 -0.552887830 -2.759847042
H 2.374678168 3.867084311 1.444440358
H 3.084814361 1.706894215 -1.134203113
H 5.350987612 -2.507668759 3.206162047

