14

C -3.988493129 -0.750892521 -0.945385364
C -1.167460290 -0.509351583 -1.238847283
O -0.330433844 1.587214817 0.289716274
C 2.055619247 2.125107671 0.303413349
C 3.673070136 -1.261105762 2.012174198
O 4.856422210 0.758091357 2.459827791
H -4.968226212 0.943790699 -1.590128472
H -4.486784958 -1.094452233 1.023923761
H -4.652959990 -2.349397564 -2.064803184
H -0.111437509 -2.147211986 -0.548924527
H -0.613393913 -0.136661630 -3.194260703
H 2.411471571 3.833564576 1.367215698
H 3.194389583 1.671753189 -1.331155132
H 4.146887573 -2.765398301 3.464354099

