10

O -4.486558852 1.854538007 -2.066983267
C -3.211348760 -0.007826093 -1.934846170
C -0.730757621 -0.105808922 -0.609774256
N 0.424083474 -2.281684859 -0.560500894
O 2.592439095 -2.027112048 0.693369919
C 2.704282820 0.505011468 1.490750686
C 0.664935002 1.967604686 0.563836639
H -3.791820261 -1.824341733 -2.791937955
H 4.580973576 1.090923755 2.054011034
H 1.335082644 0.818670761 3.196380334

