10

N 2.232939147 0.626717200 0.470346218
C 0.962374682 -0.021538588 -1.914447654
N -1.108292927 -1.686637258 -1.460523571
C -2.699175079 -1.303789498 0.280012379
N -2.290845250 0.663910053 2.102432526
N -0.562770947 1.853281622 2.641976546
N 1.309994092 0.911935265 -3.987705284
H 3.137531692 -0.840611993 1.311624472
H 3.391647435 2.131545212 0.231937785
H -4.519935989 -2.209931354 0.456459226

