11

O 2.889300802 -2.036530481 1.717675896
C 1.951679567 -1.119973740 -0.325781679
C 1.208332912 1.506815625 0.557819770
C -1.494839788 1.638269812 -0.064967178
C -1.145713907 -1.224106002 -0.428134310
H 2.833322787 -1.424696783 -2.184885887
H 2.083825451 2.182555307 2.291125364
H -2.794143227 2.305515742 1.381684254
H -1.862366878 2.592810427 -1.853969936
H -1.785824390 -2.373943707 1.139270395
H -1.754155472 -1.923260354 -2.261629442

