10

C 1.502475132 3.428780931 -1.700423169
C -0.802424937 1.903912506 -1.374017711
C -2.967216346 1.479724625 -0.354207789
H -4.447888782 2.016482112 0.930216400
C -2.102766516 -0.466510452 -2.229657165
H -1.425151829 -2.296169119 -1.565367448
H -2.966655192 -0.536545063 -4.099590298
H 1.726829786 3.970422415 -3.679602843
H 1.452887434 5.133277518 -0.544799538
H 3.166259743 2.321100483 -1.183452003

