12

O 1.654205910 -0.935490625 3.238193434
C 2.409321384 -1.358884784 1.060637568
C 1.467129544 -0.139948695 -1.110348968
C -2.801828158 -0.809518326 0.044094132
O -2.749751142 1.419791583 -0.890254853
C -0.048496476 2.212288390 -0.818628620
H 3.777144175 -2.902405089 0.728946413
H 2.326348498 -0.535706100 -2.925603858
H -4.523237945 -1.860372328 -0.375651608
H -1.606817362 -1.358543424 1.633558857
H 0.266386207 3.137810748 0.995440467
H 0.105748564 3.559574186 -2.361584369

