16

C 2.832377395 0.180914820 -2.646407160
C 1.559444914 1.093010636 -0.231778708
C -1.282338971 0.141841256 3.356695986
O -3.383280824 0.647237717 4.042560613
C -0.551404206 -0.658791748 0.717152633
C -2.825034032 -0.801682690 -1.031635601
H 3.625315793 -1.710001170 -2.398894536
H 4.372581665 1.442434489 -3.182394981
H 1.513459732 0.108573081 -4.229390219
H 2.989098845 1.290728334 1.251357969
H 0.768559816 2.982696321 -0.526514416
H 0.325918173 0.259509966 4.705686694
H 0.279196528 -2.551568911 0.944801060
H -3.633620988 1.073582475 -1.326006781
H -4.303335769 -1.985990512 -0.223341118
H -2.303012100 -1.580817130 -2.866135670

