16

C 3.893132409 0.398753358 -1.386539792
C 1.851769974 1.860883991 0.016238265
C -0.118425961 0.234784374 1.425451672
O -1.758114694 1.387521448 2.889903814
C -1.612535087 -1.515249832 -0.140588462
C -4.268811342 -1.053062601 -0.714292268
H 4.930818781 -0.856019988 -0.115909205
H 5.264656211 1.682054294 -2.236228669
H 3.110911328 -0.753266716 -2.911636042
H 2.674670811 3.067029166 1.476113358
H 0.809144217 3.104273930 -1.261869590
H 0.985337254 -1.255238257 2.501237360
H -0.883750623 -3.405577286 -0.530908955
H -4.676702528 0.965252602 -0.577005800
H -5.475351319 -1.968322253 0.701186110
H -4.757975264 -1.907240843 -2.532476857

