15

C -1.215670000 3.890783120 0.705057327
C -1.094004330 1.635120092 -1.039339561
H -2.276841245 1.776538087 -2.720360383
C 0.997828401 -0.216122383 -1.072590653
C 3.682002607 -0.368539661 -0.285342579
H 4.336102864 -2.324492598 -0.300548997
H 4.874366444 0.693560782 -1.584864697
H 3.981826043 0.377976916 1.631499642
N -1.061554709 -0.861234480 0.143555672
C -2.315844305 -2.175935521 1.799562983
H -4.280898125 -1.733825439 2.112341682
H -1.414432339 -3.782271966 2.678130522
H -0.148636125 3.551800685 2.436473403
H -3.158058653 4.363188649 1.215568767
H -0.400379449 5.529584513 -0.247334026

