12

O 3.867806545 -0.494057084 0.642954502
C 1.484612175 -1.053256335 -0.290331815
C -0.905309772 -1.272213365 1.495891100
C -2.315904870 0.452768931 -0.341713430
C -0.048445699 0.936705700 -1.620089230
O 0.410213980 3.073158455 -2.672246255
H 3.947857177 1.271409059 1.055691229
H 1.622899404 -2.765017162 -1.433084502
H -1.633183180 -3.187055272 1.716429055
H -0.533249230 -0.448187479 3.347136089
H -1.490938449 3.083039361 -1.043427624
H -4.253757009 0.436244070 -0.983233101

