13

C 2.622998575 -1.015371522 -0.296313081
C 2.382465295 1.711892900 0.341778418
C -1.665518113 1.688586964 -0.075751221
C -2.349076934 -0.873312116 -0.996045406
C -0.040113557 -0.916016998 0.609366169
H 2.876822752 -1.464103544 -2.288723484
H 3.772356328 -2.218972899 0.911900645
H 2.595751162 1.898010174 2.402888094
H -1.208836127 3.094141653 -1.464987520
H -2.645810271 2.401728275 1.568984629
H -3.986721738 -1.786603581 -0.178776255
H -2.096612037 -1.226813375 -2.996240366
H -0.326111530 -1.445451380 2.560215391

