11

C 1.755096858 -0.925365756 -0.288254685
N 1.051709670 1.298717624 1.112875399
C -1.576718957 1.832517293 0.328822928
C -2.692994711 -0.543968361 -0.795859499
N -0.726628079 -2.003290690 -1.044923135
H -0.839494107 -3.717894232 -1.867392245
H 2.855571005 -2.254686342 0.839942066
H 2.822327642 -0.456583740 -1.998408129
H 1.068950227 0.896489721 2.978956231
H -2.696194754 2.551347738 1.900942991
H -1.634992101 3.278948818 -1.156508741

