11

O 1.025156032 3.401815635 -0.927624716
C 0.011152691 1.041073139 1.044370503
C -2.196733639 -0.475031057 -0.062330783
N -0.463911247 -2.632367534 -0.060742922
C 1.636960931 -1.197313730 0.422104780
O 3.877057964 -1.574479046 0.266254531
H 2.775798239 2.937880237 -1.220822697
H 0.814386525 3.638209130 1.050588061
H -3.832858328 -0.656253506 1.178589227
H -2.782801488 0.115345028 -1.950856214
H -0.718277360 -4.507103728 -0.261776371

