14

C -1.512565552 -2.120599389 -0.300920045
C -2.541649304 0.553407524 -0.334301509
O -0.687213305 2.265229067 -1.205001022
C 1.512658054 2.120642456 0.301161835
C 2.541730317 -0.553356293 0.334109683
O 0.687343677 -2.265063546 1.205161290
H -2.886071714 -3.428855613 0.507100957
H -1.080435605 -2.721224687 -2.242781729
H -4.152099400 0.706079612 -1.612627438
H -3.154406909 1.088053677 1.577943858
H 1.080351985 2.720824235 2.243125886
H 2.886057786 3.429140036 -0.506614163
H 4.152464665 -0.706323387 1.612004773
H 3.153835323 -1.087953710 -1.578362376

