14

C -1.739411337 -1.972781553 0.758358262
C -2.537158011 0.610823262 -0.098145062
O -0.690910649 2.173505446 -1.247297685
C 1.538193016 2.130937721 0.201185648
C 2.513977119 -0.540454831 0.402282894
O 0.653675428 -2.211703822 1.464388609
H -2.246953885 -3.689256963 -1.118664935
H -1.511828067 -3.078642516 -2.414589127
H -4.121345657 0.457415314 -1.400341218
H -3.227500041 1.525825458 1.640928638
H 1.187267832 2.905892409 2.097585964
H 2.925082407 3.328393880 -0.743081074
H 4.170988857 -0.667769233 1.618258595
H 2.979315979 -1.275436463 -1.477967463

