9

C -2.936099737 0.580175986 -2.957863921
C -1.610045694 2.451759039 -1.958997003
C -1.610176822 3.166250408 0.774918499
H -2.229539549 5.121047022 1.025152329
H 0.291263450 3.035977016 1.571874096
H -2.856077527 1.946317356 1.874540474
H -0.414094079 3.584086788 -3.188894996
H -4.154777671 -0.601352786 -1.806527436
H -2.853093423 0.157906063 -4.959158096

