18

C -0.321495591 -3.823934909 1.102254496
C -2.179697058 -0.410461761 -0.704151752
C -0.757629111 1.645238952 -1.561907888
C -1.111988910 4.181445600 -0.338465539
O 2.594752555 1.281228681 -0.939353188
C 3.352479648 -0.530644866 0.526285948
H 0.088494703 -4.919067727 -0.583584655
H 0.841696091 -4.482996907 2.675311107
H -2.285988521 -3.998440875 1.641458706
H -3.341253258 -0.148015104 0.959334226
H -2.846639158 -1.782821729 -2.060987600
H -0.431871243 1.703148664 -3.582691282
H -2.879963325 5.035608724 -0.981984181
H 0.439544401 5.447883356 -0.812873610
H -1.202740664 3.994291130 1.714437529
H 3.833939176 -0.020956250 2.485068996
H 1.416907445 -1.869392256 0.904153524
H 4.630485968 -1.929121944 -0.322817492

