15

O 1.092562582 -4.671173208 1.909397304
C 0.858735412 -2.598121105 0.939593391
C -1.692939495 -1.882873675 -0.246194937
C -2.072492366 0.934072934 -0.320179226
C 0.076483093 2.384916308 -1.359144773
C 2.457528732 1.447505513 -0.703839456
C 2.841824835 -0.760196191 0.622326705
H -1.654506264 -2.503788226 -2.223150706
H -3.211784757 -2.873548064 0.725258273
H -3.941529694 1.648033933 -0.772546798
H -2.228063238 1.157208620 2.301914132
H -0.239429150 4.197606991 -2.234097266
H -1.105810129 2.277005406 1.374525537
H 4.091821256 2.584620505 -1.199761152
H 4.717339879 -1.311778674 1.219330116

