18

C -6.053096286 0.477141050 -0.057532580
C -3.483390577 -0.780186696 -0.428680970
C -1.531220966 0.160098334 1.419483898
C 4.970328192 -1.496081490 -0.231848212
C 4.849566113 1.360790384 -0.447354544
C 0.551721265 1.308727050 0.745503986
N 2.401736930 2.507521436 0.102642459
H -7.443314298 -0.261816906 -1.391504292
H -5.915110525 2.516996618 -0.330529313
H -6.768805924 0.147043993 1.850575365
H -3.687281859 -2.829079823 -0.225668014
H -2.813362933 -0.449713886 -2.353236977
H -1.862679117 -0.087414970 3.427369381
H 4.500112176 -2.121931268 1.676615001
H 3.651753761 -2.400686734 -1.535786771
H 6.208842014 2.249076444 0.828044029
H 6.872277651 -2.156406978 -0.678154071
H 5.366032005 1.973396319 -2.350069777

