18

C -5.373857417 0.250839354 -0.131611639
C -2.715809166 -0.797423247 -0.550865275
C -0.767408425 0.216434434 1.269517746
C 3.333664534 -1.453925706 0.127709487
C 4.729633870 0.783129907 -0.476555499
C 0.483217559 2.414664679 0.783421586
N 2.041172990 3.895741478 0.207435426
H -6.725862597 -0.568329387 -1.460256931
H -5.390650128 2.299528882 -0.372424220
H -6.031581376 -0.159940070 1.781587870
H -2.770358889 -2.860481439 -0.384564388
H -2.118400825 -0.383890209 -2.487495290
H -1.034594553 -0.240342323 3.254198262
H 3.432249202 -2.264207557 1.996823102
H 2.336383265 -2.477727863 -1.328688510
H 5.980149721 1.609605464 0.905166530
H 5.649112733 -1.624910034 -0.628469184
H 4.873081979 1.401157863 -2.413878288

