11

C 0.095092285 1.763617841 0.503048439
C 2.035590947 -0.225742185 1.067137640
C 0.233148343 0.899686589 -2.120614299
N -1.064267600 -1.521537329 -1.529001048
C -2.179758342 -0.039266770 0.507211600
C 0.462676576 -2.317130244 0.561146406
H 0.193858178 3.696539552 1.164528323
H 3.794951518 -0.065800415 2.084779441
H 0.010738539 1.859335511 -3.923772088
H -4.212021368 0.261518480 0.687979872
H 0.627216787 -4.306235932 0.994492448

