15

C -3.750869593 0.674012075 0.637226629
C -1.762877673 0.423454762 -1.323835202
C 2.395458296 1.390087526 -0.768675827
C 0.012335962 2.519132443 -1.940800792
N -0.763327580 4.343817841 -3.123745441
N 1.594280012 -0.687645447 0.100606978
C 3.028946782 -2.593016426 1.405955462
H -3.115365658 1.828786577 2.220177184
H -5.405017395 1.578375793 -0.205345105
H -4.349192903 -1.185010460 1.300720507
H -2.160725247 -0.906614287 -2.845627625
H 4.335083962 2.066084966 -0.649260499
H 2.926036984 -4.364599575 0.356117206
H 2.198419690 -2.916893355 3.265312686
H 5.011180272 -2.055090370 1.633166305

