13

C -2.548856531 -1.694536634 0.240573757
N -0.483735230 -0.503743594 0.043748464
C 2.019193019 -1.700288791 0.627852283
C 3.570445365 0.284207099 0.134155569
H 5.602339422 0.202605323 0.328244634
C 2.230324579 2.559392604 -0.690731219
H 3.073844539 4.355478642 -1.186737613
C -0.255238883 2.093790978 -0.751880659
N -2.450656894 3.448815354 -1.362093312
H -2.769622954 4.938779271 -0.216703209
H -2.521115710 4.006472116 -3.183793208
H -4.301165740 -0.728962476 -0.210401200
H -2.447549296 -3.642862939 0.858064219

