15

C -2.325300929 -2.358737970 0.101546210
N -0.312447280 -0.899594087 0.156633956
C 2.099124031 -1.887334997 0.535443126
C 3.720119403 -0.067692409 -0.234074139
C 2.295821504 2.211480797 -0.856335459
C -0.175083730 1.727296870 -0.457119855
N -2.399526007 3.074813534 -0.883269537
H -4.157174014 -1.443411648 0.090717814
H -2.161550359 -4.281299616 -0.541564629
H -0.693286904 -4.434022973 2.803784308
H 0.843870656 -4.027731384 2.273336484
H 5.750802656 -0.141311981 -0.053679220
H 3.065606921 4.047275347 -1.314475918
H -3.180456216 3.790539783 0.704529924
H -2.198923170 4.440851914 -2.193063734

