11

N 3.677702478 -0.399359828 -0.327550443
C 1.116002518 -0.162969244 -0.000990519
C -0.396573446 1.963847381 -0.444628331
N -2.812670008 1.372321247 0.079268493
C -2.671944711 -1.231109988 0.688431914
N -0.309832995 -2.133091518 0.684558334
H 4.440252946 -1.917878508 0.523759705
H 4.703775954 1.188791499 -0.166824758
H 0.120078055 3.792955967 -1.181583517
H -3.612992530 -0.362448998 -1.409103935
H -4.259601611 -2.161107426 1.577324652

