11

O -1.511701588 1.995913143 -3.657976837
C -1.615219783 1.637761835 -1.219596152
C -0.554462728 -0.931413296 -0.682338700
C 0.549498304 -1.112236105 1.982401544
C 2.899078321 0.321689628 2.219819591
N 4.750923525 1.439284543 2.359153086
H -2.249354990 3.617778998 -4.035762417
H -0.801728327 -0.367716081 3.351510200
H -2.218682656 -2.169210930 -0.780545896
H 0.782865156 -1.579213263 -2.122909579
H 0.947950138 -3.073173327 2.481474982

