13

C -0.464977015 2.248515498 -2.642097678
C 0.063757999 0.449855389 -0.522727291
C -1.932036677 -2.168165345 2.682006426
N -1.865318233 -0.557028050 0.777934200
C 2.521051649 -0.260186223 0.164079023
C 4.609169045 -0.912430921 0.803080445
H 0.242038144 1.537697360 -4.449128480
H 0.406325359 4.094311216 -2.322362102
H -2.497160484 2.557187747 -2.856201588
H -3.752461801 -2.700084075 3.415550713
H -0.182385802 -2.893374768 3.428303832
H -3.578332572 0.040210537 0.174021666
H 6.460630257 -1.472513317 1.349965333

