11

O 3.177579146 1.209959701 4.234479781
C 1.459267697 1.514940900 2.919788207
C 0.687085276 -1.741495913 -1.666943250
C -0.577214426 0.692194680 -1.146637171
N -2.064795153 -1.588298443 -1.614525309
C -0.490023011 1.831944649 1.423890834
H 1.644278820 -2.677494119 -0.113147163
H 1.509327374 -2.084499308 -3.509507348
H -0.706238992 2.049122955 -2.678313504
H -2.727715027 -2.274255193 0.046109374
H -2.004034921 3.026294778 2.105958301

