15

C 4.470562320 -1.590809738 0.745248363
C 2.153720373 -0.613745912 0.494765203
C -0.140095791 -1.881039318 -0.366933677
C -2.006423799 -0.189117838 -0.590762685
N -4.441498427 -0.489322413 -1.450173371
C -1.061901700 2.398691977 0.100710478
N 1.454544610 1.881040244 1.047307421
H 6.041631488 -0.472602400 1.425922535
H 4.814308888 -3.549562701 0.283573852
H -1.067538224 3.626069964 -1.573262893
H -0.247378869 -3.881631687 -0.758561993
H -5.723483093 0.749038964 -0.792054365
H -5.093607197 -2.272828507 -1.517162027
H -2.262586285 3.292550537 1.535998420
H 2.777206803 3.214739080 0.772889198

