16

C 4.096418488 0.116635295 2.535123173
C 2.070283635 -0.197085282 0.545606602
C -2.321019622 0.199113336 -2.851759938
C -3.572566469 -1.215229807 -0.704311944
C -2.184340021 1.193458934 -0.210499447
O 0.010209850 1.342142434 1.232774856
H 4.672177616 2.091202223 2.669031925
H 5.750427640 -1.019392765 2.057978136
H 3.398066759 -0.481499817 4.379583743
H 2.795846400 0.367578395 -1.313418692
H -3.486005637 1.202181475 -4.199818859
H -0.657826117 -0.666221679 -3.664957485
H -2.694921362 -2.970202661 -0.127123407
H -5.611528537 -1.203539357 -0.552370215
H 1.500222560 -2.189356904 0.421321129
H -3.339652112 2.831002902 0.201734122

