15

C -1.517615561 -1.410067676 -2.046138283
C -0.953680694 0.910393022 -0.449232837
C -2.701075784 1.089794341 1.855784036
C 1.742245888 1.061331608 0.408488679
C 3.513312973 -0.644495252 -0.037509873
C 5.822786765 -1.369655070 0.234435285
O 7.817227508 -2.288100687 0.303252420
H -3.476163716 -1.381672065 -2.692659492
H -0.287887851 -1.502907842 -3.697214165
H -1.223292664 -3.136134353 -0.953887355
H -1.272955403 2.612840106 -1.594756393
H -2.462627213 -0.559600156 3.073901647
H -2.313252356 2.776261297 2.979699083
H -4.672870957 1.162917294 1.257611243
H 2.198333670 2.744198371 1.514765231

