23

C     3.91461   0.07278   0.04311
N     2.54944  -0.45408  -0.05384
C     1.48625   0.37621  -0.16811
O     1.63744   1.61134  -0.18686
C     0.05774  -0.15714  -0.24669
N    -0.09642  -1.47787  -0.52913
O    -1.33851  -1.84195  -0.67584
C    -2.44934   0.08430  -0.35825
C    -3.48429  -0.40156   0.60297
C    -1.27471   0.85321   0.01171
C    -1.22135   1.41529   1.44760
H     4.22666   0.64346  -0.85832
H     4.04429   0.76290   0.91032
H     4.64897  -0.75163   0.17707
H     2.45586  -1.45550  -0.05111
H    -2.75427   0.11981  -1.41413
H    -3.02036  -0.75520   1.53458
H    -4.24522   0.35907   0.90421
H    -4.05168  -1.24378   0.15662
H    -1.04309   1.65210  -0.75033
H    -1.32018   0.59312   2.16620
H    -2.00258   2.17663   1.73132
H    -0.25024   1.89435   1.58728
23

C     3.91957   0.07427   0.04395
N     2.55646  -0.45365  -0.05300
C     1.49317   0.37493  -0.16862
O     1.63692   1.60962  -0.18738
C     0.07748  -0.17375  -0.25104
N    -0.10907  -1.47114  -0.52889
O    -1.33141  -1.85914  -0.67850
C    -2.45857   0.09798  -0.35687
C    -3.48665  -0.40229   0.60373
C    -1.29647   0.87008   0.01348
C    -1.22348   1.41726   1.44883
H     4.22774   0.64391  -0.85816
H     4.04538   0.76340   0.91052
H     4.65063  -0.75098   0.17734
H     2.45818  -1.45547  -0.05096
H    -2.75484   0.12063  -1.41395
H    -3.01962  -0.75582   1.53396
H    -4.24790   0.35589   0.90634
H    -4.05035  -1.24498   0.15621
H    -1.04186   1.65103  -0.75001
H    -1.32046   0.59235   2.16509
H    -2.00082   2.17777   1.73609
H    -0.24982   1.89307   1.58606
23

C     3.92453   0.07576   0.04479
N     2.56348  -0.45323  -0.05216
C     1.50008   0.37365  -0.16914
O     1.63640   1.60791  -0.18790
C     0.09722  -0.19035  -0.25539
N    -0.12171  -1.46441  -0.52866
O    -1.32431  -1.87632  -0.68115
C    -2.46781   0.11167  -0.35549
C    -3.48902  -0.40302   0.60448
C    -1.31823   0.88695   0.01525
C    -1.22562   1.41923   1.45005
H     4.22883   0.64436  -0.85799
H     4.04647   0.76390   0.91073
H     4.65230  -0.75033   0.17761
H     2.46050  -1.45543  -0.05080
H    -2.75541   0.12145  -1.41377
H    -3.01887  -0.75645   1.53334
H    -4.25057   0.35271   0.90847
H    -4.04902  -1.24618   0.15581
H    -1.04063   1.64996  -0.74968
H    -1.32074   0.59159   2.16397
H    -1.99906   2.17892   1.74087
H    -0.24940   1.89179   1.58485
23

C     3.92950   0.07724   0.04563
N     2.57050  -0.45280  -0.05132
C     1.50700   0.37237  -0.16965
O     1.63588   1.60619  -0.18842
C     0.11696  -0.20696  -0.25974
N    -0.13435  -1.45767  -0.52843
O    -1.31721  -1.89351  -0.68381
C    -2.47704   0.12535  -0.35411
C    -3.49138  -0.40375   0.60524
C    -1.33999   0.90382   0.01702
C    -1.22776   1.42119   1.45128
H     4.22991   0.64481  -0.85783
H     4.04756   0.76440   0.91093
H     4.65396  -0.74968   0.17788
H     2.46282  -1.45540  -0.05065
H    -2.75598   0.12226  -1.41359
H    -3.01812  -0.75708   1.53272
H    -4.25325   0.34953   0.91059
H    -4.04768  -1.24738   0.15540
H    -1.03940   1.64889  -0.74936
H    -1.32102   0.59082   2.16285
H    -1.99730   2.18006   1.74564
H    -0.24899   1.89052   1.58364
23

C     3.93446   0.07873   0.04647
N     2.57752  -0.45238  -0.05048
C     1.51392   0.37109  -0.17017
O     1.63536   1.60448  -0.18894
C     0.13670  -0.22357  -0.26409
N    -0.14699  -1.45094  -0.52820
O    -1.31012  -1.91070  -0.68647
C    -2.48627   0.13904  -0.35272
C    -3.49374  -0.40448   0.60600
C    -1.36175   0.92069   0.01879
C    -1.22990   1.42316   1.45251
H     4.23100   0.64526  -0.85766
H     4.04865   0.76490   0.91114
H     4.65562  -0.74902   0.17815
H     2.46515  -1.45536  -0.05049
H    -2.75655   0.12308  -1.41341
H    -3.01738  -0.75771   1.53209
H    -4.25593   0.34635   0.91272
H    -4.04635  -1.24858   0.15500
H    -1.03816   1.64782  -0.74904
H    -1.32130   0.59006   2.16173
H    -1.99554   2.18121   1.75041
H    -0.24857   1.88924   1.58242
23

C     3.93942   0.08022   0.04731
N     2.58454  -0.45196  -0.04964
C     1.52084   0.36981  -0.17068
O     1.63484   1.60276  -0.18946
C     0.15644  -0.24017  -0.26845
N    -0.15964  -1.44420  -0.52797
O    -1.30302  -1.92789  -0.68912
C    -2.49551   0.15272  -0.35134
C    -3.49610  -0.40521   0.60675
C    -1.38351   0.93756   0.02056
C    -1.23203   1.42513   1.45373
H     4.23209   0.64571  -0.85750
H     4.04974   0.76540   0.91134
H     4.65728  -0.74837   0.17842
H     2.46747  -1.45533  -0.05033
H    -2.75712   0.12390  -1.41323
H    -3.01663  -0.75833   1.53147
H    -4.25861   0.34317   0.91485
H    -4.04502  -1.24977   0.15460
H    -1.03693   1.64675  -0.74872
H    -1.32159   0.58929   2.16062
H    -1.99377   2.18235   1.75519
H    -0.24815   1.88796   1.58121
23

C     3.94438   0.08171   0.04815
N     2.59157  -0.45153  -0.04880
C     1.52775   0.36853  -0.17119
O     1.63432   1.60105  -0.18998
C     0.17618  -0.25678  -0.27280
N    -0.17228  -1.43747  -0.52774
O    -1.29592  -1.94507  -0.69178
C    -2.50474   0.16640  -0.34996
C    -3.49847  -0.40594   0.60751
C    -1.40527   0.95443   0.02233
C    -1.23417   1.42710   1.45496
H     4.23317   0.64616  -0.85734
H     4.05083   0.76591   0.91154
H     4.65895  -0.74772   0.17870
H     2.46979  -1.45530  -0.05018
H    -2.75769   0.12472  -1.41305
H    -3.01589  -0.75896   1.53085
H    -4.26129   0.33999   0.91697
H    -4.04369  -1.25097   0.15419
H    -1.03570   1.64568  -0.74839
H    -1.32187   0.58853   2.15950
H    -1.99201   2.18350   1.75996
H    -0.24774   1.88669   1.58000
23

C     3.94934   0.08320   0.04899
N     2.59859  -0.45111  -0.04796
C     1.53467   0.36724  -0.17171
O     1.63380   1.59934  -0.19050
C     0.19592  -0.27339  -0.27715
N    -0.18492  -1.43074  -0.52750
O    -1.28882  -1.96226  -0.69444
C    -2.51397   0.18009  -0.34858
C    -3.50083  -0.40667   0.60826
C    -1.42703   0.97130   0.02409
C    -1.23631   1.42907   1.45619
H     4.23426   0.64662  -0.85717
H     4.05192   0.76641   0.91175
H     4.66061  -0.74707   0.17897
H     2.47211  -1.45526  -0.05002
H    -2.75826   0.12554  -1.41286
H    -3.01514  -0.75959   1.53023
H    -4.26397   0.33681   0.91910
H    -4.04235  -1.25217   0.15379
H    -1.03447   1.64461  -0.74807
H    -1.32215   0.58776   2.15838
H    -1.99025   2.18465   1.76473
H    -0.24732   1.88541   1.57879
23

C     3.95431   0.08469   0.04983
N     2.60561  -0.45069  -0.04712
C     1.54159   0.36596  -0.17222
O     1.63328   1.59762  -0.19102
C     0.21566  -0.28999  -0.28150
N    -0.19756  -1.42400  -0.52727
O    -1.28172  -1.97945  -0.69710
C    -2.52321   0.19377  -0.34719
C    -3.50319  -0.40740   0.60902
C    -1.44880   0.98817   0.02586
C    -1.23845   1.43104   1.45741
H     4.23535   0.64707  -0.85701
H     4.05301   0.76691   0.91195
H     4.66227  -0.74642   0.17924
H     2.47443  -1.45523  -0.04987
H    -2.75883   0.12636  -1.41268
H    -3.01439  -0.76022   1.52961
H    -4.26665   0.33363   0.92123
H    -4.04102  -1.25337   0.15338
H    -1.03323   1.64354  -0.74775
H    -1.32243   0.58700   2.15726
H    -1.98849   2.18579   1.76951
H    -0.24691   1.88414   1.57757
23

C     3.95927   0.08618   0.05066
N     2.61263  -0.45026  -0.04628
C     1.54850   0.36468  -0.17274
O     1.63276   1.59591  -0.19153
C     0.23540  -0.30660  -0.28585
N    -0.21021  -1.41727  -0.52704
O    -1.27462  -1.99664  -0.69975
C    -2.53244   0.20745  -0.34581
C    -3.50555  -0.40812   0.60977
C    -1.47056   1.00504   0.02763
C    -1.24058   1.43301   1.45864
H     4.23643   0.64752  -0.85685
H     4.05410   0.76741   0.91216
H     4.66393  -0.74577   0.17951
H     2.47675  -1.45519  -0.04971
H    -2.75941   0.12718  -1.41250
H    -3.01365  -0.76085   1.52899
H    -4.26932   0.33045   0.92335
H    -4.03969  -1.25457   0.15298
H    -1.03200   1.64247  -0.74743
H    -1.32271   0.58623   2.15615
H    -1.98673   2.18694   1.77428
H    -0.24649   1.88286   1.57636
23

C     3.96423   0.08766   0.05150
N     2.61965  -0.44984  -0.04544
C     1.55542   0.36340  -0.17325
O     1.63224   1.59419  -0.19205
C     0.25514  -0.32321  -0.29020
N    -0.22285  -1.41054  -0.52681
O    -1.26752  -2.01382  -0.70241
C    -2.54167   0.22114  -0.34443
C    -3.50792  -0.40885   0.61053
C    -1.49232   1.02191   0.02940
C    -1.24272   1.43498   1.45987
H     4.23752   0.64797  -0.85668
H     4.05519   0.76791   0.91236
H     4.66560  -0.74512   0.17978
H     2.47908  -1.45516  -0.04956
H    -2.75998   0.12800  -1.41232
H    -3.01290  -0.76147   1.52837
H    -4.27200   0.32727   0.92548
H    -4.03836  -1.25577   0.15257
H    -1.03077   1.64140  -0.74710
H    -1.32299   0.58547   2.15503
H    -1.98497   2.18808   1.77905
H    -0.24607   1.88158   1.57515
23

C     3.96919   0.08915   0.05234
N     2.62667  -0.44942  -0.04460
C     1.56234   0.36212  -0.17377
O     1.63172   1.59248  -0.19257
C     0.27488  -0.33981  -0.29456
N    -0.23549  -1.40380  -0.52658
O    -1.26042  -2.03101  -0.70507
C    -2.55091   0.23482  -0.34305
C    -3.51028  -0.40958   0.61129
C    -1.51408   1.03878   0.03117
C    -1.24486   1.43695   1.46109
H     4.23861   0.64842  -0.85652
H     4.05629   0.76841   0.91257
H     4.66726  -0.74446   0.18005
H     2.48140  -1.45512  -0.04940
H    -2.76055   0.12881  -1.41214
H    -3.01215  -0.76210   1.52775
H    -4.27468   0.32409   0.92761
H    -4.03702  -1.25696   0.15217
H    -1.02953   1.64034  -0.74678
H    -1.32327   0.58470   2.15391
H    -1.98321   2.18923   1.78383
H    -0.24566   1.88031   1.57393
23

C     3.97416   0.09064   0.05318
N     2.63369  -0.44899  -0.04376
C     1.56925   0.36084  -0.17428
O     1.63120   1.59077  -0.19309
C     0.29462  -0.35642  -0.29891
N    -0.24814  -1.39707  -0.52635
O    -1.25332  -2.04820  -0.70772
C    -2.56014   0.24851  -0.34166
C    -3.51264  -0.41031   0.61204
C    -1.53584   1.05565   0.03294
C    -1.24700   1.43892   1.46232
H     4.23969   0.64887  -0.85636
H     4.05738   0.76892   0.91277
H     4.66892  -0.74381   0.18033
H     2.48372  -1.45509  -0.04924
H    -2.76112   0.12963  -1.41196
H    -3.01141  -0.76273   1.52713
H    -4.27736   0.32091   0.92974
H    -4.03569  -1.25816   0.15177
H    -1.02830   1.63927  -0.74646
H    -1.32355   0.58394   2.15279
H    -1.98145   2.19037   1.78860
H    -0.24524   1.87903   1.57272
23

C     3.97912   0.09213   0.05402
N     2.64071  -0.44857  -0.04292
C     1.57617   0.35956  -0.17480
O     1.63068   1.58905  -0.19361
C     0.31436  -0.37303  -0.30326
N    -0.26078  -1.39033  -0.52611
O    -1.24622  -2.06538  -0.71038
C    -2.56937   0.26219  -0.34028
C    -3.51500  -0.41104   0.61280
C    -1.55760   1.07252   0.03471
C    -1.24913   1.44089   1.46355
H     4.24078   0.64932  -0.85619
H     4.05847   0.76942   0.91298
H     4.67058  -0.74316   0.18060
H     2.48604  -1.45506  -0.04909
H    -2.76169   0.13045  -1.41178
H    -3.01066  -0.76336   1.52651
H    -4.28004   0.31773   0.93186
H    -4.03436  -1.25936   0.15136
H    -1.02707   1.63820  -0.74614
H    -1.32383   0.58317   2.15168
H    -1.97969   2.19152   1.79337
H    -0.24482   1.87776   1.57151
23

C     3.98408   0.09362   0.05486
N     2.64774  -0.44814  -0.04208
C     1.58309   0.35827  -0.17531
O     1.63016   1.58734  -0.19413
C     0.33410  -0.38963  -0.30761
N    -0.27342  -1.38360  -0.52588
O    -1.23913  -2.08257  -0.71304
C    -2.57861   0.27587  -0.33890
C    -3.51737  -0.41177   0.61355
C    -1.57936   1.08939   0.03647
C    -1.25127   1.44285   1.46477
H     4.24186   0.64977  -0.85603
H     4.05956   0.76992   0.91318
H     4.67225  -0.74251   0.18087
H     2.48836  -1.45502  -0.04893
H    -2.76226   0.13127  -1.41160
H    -3.00992  -0.76398   1.52589
H    -4.28272   0.31455   0.93399
H    -4.03303  -1.26056   0.15096
H    -1.02584   1.63713  -0.74581
H    -1.32411   0.58241   2.15056
H    -1.97793   2.19266   1.79815
H    -0.24441   1.87648   1.57029
23

C     3.98904   0.09511   0.05570
N     2.65476  -0.44772  -0.04124
C     1.59001   0.35699  -0.17583
O     1.62964   1.58562  -0.19465
C     0.35384  -0.40624  -0.31196
N    -0.28606  -1.37687  -0.52565
O    -1.23203  -2.09976  -0.71570
C    -2.58784   0.28956  -0.33752
C    -3.51973  -0.41250   0.61431
C    -1.60112   1.10626   0.03824
C    -1.25341   1.44482   1.46600
H     4.24295   0.65023  -0.85586
H     4.06065   0.77042   0.91338
H     4.67391  -0.74186   0.18114
H     2.49069  -1.45499  -0.04878
H    -2.76283   0.13209  -1.41142
H    -3.00917  -0.76461   1.52527
H    -4.28539   0.31137   0.93612
H    -4.03170  -1.26176   0.15055
H    -1.02460   1.63606  -0.74549
H    -1.32439   0.58164   2.14944
H    -1.97617   2.19381   1.80292
H    -0.24399   1.87520   1.56908
23

C     3.99401   0.09660   0.05654
N     2.66178  -0.44730  -0.04040
C     1.59692   0.35571  -0.17634
O     1.62912   1.58391  -0.19517
C     0.37358  -0.42285  -0.31631
N    -0.29871  -1.37013  -0.52542
O    -1.22493  -2.11695  -0.71835
C    -2.59707   0.30324  -0.33613
C    -3.52209  -0.41323   0.61506
C    -1.62288   1.12313   0.04001
C    -1.25555   1.44679   1.46723
H     4.24404   0.65068  -0.85570
H     4.06174   0.77092   0.91359
H     4.67557  -0.74121   0.18141
H     2.49301  -1.45495  -0.04862
H    -2.76340   0.13291  -1.41124
H    -3.00842  -0.76524   1.52465
H    -4.28807   0.30819   0.93824
H    -4.03036  -1.26295   0.15015
H    -1.02337   1.63499  -0.74517
H    -1.32467   0.58088   2.14832
H    -1.97441   2.19495   1.80769
H    -0.24357   1.87393   1.56787
23

C     3.99897   0.09809   0.05738
N     2.66880  -0.44687  -0.03957
C     1.60384   0.35443  -0.17686
O     1.62860   1.58219  -0.19569
C     0.39332  -0.43945  -0.32067
N    -0.31135  -1.36340  -0.52519
O    -1.21783  -2.13413  -0.72101
C    -2.60631   0.31692  -0.33475
C    -3.52445  -0.41396   0.61582
C    -1.64464   1.14000   0.04178
C    -1.25768   1.44876   1.46845
H     4.24512   0.65113  -0.85554
H     4.06283   0.77142   0.91379
H     4.67723  -0.74055   0.18168
H     2.49533  -1.45492  -0.04847
H    -2.76397   0.13373  -1.41105
H    -3.00768  -0.76587   1.52403
H    -4.29075   0.30501   0.94037
H    -4.02903  -1.26415   0.14974
H    -1.02214   1.63392  -0.74485
H    -1.32495   0.58011   2.14721
H    -1.97264   2.19610   1.81247
H    -0.24316   1.87265   1.56665
23

C     4.00393   0.09957   0.05821
N     2.67582  -0.44645  -0.03873
C     1.61076   0.35315  -0.17737
O     1.62808   1.58048  -0.19621
C     0.41306  -0.45606  -0.32502
N    -0.32399  -1.35666  -0.52496
O    -1.21073  -2.15132  -0.72367
C    -2.61554   0.33061  -0.33337
C    -3.52682  -0.41469   0.61658
C    -1.66641   1.15686   0.04355
C    -1.25982   1.45073   1.46968
H     4.24621   0.65158  -0.85537
H     4.06392   0.77193   0.91400
H     4.67890  -0.73990   0.18195
H     2.49765  -1.45489  -0.04831
H    -2.76454   0.13455  -1.41087
H    -3.00693  -0.76649   1.52341
H    -4.29343   0.30183   0.94250
H    -4.02770  -1.26535   0.14934
H    -1.02091   1.63285  -0.74452
H    -1.32523   0.57935   2.14609
H    -1.97088   2.19725   1.81724
H    -0.24274   1.87137   1.56544
23

C     4.00889   0.10106   0.05905
N     2.68284  -0.44603  -0.03789
C     1.61767   0.35187  -0.17789
O     1.62756   1.57877  -0.19673
C     0.43280  -0.47267  -0.32937
N    -0.33664  -1.34993  -0.52472
O    -1.20363  -2.16851  -0.72632
C    -2.62477   0.34429  -0.33199
C    -3.52918  -0.41542   0.61733
C    -1.68817   1.17373   0.04532
C    -1.26196   1.45270   1.47091
H     4.24730   0.65203  -0.85521
H     4.06501   0.77243   0.91420
H     4.68056  -0.73925   0.18223
H     2.49997  -1.45485  -0.04815
H    -2.76511   0.13536  -1.41069
H    -3.00618  -0.76712   1.52279
H    -4.29611   0.29865   0.94462
H    -4.02637  -1.26655   0.14894
H    -1.01967   1.63178  -0.74420
H    -1.32551   0.57858   2.14497
H    -1.96912   2.19839   1.82201
H    -0.24232   1.87010   1.56423
23

C     4.01385   0.10255   0.05989
N     2.68986  -0.44560  -0.03705
C     1.62459   0.35059  -0.17840
O     1.62704   1.57705  -0.19724
C     0.45254  -0.48927  -0.33372
N    -0.34928  -1.34320  -0.52449
O    -1.19653  -2.18570  -0.72898
C    -2.63401   0.35797  -0.33061
C    -3.53154  -0.41615   0.61809
C    -1.70993   1.19060   0.04709
C    -1.26410   1.45467   1.47213
H     4.24838   0.65248  -0.85505
H     4.06610   0.77293   0.91441
H     4.68222  -0.73860   0.18250
H     2.50230  -1.45482  -0.04800
H    -2.76568   0.13618  -1.41051
H    -3.00544  -0.76775   1.52217
H    -4.29879   0.29547   0.94675
H    -4.02503  -1.26775   0.14853
H    -1.01844   1.63071  -0.74388
H    -1.32579   0.57782   2.14386
H    -1.96736   2.19954   1.82679
H    -0.24191   1.86882   1.56302
23

C     4.00889   0.10106   0.05905
N     2.68284  -0.44603  -0.03789
C     1.61767   0.35187  -0.17789
O     1.62756   1.57877  -0.19673
C     0.43280  -0.47267  -0.32937
N    -0.33664  -1.34993  -0.52472
O    -1.20363  -2.16851  -0.72632
C    -2.62477   0.34429  -0.33199
C    -3.52918  -0.41542   0.61733
C    -1.68817   1.17373   0.04532
C    -1.26196   1.45270   1.47091
H     4.24730   0.65203  -0.85521
H     4.06501   0.77243   0.91420
H     4.68056  -0.73925   0.18223
H     2.49997  -1.45485  -0.04815
H    -2.76511   0.13536  -1.41069
H    -3.00618  -0.76712   1.52279
H    -4.29611   0.29865   0.94462
H    -4.02637  -1.26655   0.14894
H    -1.01967   1.63178  -0.74420
H    -1.32551   0.57858   2.14497
H    -1.96912   2.19839   1.82201
H    -0.24232   1.87010   1.56423
23

C     4.00393   0.09957   0.05821
N     2.67582  -0.44645  -0.03873
C     1.61076   0.35315  -0.17737
O     1.62808   1.58048  -0.19621
C     0.41306  -0.45606  -0.32502
N    -0.32399  -1.35666  -0.52496
O    -1.21073  -2.15132  -0.72367
C    -2.61554   0.33061  -0.33337
C    -3.52682  -0.41469   0.61658
C    -1.66641   1.15686   0.04355
C    -1.25982   1.45073   1.46968
H     4.24621   0.65158  -0.85537
H     4.06392   0.77193   0.91400
H     4.67890  -0.73990   0.18195
H     2.49765  -1.45489  -0.04831
H    -2.76454   0.13455  -1.41087
H    -3.00693  -0.76649   1.52341
H    -4.29343   0.30183   0.94250
H    -4.02770  -1.26535   0.14934
H    -1.02091   1.63285  -0.74452
H    -1.32523   0.57935   2.14609
H    -1.97088   2.19725   1.81724
H    -0.24274   1.87137   1.56544
23

C     3.99897   0.09809   0.05738
N     2.66880  -0.44687  -0.03957
C     1.60384   0.35443  -0.17686
O     1.62860   1.58219  -0.19569
C     0.39332  -0.43945  -0.32067
N    -0.31135  -1.36340  -0.52519
O    -1.21783  -2.13413  -0.72101
C    -2.60631   0.31692  -0.33475
C    -3.52445  -0.41396   0.61582
C    -1.64464   1.14000   0.04178
C    -1.25768   1.44876   1.46845
H     4.24512   0.65113  -0.85554
H     4.06283   0.77142   0.91379
H     4.67723  -0.74055   0.18168
H     2.49533  -1.45492  -0.04847
H    -2.76397   0.13373  -1.41105
H    -3.00768  -0.76587   1.52403
H    -4.29075   0.30501   0.94037
H    -4.02903  -1.26415   0.14974
H    -1.02214   1.63392  -0.74485
H    -1.32495   0.58011   2.14721
H    -1.97264   2.19610   1.81247
H    -0.24316   1.87265   1.56665
23

C     3.99401   0.09660   0.05654
N     2.66178  -0.44730  -0.04040
C     1.59692   0.35571  -0.17634
O     1.62912   1.58391  -0.19517
C     0.37358  -0.42285  -0.31631
N    -0.29871  -1.37013  -0.52542
O    -1.22493  -2.11695  -0.71835
C    -2.59707   0.30324  -0.33613
C    -3.52209  -0.41323   0.61506
C    -1.62288   1.12313   0.04001
C    -1.25555   1.44679   1.46723
H     4.24404   0.65068  -0.85570
H     4.06174   0.77092   0.91359
H     4.67557  -0.74121   0.18141
H     2.49301  -1.45495  -0.04862
H    -2.76340   0.13291  -1.41124
H    -3.00842  -0.76524   1.52465
H    -4.28807   0.30819   0.93824
H    -4.03036  -1.26295   0.15015
H    -1.02337   1.63499  -0.74517
H    -1.32467   0.58088   2.14832
H    -1.97441   2.19495   1.80769
H    -0.24357   1.87393   1.56787
23

C     3.98904   0.09511   0.05570
N     2.65476  -0.44772  -0.04124
C     1.59001   0.35699  -0.17583
O     1.62964   1.58562  -0.19465
C     0.35384  -0.40624  -0.31196
N    -0.28606  -1.37687  -0.52565
O    -1.23203  -2.09976  -0.71570
C    -2.58784   0.28956  -0.33752
C    -3.51973  -0.41250   0.61431
C    -1.60112   1.10626   0.03824
C    -1.25341   1.44482   1.46600
H     4.24295   0.65023  -0.85586
H     4.06065   0.77042   0.91338
H     4.67391  -0.74186   0.18114
H     2.49069  -1.45499  -0.04878
H    -2.76283   0.13209  -1.41142
H    -3.00917  -0.76461   1.52527
H    -4.28539   0.31137   0.93612
H    -4.03170  -1.26176   0.15055
H    -1.02460   1.63606  -0.74549
H    -1.32439   0.58164   2.14944
H    -1.97617   2.19381   1.80292
H    -0.24399   1.87520   1.56908
23

C     3.98408   0.09362   0.05486
N     2.64774  -0.44814  -0.04208
C     1.58309   0.35827  -0.17531
O     1.63016   1.58734  -0.19413
C     0.33410  -0.38963  -0.30761
N    -0.27342  -1.38360  -0.52588
O    -1.23913  -2.08257  -0.71304
C    -2.57861   0.27587  -0.33890
C    -3.51737  -0.41177   0.61355
C    -1.57936   1.08939   0.03647
C    -1.25127   1.44285   1.46477
H     4.24186   0.64977  -0.85603
H     4.05956   0.76992   0.91318
H     4.67225  -0.74251   0.18087
H     2.48836  -1.45502  -0.04893
H    -2.76226   0.13127  -1.41160
H    -3.00992  -0.76398   1.52589
H    -4.28272   0.31455   0.93399
H    -4.03303  -1.26056   0.15096
H    -1.02584   1.63713  -0.74581
H    -1.32411   0.58241   2.15056
H    -1.97793   2.19266   1.79815
H    -0.24441   1.87648   1.57029
23

C     3.97912   0.09213   0.05402
N     2.64071  -0.44857  -0.04292
C     1.57617   0.35956  -0.17480
O     1.63068   1.58905  -0.19361
C     0.31436  -0.37303  -0.30326
N    -0.26078  -1.39033  -0.52611
O    -1.24622  -2.06538  -0.71038
C    -2.56937   0.26219  -0.34028
C    -3.51500  -0.41104   0.61280
C    -1.55760   1.07252   0.03471
C    -1.24913   1.44089   1.46355
H     4.24078   0.64932  -0.85619
H     4.05847   0.76942   0.91298
H     4.67058  -0.74316   0.18060
H     2.48604  -1.45506  -0.04909
H    -2.76169   0.13045  -1.41178
H    -3.01066  -0.76336   1.52651
H    -4.28004   0.31773   0.93186
H    -4.03436  -1.25936   0.15136
H    -1.02707   1.63820  -0.74614
H    -1.32383   0.58317   2.15168
H    -1.97969   2.19152   1.79337
H    -0.24482   1.87776   1.57151
23

C     3.97416   0.09064   0.05318
N     2.63369  -0.44899  -0.04376
C     1.56925   0.36084  -0.17428
O     1.63120   1.59077  -0.19309
C     0.29462  -0.35642  -0.29891
N    -0.24814  -1.39707  -0.52635
O    -1.25332  -2.04820  -0.70772
C    -2.56014   0.24851  -0.34166
C    -3.51264  -0.41031   0.61204
C    -1.53584   1.05565   0.03294
C    -1.24700   1.43892   1.46232
H     4.23969   0.64887  -0.85636
H     4.05738   0.76892   0.91277
H     4.66892  -0.74381   0.18033
H     2.48372  -1.45509  -0.04924
H    -2.76112   0.12963  -1.41196
H    -3.01141  -0.76273   1.52713
H    -4.27736   0.32091   0.92974
H    -4.03569  -1.25816   0.15177
H    -1.02830   1.63927  -0.74646
H    -1.32355   0.58394   2.15279
H    -1.98145   2.19037   1.78860
H    -0.24524   1.87903   1.57272
23

C     3.96919   0.08915   0.05234
N     2.62667  -0.44942  -0.04460
C     1.56234   0.36212  -0.17377
O     1.63172   1.59248  -0.19257
C     0.27488  -0.33981  -0.29456
N    -0.23549  -1.40380  -0.52658
O    -1.26042  -2.03101  -0.70507
C    -2.55091   0.23482  -0.34305
C    -3.51028  -0.40958   0.61129
C    -1.51408   1.03878   0.03117
C    -1.24486   1.43695   1.46109
H     4.23861   0.64842  -0.85652
H     4.05629   0.76841   0.91257
H     4.66726  -0.74446   0.18005
H     2.48140  -1.45512  -0.04940
H    -2.76055   0.12881  -1.41214
H    -3.01215  -0.76210   1.52775
H    -4.27468   0.32409   0.92761
H    -4.03702  -1.25696   0.15217
H    -1.02953   1.64034  -0.74678
H    -1.32327   0.58470   2.15391
H    -1.98321   2.18923   1.78383
H    -0.24566   1.88031   1.57393
23

C     3.96423   0.08766   0.05150
N     2.61965  -0.44984  -0.04544
C     1.55542   0.36340  -0.17325
O     1.63224   1.59419  -0.19205
C     0.25514  -0.32321  -0.29020
N    -0.22285  -1.41054  -0.52681
O    -1.26752  -2.01382  -0.70241
C    -2.54167   0.22114  -0.34443
C    -3.50792  -0.40885   0.61053
C    -1.49232   1.02191   0.02940
C    -1.24272   1.43498   1.45987
H     4.23752   0.64797  -0.85668
H     4.05519   0.76791   0.91236
H     4.66560  -0.74512   0.17978
H     2.47908  -1.45516  -0.04956
H    -2.75998   0.12800  -1.41232
H    -3.01290  -0.76147   1.52837
H    -4.27200   0.32727   0.92548
H    -4.03836  -1.25577   0.15257
H    -1.03077   1.64140  -0.74710
H    -1.32299   0.58547   2.15503
H    -1.98497   2.18808   1.77905
H    -0.24607   1.88158   1.57515
23

C     3.95927   0.08618   0.05066
N     2.61263  -0.45026  -0.04628
C     1.54850   0.36468  -0.17274
O     1.63276   1.59591  -0.19153
C     0.23540  -0.30660  -0.28585
N    -0.21021  -1.41727  -0.52704
O    -1.27462  -1.99664  -0.69975
C    -2.53244   0.20745  -0.34581
C    -3.50555  -0.40812   0.60977
C    -1.47056   1.00504   0.02763
C    -1.24058   1.43301   1.45864
H     4.23643   0.64752  -0.85685
H     4.05410   0.76741   0.91216
H     4.66393  -0.74577   0.17951
H     2.47675  -1.45519  -0.04971
H    -2.75941   0.12718  -1.41250
H    -3.01365  -0.76085   1.52899
H    -4.26932   0.33045   0.92335
H    -4.03969  -1.25457   0.15298
H    -1.03200   1.64247  -0.74743
H    -1.32271   0.58623   2.15615
H    -1.98673   2.18694   1.77428
H    -0.24649   1.88286   1.57636
23

C     3.95431   0.08469   0.04983
N     2.60561  -0.45069  -0.04712
C     1.54159   0.36596  -0.17222
O     1.63328   1.59762  -0.19102
C     0.21566  -0.28999  -0.28150
N    -0.19756  -1.42400  -0.52727
O    -1.28172  -1.97945  -0.69710
C    -2.52321   0.19377  -0.34719
C    -3.50319  -0.40740   0.60902
C    -1.44880   0.98817   0.02586
C    -1.23845   1.43104   1.45741
H     4.23535   0.64707  -0.85701
H     4.05301   0.76691   0.91195
H     4.66227  -0.74642   0.17924
H     2.47443  -1.45523  -0.04987
H    -2.75883   0.12636  -1.41268
H    -3.01439  -0.76022   1.52961
H    -4.26665   0.33363   0.92123
H    -4.04102  -1.25337   0.15338
H    -1.03323   1.64354  -0.74775
H    -1.32243   0.58700   2.15726
H    -1.98849   2.18579   1.76951
H    -0.24691   1.88414   1.57757
23

C     3.94934   0.08320   0.04899
N     2.59859  -0.45111  -0.04796
C     1.53467   0.36724  -0.17171
O     1.63380   1.59934  -0.19050
C     0.19592  -0.27339  -0.27715
N    -0.18492  -1.43074  -0.52750
O    -1.28882  -1.96226  -0.69444
C    -2.51397   0.18009  -0.34858
C    -3.50083  -0.40667   0.60826
C    -1.42703   0.97130   0.02409
C    -1.23631   1.42907   1.45619
H     4.23426   0.64662  -0.85717
H     4.05192   0.76641   0.91175
H     4.66061  -0.74707   0.17897
H     2.47211  -1.45526  -0.05002
H    -2.75826   0.12554  -1.41286
H    -3.01514  -0.75959   1.53023
H    -4.26397   0.33681   0.91910
H    -4.04235  -1.25217   0.15379
H    -1.03447   1.64461  -0.74807
H    -1.32215   0.58776   2.15838
H    -1.99025   2.18465   1.76473
H    -0.24732   1.88541   1.57879
23

C     3.94438   0.08171   0.04815
N     2.59157  -0.45153  -0.04880
C     1.52775   0.36853  -0.17119
O     1.63432   1.60105  -0.18998
C     0.17618  -0.25678  -0.27280
N    -0.17228  -1.43747  -0.52774
O    -1.29592  -1.94507  -0.69178
C    -2.50474   0.16640  -0.34996
C    -3.49847  -0.40594   0.60751
C    -1.40527   0.95443   0.02233
C    -1.23417   1.42710   1.45496
H     4.23317   0.64616  -0.85734
H     4.05083   0.76591   0.91154
H     4.65895  -0.74772   0.17870
H     2.46979  -1.45530  -0.05018
H    -2.75769   0.12472  -1.41305
H    -3.01589  -0.75896   1.53085
H    -4.26129   0.33999   0.91697
H    -4.04369  -1.25097   0.15419
H    -1.03570   1.64568  -0.74839
H    -1.32187   0.58853   2.15950
H    -1.99201   2.18350   1.75996
H    -0.24774   1.88669   1.58000
23

C     3.93942   0.08022   0.04731
N     2.58454  -0.45196  -0.04964
C     1.52084   0.36981  -0.17068
O     1.63484   1.60276  -0.18946
C     0.15644  -0.24017  -0.26845
N    -0.15964  -1.44420  -0.52797
O    -1.30302  -1.92789  -0.68912
C    -2.49551   0.15272  -0.35134
C    -3.49610  -0.40521   0.60675
C    -1.38351   0.93756   0.02056
C    -1.23203   1.42513   1.45373
H     4.23209   0.64571  -0.85750
H     4.04974   0.76540   0.91134
H     4.65728  -0.74837   0.17842
H     2.46747  -1.45533  -0.05033
H    -2.75712   0.12390  -1.41323
H    -3.01663  -0.75833   1.53147
H    -4.25861   0.34317   0.91485
H    -4.04502  -1.24977   0.15460
H    -1.03693   1.64675  -0.74872
H    -1.32159   0.58929   2.16062
H    -1.99377   2.18235   1.75519
H    -0.24815   1.88796   1.58121
23

C     3.93446   0.07873   0.04647
N     2.57752  -0.45238  -0.05048
C     1.51392   0.37109  -0.17017
O     1.63536   1.60448  -0.18894
C     0.13670  -0.22357  -0.26409
N    -0.14699  -1.45094  -0.52820
O    -1.31012  -1.91070  -0.68647
C    -2.48627   0.13904  -0.35272
C    -3.49374  -0.40448   0.60600
C    -1.36175   0.92069   0.01879
C    -1.22990   1.42316   1.45251
H     4.23100   0.64526  -0.85766
H     4.04865   0.76490   0.91114
H     4.65562  -0.74902   0.17815
H     2.46515  -1.45536  -0.05049
H    -2.75655   0.12308  -1.41341
H    -3.01738  -0.75771   1.53209
H    -4.25593   0.34635   0.91272
H    -4.04635  -1.24858   0.15500
H    -1.03816   1.64782  -0.74904
H    -1.32130   0.59006   2.16173
H    -1.99554   2.18121   1.75041
H    -0.24857   1.88924   1.58242
23

C     3.92950   0.07724   0.04563
N     2.57050  -0.45280  -0.05132
C     1.50700   0.37237  -0.16965
O     1.63588   1.60619  -0.18842
C     0.11696  -0.20696  -0.25974
N    -0.13435  -1.45767  -0.52843
O    -1.31721  -1.89351  -0.68381
C    -2.47704   0.12535  -0.35411
C    -3.49138  -0.40375   0.60524
C    -1.33999   0.90382   0.01702
C    -1.22776   1.42119   1.45128
H     4.22991   0.64481  -0.85783
H     4.04756   0.76440   0.91093
H     4.65396  -0.74968   0.17788
H     2.46282  -1.45540  -0.05065
H    -2.75598   0.12226  -1.41359
H    -3.01812  -0.75708   1.53272
H    -4.25325   0.34953   0.91059
H    -4.04768  -1.24738   0.15540
H    -1.03940   1.64889  -0.74936
H    -1.32102   0.59082   2.16285
H    -1.99730   2.18006   1.74564
H    -0.24899   1.89052   1.58364
23

C     3.92453   0.07576   0.04479
N     2.56348  -0.45323  -0.05216
C     1.50008   0.37365  -0.16914
O     1.63640   1.60791  -0.18790
C     0.09722  -0.19035  -0.25539
N    -0.12171  -1.46441  -0.52866
O    -1.32431  -1.87632  -0.68115
C    -2.46781   0.11167  -0.35549
C    -3.48902  -0.40302   0.60448
C    -1.31823   0.88695   0.01525
C    -1.22562   1.41923   1.45005
H     4.22883   0.64436  -0.85799
H     4.04647   0.76390   0.91073
H     4.65230  -0.75033   0.17761
H     2.46050  -1.45543  -0.05080
H    -2.75541   0.12145  -1.41377
H    -3.01887  -0.75645   1.53334
H    -4.25057   0.35271   0.90847
H    -4.04902  -1.24618   0.15581
H    -1.04063   1.64996  -0.74968
H    -1.32074   0.59159   2.16397
H    -1.99906   2.17892   1.74087
H    -0.24940   1.89179   1.58485
23

C     3.91957   0.07427   0.04395
N     2.55646  -0.45365  -0.05300
C     1.49317   0.37493  -0.16862
O     1.63692   1.60962  -0.18738
C     0.07748  -0.17375  -0.25104
N    -0.10907  -1.47114  -0.52889
O    -1.33141  -1.85914  -0.67850
C    -2.45857   0.09798  -0.35687
C    -3.48665  -0.40229   0.60373
C    -1.29647   0.87008   0.01348
C    -1.22348   1.41726   1.44883
H     4.22774   0.64391  -0.85816
H     4.04538   0.76340   0.91052
H     4.65063  -0.75098   0.17734
H     2.45818  -1.45547  -0.05096
H    -2.75484   0.12063  -1.41395
H    -3.01962  -0.75582   1.53396
H    -4.24790   0.35589   0.90634
H    -4.05035  -1.24498   0.15621
H    -1.04186   1.65103  -0.75001
H    -1.32046   0.59235   2.16509
H    -2.00082   2.17777   1.73609
H    -0.24982   1.89307   1.58606
