13

C 2.169345951 -0.251603182 1.141284881
C 1.783593833 1.773749966 -0.800004368
C 0.696017747 -1.169425492 -1.072837375
C -2.028940736 -0.297533259 -0.926808317
N -3.269178820 -0.003963512 1.468534763
C -0.545225331 1.832442176 -2.113293745
H 4.110923515 -0.886761014 1.294152575
H 1.160874500 -0.213001312 2.923297259
H 3.441433101 2.631182298 -1.652851978
H 1.478220422 -2.403440802 -2.498178687
H -3.296382051 -1.193646622 -2.272664932
H -3.410457920 -1.625059984 2.465967304
H -2.536803253 1.381700392 2.548278860

