13

N 1.078743072 0.488629829 2.515461914
C 3.096994837 -0.306731595 1.310690437
C 1.836969374 -0.775346239 -1.273314111
C -0.660421580 -2.127382731 -0.470217906
C -1.116220838 0.468324287 0.773440072
C 0.170943813 1.642898451 -1.561498536
H 3.029149209 -1.474755137 -2.788353825
H -1.910775387 -2.506712520 -2.062220382
H -0.524604791 -3.758103068 0.780892245
H -2.896905381 1.098905259 1.585147287
H 1.023063010 1.027102072 4.336740420
H 1.069397034 3.480201286 -1.316171021
H -1.002086728 1.603465214 -3.254206633

