16

C 0.922346900 0.763261875 3.480550186
C -3.278725943 -0.298500817 -3.074503146
C -1.093235684 -0.318467172 -1.873011837
C 0.270037498 -2.254349234 -0.267531740
C 1.831148697 -0.050474585 0.886867651
C 0.869856695 1.677441416 -1.285082305
H 1.333154594 -0.676619727 4.901452475
H -1.120952902 1.077843033 3.471564841
H -3.962372447 1.386704803 -4.017668724
H -4.465172274 -1.967272831 -3.147578289
H 1.425804465 -3.531987435 -1.404827333
H -0.876967640 -3.374283649 1.031134540
H 3.869991938 -0.357807018 0.905258995
H 1.828763465 2.520788032 4.072896575
H 2.250554021 1.887457168 -2.805366235
H 0.179694624 3.547646896 -0.753636460

