13

O 1.719838574 2.502904552 -2.009550238
C 1.698739839 0.226678015 -1.285228211
C 1.895616552 -0.372150323 1.575718309
C -0.947947738 -0.712268277 1.937049893
C -2.596871354 1.186537547 1.434768400
N -0.371950277 -1.459380703 -1.780730520
H 2.875250575 -1.106219349 -2.607820257
H 2.724016436 1.187496697 2.627169748
H 2.896779715 -2.122300728 1.975709514
H -1.639438532 -2.494119518 2.676687376
H -1.934067017 3.072799691 0.988319129
H -4.611894786 0.831003643 1.435348923
H -1.583546613 -0.575834302 -3.028504529

