13

N 3.259383406 2.013726457 -0.182815752
C 0.967948807 0.541954536 -0.056249399
C -0.037727645 -1.818070507 0.287843575
O 1.292320145 -3.994323331 0.693704798
C -2.680483684 -1.439121346 0.127429467
C -3.084398471 1.127628378 -0.299410021
N -0.839491764 2.322523560 -0.407509291
H 4.414858353 1.646432541 -1.666081290
H 4.273264879 2.127178584 1.438761429
H 0.118083581 -5.366457061 0.818663731
H -4.118412160 -2.879424545 0.311199097
H -4.857283925 2.110583311 -0.520181679
H 1.439885154 3.597735599 -0.506144737

