11

C 3.915760859 -0.088501506 -1.066527863
C 1.101840835 -0.463959983 -0.589042354
C 0.491356893 -0.888743563 2.191936115
H 1.458243012 -2.563298177 2.918071278
H 1.091930733 0.720747572 3.338821955
H -1.532239642 -1.154091744 2.493386776
H 0.061130089 1.184011362 -1.279314918
H 0.424661825 -2.073909472 -1.695853188
H 4.312682978 0.210814483 -3.068743242
H 4.999668061 -1.734826087 -0.449117262
H 4.632512945 1.550040843 -0.033142754

