15

C 4.134621588 0.075648363 -0.620395424
C 1.314892243 0.342712680 -1.144791834
C -0.313242533 -0.405966027 1.094144793
C -3.578100853 0.888969537 0.421330502
O -3.572623255 3.068865942 -0.053236136
N -4.926364148 -1.148482753 0.662376994
H 5.253089783 0.666092403 -2.249202376
H 4.638797759 -1.879446581 -0.186404437
H 4.700824088 1.241096133 0.987074820
H 0.876153584 2.297949864 -1.638944917
H 0.794330295 -0.807065783 -2.782788468
H 0.156487824 -2.369448937 1.669639946
H 0.021423882 0.712755335 2.790663883
H -2.434089381 -1.709852997 0.896185002
H -6.812782931 -1.010223303 0.328432983

