13

O 3.039737231 3.547859094 1.982411314
C 3.597180492 1.701785510 0.789054198
C 1.741302915 -0.276343627 -0.056634960
C -0.962889198 0.288635521 0.726868282
C -4.323517402 -1.767756492 -1.883612180
N -2.685078289 -1.732080012 -0.049569368
H 5.587810622 1.351614497 0.233487039
H 2.387590780 -2.094317664 0.700585026
H 1.891305822 -0.456004577 -2.114350594
H -1.076076063 0.536430432 2.772284293
H -4.218984102 0.116814857 -2.798354747
H -1.620219394 2.036611437 -0.140277054
H -2.535161232 -3.326780148 0.999126246

