13

O 2.401670525 3.769821600 1.265603972
C 3.215955761 1.885046841 0.300895554
C 1.703727639 -0.487862751 -0.089432064
C -0.964530708 -0.336870780 0.885919972
C -3.681635792 -0.131518759 -1.292230591
N -2.638903700 -2.309825413 -0.112718894
H 5.198116516 1.802316295 -0.373962986
H 2.706545162 -2.053012465 0.822606437
H 1.704538331 -0.941313911 -2.108201198
H -1.140844253 -0.158171097 2.925859217
H -2.459829190 0.213976354 -2.955293591
H -1.958675314 1.577744379 0.355336787
H -3.817863786 -2.875060128 1.287417799

