14

C -2.608539222 -1.996250194 -0.553443296
C -0.781699838 0.120502298 -0.142088281
N -1.234552805 2.051972643 1.239110390
O -3.639503044 2.002431942 2.231989579
C 1.577974529 0.256698715 -1.584577780
C 3.851800471 1.095137485 -0.233631603
O 3.963257198 -1.626956570 -0.170790896
H -4.288451644 -1.314488900 -1.540191080
H -1.740571591 -3.489008978 -1.669539753
H -3.237798141 -2.760382590 1.254043270
H -3.735580027 3.549982598 3.172980479
H 3.032462372 -1.856680918 -2.065515101
H 5.384642160 1.964682716 -1.290207393
H 3.618722633 1.832386467 1.666402600

