15

C 5.174897980 -0.691361121 -3.420944653
C 3.386399136 -0.864233589 -1.745502529
C 1.605375425 -1.011153785 -0.056865091
C 0.013857437 1.190777148 0.790170894
C -2.719857394 0.836573422 0.070161563
C -4.522372790 -0.389646409 1.759431020
O -4.520301688 2.271360870 1.433498541
H 7.104919944 -0.282078096 -2.870216080
H 1.207693107 -2.844255665 0.781818551
H 4.786259853 -0.957893064 -5.414290546
H 0.727315637 2.935361762 -0.047911984
H 0.126046509 1.399806199 2.843640880
H -3.083478835 0.733324191 -1.952522404
H -6.153294289 -1.366070279 0.986020976
H -3.886532900 -1.045870530 3.599756302

