15

C 5.663457379 -1.094502065 -2.741908665
C 3.271780860 -1.025768341 -1.700121474
C 0.930319938 -0.425053716 -1.442870430
C -0.404308284 1.344472542 0.242947480
C -3.237422539 1.042969876 0.226219549
C -4.561125007 -0.272466684 2.250011538
O -4.580980473 2.407476028 2.096941907
H 7.004167439 -2.525819390 -2.168073353
H 3.522269708 -3.131453029 -2.347176455
H 6.197243858 0.164544539 -4.270332383
H 0.066814291 3.250673677 -0.442183120
H 0.298757707 1.260217383 2.186994104
H -4.100917113 1.065825584 -1.639967637
H -6.360744247 -1.185332261 1.876492221
H -3.482911078 -1.051689318 3.815508828

