13

C -2.984356237 0.020647242 -0.029739981
O -2.403512479 -0.250200155 -2.730142191
C -0.194130129 0.353909685 -1.690442977
O 0.906723419 2.486102940 -1.842399502
C 1.809764027 -1.419149190 -0.665846984
C 2.535563819 0.688130861 1.134273430
O 1.008509492 1.128519705 2.917021384
H -3.741606345 -1.746562836 0.700561083
H -0.838443551 0.587447274 1.954332270
H -4.174737110 1.670769889 0.240447788
H 3.253569852 -1.778187686 -2.081973765
H 1.197372765 -3.147154480 0.267689438
H 4.394510633 1.557054127 1.204524660

