12

N 3.612134859 -0.360494889 -0.006259926
C 1.031481872 -0.204780323 -0.555177593
N -0.162701451 -2.656722022 -1.294085433
C -2.059184877 -2.195263923 0.121583977
C -1.338705495 0.365195205 1.150434840
C -1.606378700 2.433635072 -0.795706223
N 0.293828999 1.967309114 -2.205215750
H 4.348693675 1.285160937 0.609876188
H 4.040748044 -1.805871947 1.159275565
H -3.705179039 -3.398038451 0.370263394
H -1.357336078 0.764404233 3.164484478
H -2.998019222 3.914993649 -1.088303102

