12

N 4.303005747 -0.483654388 -0.285813858
C 1.764119809 -0.198238072 -0.119865347
N 0.415320852 -2.267161615 0.423967445
C -2.054691581 -1.939344663 0.637009253
C -3.217827365 0.383566971 0.320380048
C -1.628619246 2.382204589 -0.253837443
N 0.848837158 2.131308656 -0.482633747
H 5.325216755 0.957377377 -0.966701059
H 5.008854076 -2.240797365 -0.306465900
H -3.152089632 -3.618011453 1.078298514
H -5.237683110 0.620017460 0.502311408
H -2.374443464 4.272732486 -0.546649334

