12

N 3.558340327 -0.351285252 -0.011726828
C 1.130523911 -0.265282380 -0.806130973
N -0.105701321 -2.623060690 -1.401164194
C -1.918473205 -2.180207417 0.150211042
C -1.641648624 0.392563258 1.178383228
C -1.475552960 2.397433683 -0.748570671
N 0.334219098 1.886633550 -2.282191551
H 4.356609624 1.309895921 0.452644247
H 4.043948276 -1.846754546 1.056493096
H -3.385228375 -3.556313237 0.583310588
H -2.222074677 0.825588463 3.097620620
H -2.651954659 4.076365904 -0.917735363

