11

C 3.302002002 -0.794001842 -0.820348139
N 1.191776605 0.139993576 -1.393943172
C -0.821869179 -0.062379368 0.493617043
N -1.970247336 2.326045197 1.093982296
C -2.759436839 -1.801123386 -0.511065697
N -4.235184648 -3.179044270 -1.293300875
H 3.668689883 -1.764782573 0.974539869
H 4.857610016 -0.647245560 -2.155436830
H -0.114211986 -0.899353431 2.258097884
H -0.674601292 3.493616263 1.873373115
H -2.647423323 3.156879483 -0.490045196

