11

C 2.930547457 -0.467904484 -0.514700585
N 0.874950169 -0.286283020 -2.043946163
C -0.886252488 -0.236497221 -0.154454081
N -1.563090895 2.008590975 1.260212753
C -3.151654674 -1.768811904 -0.550935894
N -4.850914792 -3.088259105 -0.830278026
H 3.311612375 -2.319690955 0.302135271
H 4.650368193 0.608374668 -0.919816122
H 1.229127685 -0.606237539 1.576241782
H -0.031253028 3.042907474 1.737153946
H -2.716336135 3.082415203 0.167857417

