19

C 3.537953357 -1.397685869 -0.894458945
C 0.940713110 -0.433426998 -0.590060690
O 1.371640360 0.244847109 3.646290033
C 0.071455779 2.111272494 -1.383011938
C -2.046416754 2.116201524 0.548798331
C -3.499757325 -0.273054786 -0.037251283
C -1.281892901 -2.125456287 -0.332235792
H 4.943759984 0.038443851 -0.464046117
H 3.720974013 -1.847541334 -2.915863548
H 3.890570300 -3.100653441 0.199677571
H 2.589439476 1.434945958 4.281398109
H 1.520606790 3.556516950 -1.114639516
H -0.447408023 2.094635799 -3.423536979
H -0.213377802 1.277528616 2.861712936
H -3.051233720 3.885312004 0.842604577
H -4.610793888 -0.199797039 -1.801255289
H -4.780658913 -0.861236483 1.467412077
H -1.343618839 -3.331885451 -2.026477856
H -1.058950874 -3.385690848 1.282518665

