16

C 1.517842366 0.944607401 -2.389293707
O 3.853906967 0.181689325 -1.389688926
C -1.455508333 -0.179306134 3.604225693
C -1.084532985 -0.522546085 1.143236023
N -0.409061758 1.452265317 -0.525651359
O 0.299519455 3.661181869 0.785289222
C -1.490905813 -3.020831126 -0.134766159
H 4.447626242 1.495020106 -0.285636393
H 0.871533260 -0.581836299 -3.606050810
H 1.704222180 2.666025069 -3.515291686
H -1.123473456 1.616305526 4.511968903
H -2.106498101 -1.740150466 4.749543987
H -1.054329662 4.824722092 0.458480571
H -2.735195564 -2.829254169 -1.770783002
H -2.351730468 -4.340476484 1.185697054
H 0.297551929 -3.826396542 -0.776229119

