21

C     4.08287  -0.85905   0.12772
O     2.71148  -0.55385   0.45104
C     1.92801  -0.24870  -0.56275
O     2.19909  -0.24836  -1.74236
C     0.59617   0.22232  -0.06558
C    -0.40823  -2.35798  -0.11046
C    -1.63101  -1.98441   0.11913
C    -1.44822   0.91434  -0.15389
C    -2.64015   1.26155  -0.78780
N    -3.65258   1.60060  -1.26422
O    -0.35152   0.49930  -0.88669
C    -1.15832   0.78929   1.21392
O    -1.68369   0.99385   2.27926
O     0.24932   0.30505   1.15871
H     4.57175  -1.07044   1.08102
H     4.54716   0.01845  -0.35738
H     4.12488  -1.72080  -0.54219
H     0.04589  -2.32269  -1.12002
H     0.34016  -2.39856   0.72218
H    -2.33638  -1.72513  -0.71657
H    -2.04944  -1.79462   1.12051
21

C     4.08261  -0.85785   0.12765
O     2.71111  -0.55354   0.45142
C     1.92590  -0.25076  -0.56203
O     2.19888  -0.24652  -1.74096
C     0.58743   0.19515  -0.06687
C    -0.39773  -2.32945  -0.10990
C    -1.63108  -1.96553   0.11799
C    -1.45099   0.89772  -0.15506
C    -2.64067   1.25821  -0.78647
N    -3.65096   1.60176  -1.26305
O    -0.35232   0.49900  -0.88958
C    -1.15394   0.78484   1.21475
O    -1.68237   0.99552   2.27700
O     0.24775   0.30347   1.16123
H     4.57179  -1.07019   1.08093
H     4.54711   0.01883  -0.35730
H     4.12488  -1.72039  -0.54230
H     0.04643  -2.32102  -1.11925
H     0.33944  -2.39726   0.72268
H    -2.33637  -1.72540  -0.71731
H    -2.05016  -1.79306   1.11991
21

C     4.08235  -0.85664   0.12758
O     2.71073  -0.55324   0.45179
C     1.92378  -0.25282  -0.56131
O     2.19867  -0.24468  -1.73956
C     0.57868   0.16797  -0.06817
C    -0.38723  -2.30091  -0.10934
C    -1.63115  -1.94664   0.11685
C    -1.45377   0.88110  -0.15622
C    -2.64118   1.25487  -0.78513
N    -3.64933   1.60293  -1.26188
O    -0.35312   0.49870  -0.89247
C    -1.14957   0.78038   1.21557
O    -1.68105   0.99719   2.27475
O     0.24618   0.30190   1.16375
H     4.57182  -1.06994   1.08085
H     4.54707   0.01921  -0.35723
H     4.12489  -1.71998  -0.54241
H     0.04697  -2.31936  -1.11848
H     0.33872  -2.39595   0.72318
H    -2.33635  -1.72568  -0.71806
H    -2.05087  -1.79150   1.11930
21

C     4.08209  -0.85543   0.12752
O     2.71036  -0.55293   0.45217
C     1.92166  -0.25488  -0.56059
O     2.19846  -0.24284  -1.73815
C     0.56993   0.14079  -0.06946
C    -0.37673  -2.27238  -0.10878
C    -1.63121  -1.92775   0.11570
C    -1.45655   0.86449  -0.15738
C    -2.64170   1.25153  -0.78379
N    -3.64770   1.60409  -1.26072
O    -0.35392   0.49840  -0.89536
C    -1.14519   0.77592   1.21640
O    -1.67973   0.99887   2.27250
O     0.24461   0.30032   1.16626
H     4.57186  -1.06969   1.08076
H     4.54702   0.01959  -0.35715
H     4.12489  -1.71958  -0.54251
H     0.04751  -2.31769  -1.11771
H     0.33801  -2.39464   0.72368
H    -2.33634  -1.72595  -0.71881
H    -2.05159  -1.78994   1.11870
21

C     4.08183  -0.85423   0.12745
O     2.70999  -0.55263   0.45254
C     1.91954  -0.25694  -0.55988
O     2.19824  -0.24100  -1.73675
C     0.56119   0.11361  -0.07075
C    -0.36623  -2.24385  -0.10821
C    -1.63128  -1.90887   0.11456
C    -1.45933   0.84787  -0.15854
C    -2.64222   1.24818  -0.78245
N    -3.64607   1.60525  -1.25955
O    -0.35472   0.49809  -0.89825
C    -1.14082   0.77146   1.21723
O    -1.67841   1.00054   2.27024
O     0.24304   0.29875   1.16878
H     4.57189  -1.06944   1.08067
H     4.54697   0.01997  -0.35708
H     4.12489  -1.71917  -0.54262
H     0.04805  -2.31602  -1.11694
H     0.33729  -2.39333   0.72419
H    -2.33633  -1.72623  -0.71956
H    -2.05230  -1.78839   1.11809
21

C     4.08157  -0.85302   0.12738
O     2.70961  -0.55232   0.45292
C     1.91743  -0.25900  -0.55916
O     2.19803  -0.23915  -1.73535
C     0.55244   0.08644  -0.07204
C    -0.35573  -2.21532  -0.10765
C    -1.63135  -1.88998   0.11342
C    -1.46211   0.83125  -0.15971
C    -2.64273   1.24484  -0.78112
N    -3.64445   1.60641  -1.25838
O    -0.35552   0.49779  -0.90114
C    -1.13645   0.76701   1.21805
O    -1.67709   1.00222   2.26799
O     0.24147   0.29717   1.17129
H     4.57193  -1.06919   1.08059
H     4.54693   0.02035  -0.35700
H     4.12490  -1.71876  -0.54272
H     0.04859  -2.31436  -1.11617
H     0.33657  -2.39202   0.72469
H    -2.33632  -1.72651  -0.72030
H    -2.05302  -1.78683   1.11749
21

C     4.08131  -0.85182   0.12731
O     2.70924  -0.55202   0.45330
C     1.91531  -0.26107  -0.55844
O     2.19782  -0.23731  -1.73395
C     0.54370   0.05926  -0.07334
C    -0.34523  -2.18678  -0.10709
C    -1.63142  -1.87110   0.11227
C    -1.46489   0.81463  -0.16087
C    -2.64325   1.24150  -0.77978
N    -3.64282   1.60758  -1.25722
O    -0.35632   0.49749  -0.90403
C    -1.13207   0.76255   1.21888
O    -1.67577   1.00389   2.26574
O     0.23990   0.29560   1.17381
H     4.57196  -1.06894   1.08050
H     4.54688   0.02073  -0.35693
H     4.12490  -1.71836  -0.54283
H     0.04912  -2.31269  -1.11540
H     0.33586  -2.39071   0.72519
H    -2.33631  -1.72678  -0.72105
H    -2.05373  -1.78527   1.11689
21

C     4.08106  -0.85061   0.12725
O     2.70886  -0.55172   0.45367
C     1.91319  -0.26313  -0.55772
O     2.19761  -0.23547  -1.73254
C     0.53495   0.03208  -0.07463
C    -0.33473  -2.15825  -0.10653
C    -1.63149  -1.85221   0.11113
C    -1.46767   0.79801  -0.16203
C    -2.64376   1.23816  -0.77844
N    -3.64119   1.60874  -1.25605
O    -0.35713   0.49719  -0.90692
C    -1.12770   0.75809   1.21971
O    -1.67445   1.00557   2.26348
O     0.23833   0.29402   1.17632
H     4.57200  -1.06869   1.08041
H     4.54684   0.02111  -0.35685
H     4.12491  -1.71795  -0.54294
H     0.04966  -2.31103  -1.11463
H     0.33514  -2.38941   0.72569
H    -2.33630  -1.72706  -0.72180
H    -2.05445  -1.78371   1.11628
21

C     4.08080  -0.84940   0.12718
O     2.70849  -0.55141   0.45405
C     1.91107  -0.26519  -0.55700
O     2.19740  -0.23363  -1.73114
C     0.52621   0.00490  -0.07592
C    -0.32423  -2.12972  -0.10597
C    -1.63156  -1.83332   0.10999
C    -1.47045   0.78139  -0.16319
C    -2.64428   1.23481  -0.77710
N    -3.63957   1.60990  -1.25489
O    -0.35793   0.49688  -0.90981
C    -1.12332   0.75363   1.22053
O    -1.67313   1.00724   2.26123
O     0.23676   0.29245   1.17884
H     4.57203  -1.06844   1.08033
H     4.54679   0.02149  -0.35677
H     4.12491  -1.71754  -0.54304
H     0.05020  -2.30936  -1.11385
H     0.33442  -2.38810   0.72620
H    -2.33629  -1.72733  -0.72255
H    -2.05516  -1.78215   1.11568
21

C     4.08054  -0.84820   0.12711
O     2.70812  -0.55111   0.45443
C     1.90896  -0.26725  -0.55628
O     2.19719  -0.23179  -1.72974
C     0.51746  -0.02227  -0.07721
C    -0.31373  -2.10118  -0.10541
C    -1.63162  -1.81444   0.10884
C    -1.47322   0.76477  -0.16436
C    -2.64479   1.23147  -0.77577
N    -3.63794   1.61106  -1.25372
O    -0.35873   0.49658  -0.91270
C    -1.11895   0.74917   1.22136
O    -1.67181   1.00891   2.25898
O     0.23519   0.29087   1.18135
H     4.57207  -1.06819   1.08024
H     4.54674   0.02187  -0.35670
H     4.12491  -1.71714  -0.54315
H     0.05074  -2.30769  -1.11308
H     0.33371  -2.38679   0.72670
H    -2.33628  -1.72761  -0.72330
H    -2.05588  -1.78059   1.11507
21

C     4.08028  -0.84699   0.12704
O     2.70774  -0.55080   0.45480
C     1.90684  -0.26931  -0.55556
O     2.19698  -0.22995  -1.72834
C     0.50871  -0.04945  -0.07851
C    -0.30323  -2.07265  -0.10484
C    -1.63169  -1.79555   0.10770
C    -1.47600   0.74816  -0.16552
C    -2.64531   1.22813  -0.77443
N    -3.63631   1.61223  -1.25255
O    -0.35953   0.49628  -0.91559
C    -1.11457   0.74472   1.22219
O    -1.67049   1.01059   2.25672
O     0.23362   0.28930   1.18387
H     4.57211  -1.06794   1.08016
H     4.54670   0.02226  -0.35662
H     4.12492  -1.71673  -0.54326
H     0.05128  -2.30603  -1.11231
H     0.33299  -2.38548   0.72720
H    -2.33627  -1.72788  -0.72404
H    -2.05659  -1.77904   1.11447
21

C     4.08002  -0.84578   0.12697
O     2.70737  -0.55050   0.45518
C     1.90472  -0.27137  -0.55484
O     2.19676  -0.22811  -1.72693
C     0.49997  -0.07663  -0.07980
C    -0.29273  -2.04412  -0.10428
C    -1.63176  -1.77666   0.10655
C    -1.47878   0.73154  -0.16668
C    -2.64583   1.22479  -0.77309
N    -3.63468   1.61339  -1.25139
O    -0.36033   0.49598  -0.91848
C    -1.11020   0.74026   1.22301
O    -1.66917   1.01226   2.25447
O     0.23205   0.28773   1.18638
H     4.57214  -1.06769   1.08007
H     4.54665   0.02264  -0.35655
H     4.12492  -1.71632  -0.54336
H     0.05182  -2.30436  -1.11154
H     0.33227  -2.38417   0.72770
H    -2.33626  -1.72816  -0.72479
H    -2.05731  -1.77748   1.11386
21

C     4.07976  -0.84458   0.12691
O     2.70699  -0.55019   0.45555
C     1.90260  -0.27343  -0.55413
O     2.19655  -0.22627  -1.72553
C     0.49122  -0.10380  -0.08109
C    -0.28223  -2.01558  -0.10372
C    -1.63183  -1.75778   0.10541
C    -1.48156   0.71492  -0.16784
C    -2.64634   1.22144  -0.77176
N    -3.63306   1.61455  -1.25022
O    -0.36113   0.49567  -0.92137
C    -1.10583   0.73580   1.22384
O    -1.66785   1.01394   2.25222
O     0.23048   0.28615   1.18890
H     4.57218  -1.06743   1.07998
H     4.54660   0.02302  -0.35647
H     4.12492  -1.71592  -0.54347
H     0.05236  -2.30269  -1.11077
H     0.33156  -2.38287   0.72821
H    -2.33625  -1.72844  -0.72554
H    -2.05802  -1.77592   1.11326
21

C     4.07950  -0.84337   0.12684
O     2.70662  -0.54989   0.45593
C     1.90049  -0.27549  -0.55341
O     2.19634  -0.22443  -1.72413
C     0.48248  -0.13098  -0.08238
C    -0.27173  -1.98705  -0.10316
C    -1.63190  -1.73889   0.10427
C    -1.48434   0.69830  -0.16901
C    -2.64686   1.21810  -0.77042
N    -3.63143   1.61571  -1.24906
O    -0.36193   0.49537  -0.92426
C    -1.10145   0.73134   1.22467
O    -1.66653   1.01561   2.24996
O     0.22891   0.28458   1.19142
H     4.57221  -1.06718   1.07990
H     4.54656   0.02340  -0.35640
H     4.12493  -1.71551  -0.54358
H     0.05290  -2.30103  -1.11000
H     0.33084  -2.38156   0.72871
H    -2.33624  -1.72871  -0.72629
H    -2.05874  -1.77436   1.11266
21

C     4.07924  -0.84217   0.12677
O     2.70625  -0.54958   0.45631
C     1.89837  -0.27755  -0.55269
O     2.19613  -0.22259  -1.72273
C     0.47373  -0.15816  -0.08368
C    -0.26122  -1.95852  -0.10260
C    -1.63197  -1.72001   0.10312
C    -1.48712   0.68168  -0.17017
C    -2.64737   1.21476  -0.76908
N    -3.62980   1.61688  -1.24789
O    -0.36273   0.49507  -0.92715
C    -1.09708   0.72689   1.22549
O    -1.66521   1.01729   2.24771
O     0.22734   0.28300   1.19393
H     4.57225  -1.06693   1.07981
H     4.54651   0.02378  -0.35632
H     4.12493  -1.71510  -0.54368
H     0.05344  -2.29936  -1.10923
H     0.33012  -2.38025   0.72921
H    -2.33623  -1.72899  -0.72703
H    -2.05946  -1.77280   1.11205
21

C     4.07898  -0.84096   0.12670
O     2.70587  -0.54928   0.45668
C     1.89625  -0.27961  -0.55197
O     2.19592  -0.22075  -1.72132
C     0.46499  -0.18534  -0.08497
C    -0.25072  -1.92999  -0.10204
C    -1.63203  -1.70112   0.10198
C    -1.48990   0.66506  -0.17133
C    -2.64789   1.21142  -0.76774
N    -3.62817   1.61804  -1.24672
O    -0.36354   0.49477  -0.93004
C    -1.09270   0.72243   1.22632
O    -1.66389   1.01896   2.24546
O     0.22577   0.28143   1.19645
H     4.57228  -1.06668   1.07972
H     4.54646   0.02416  -0.35625
H     4.12493  -1.71470  -0.54379
H     0.05398  -2.29770  -1.10846
H     0.32941  -2.37894   0.72971
H    -2.33622  -1.72926  -0.72778
H    -2.06017  -1.77124   1.11145
21

C     4.07872  -0.83975   0.12664
O     2.70550  -0.54897   0.45706
C     1.89414  -0.28167  -0.55125
O     2.19571  -0.21891  -1.71992
C     0.45624  -0.21251  -0.08626
C    -0.24022  -1.90145  -0.10147
C    -1.63210  -1.68223   0.10084
C    -1.49268   0.64845  -0.17250
C    -2.64841   1.20807  -0.76641
N    -3.62655   1.61920  -1.24556
O    -0.36434   0.49446  -0.93293
C    -1.08833   0.71797   1.22714
O    -1.66257   1.02063   2.24320
O     0.22420   0.27985   1.19896
H     4.57232  -1.06643   1.07964
H     4.54642   0.02454  -0.35617
H     4.12494  -1.71429  -0.54390
H     0.05452  -2.29603  -1.10769
H     0.32869  -2.37763   0.73021
H    -2.33621  -1.72954  -0.72853
H    -2.06089  -1.76969   1.11084
21

C     4.07846  -0.83855   0.12657
O     2.70513  -0.54867   0.45743
C     1.89202  -0.28373  -0.55053
O     2.19550  -0.21706  -1.71852
C     0.44749  -0.23969  -0.08755
C    -0.22972  -1.87292  -0.10091
C    -1.63217  -1.66335   0.09969
C    -1.49546   0.63183  -0.17366
C    -2.64892   1.20473  -0.76507
N    -3.62492   1.62036  -1.24439
O    -0.36514   0.49416  -0.93582
C    -1.08396   0.71351   1.22797
O    -1.66125   1.02231   2.24095
O     0.22263   0.27828   1.20148
H     4.57235  -1.06618   1.07955
H     4.54637   0.02492  -0.35610
H     4.12494  -1.71388  -0.54400
H     0.05506  -2.29436  -1.10692
H     0.32797  -2.37633   0.73072
H    -2.33620  -1.72982  -0.72928
H    -2.06160  -1.76813   1.11024
21

C     4.07820  -0.83734   0.12650
O     2.70475  -0.54836   0.45781
C     1.88990  -0.28579  -0.54981
O     2.19529  -0.21522  -1.71712
C     0.43875  -0.26687  -0.08885
C    -0.21922  -1.84439  -0.10035
C    -1.63224  -1.64446   0.09855
C    -1.49823   0.61521  -0.17482
C    -2.64944   1.20139  -0.76373
N    -3.62329   1.62153  -1.24322
O    -0.36594   0.49386  -0.93871
C    -1.07958   0.70905   1.22880
O    -1.65993   1.02398   2.23870
O     0.22106   0.27670   1.20399
H     4.57239  -1.06593   1.07946
H     4.54633   0.02530  -0.35602
H     4.12495  -1.71348  -0.54411
H     0.05560  -2.29270  -1.10615
H     0.32726  -2.37502   0.73122
H    -2.33619  -1.73009  -0.73002
H    -2.06232  -1.76657   1.10963
21

C     4.07794  -0.83613   0.12643
O     2.70438  -0.54806   0.45819
C     1.88778  -0.28786  -0.54909
O     2.19507  -0.21338  -1.71571
C     0.43000  -0.29404  -0.09014
C    -0.20872  -1.81585  -0.09979
C    -1.63231  -1.62558   0.09741
C    -1.50101   0.59859  -0.17598
C    -2.64995   1.19805  -0.76239
N    -3.62166   1.62269  -1.24206
O    -0.36674   0.49356  -0.94160
C    -1.07521   0.70460   1.22962
O    -1.65861   1.02566   2.23644
O     0.21949   0.27513   1.20651
H     4.57242  -1.06568   1.07938
H     4.54628   0.02568  -0.35594
H     4.12495  -1.71307  -0.54422
H     0.05614  -2.29103  -1.10538
H     0.32654  -2.37371   0.73172
H    -2.33618  -1.73037  -0.73077
H    -2.06303  -1.76501   1.10903
21

C     4.07768  -0.83493   0.12636
O     2.70400  -0.54776   0.45856
C     1.88567  -0.28992  -0.54837
O     2.19486  -0.21154  -1.71431
C     0.42126  -0.32122  -0.09143
C    -0.19822  -1.78732  -0.09923
C    -1.63238  -1.60669   0.09626
C    -1.50379   0.58197  -0.17715
C    -2.65047   1.19470  -0.76106
N    -3.62004   1.62385  -1.24089
O    -0.36754   0.49325  -0.94449
C    -1.07083   0.70014   1.23045
O    -1.65729   1.02733   2.23419
O     0.21792   0.27356   1.20902
H     4.57246  -1.06543   1.07929
H     4.54623   0.02606  -0.35587
H     4.12495  -1.71266  -0.54432
H     0.05668  -2.28936  -1.10460
H     0.32582  -2.37240   0.73222
H    -2.33617  -1.73064  -0.73152
H    -2.06375  -1.76345   1.10843
21

C     4.07794  -0.83613   0.12643
O     2.70438  -0.54806   0.45819
C     1.88778  -0.28786  -0.54909
O     2.19507  -0.21338  -1.71571
C     0.43000  -0.29404  -0.09014
C    -0.20872  -1.81585  -0.09979
C    -1.63231  -1.62558   0.09741
C    -1.50101   0.59859  -0.17598
C    -2.64995   1.19805  -0.76239
N    -3.62166   1.62269  -1.24206
O    -0.36674   0.49356  -0.94160
C    -1.07521   0.70460   1.22962
O    -1.65861   1.02566   2.23644
O     0.21949   0.27513   1.20651
H     4.57242  -1.06568   1.07938
H     4.54628   0.02568  -0.35594
H     4.12495  -1.71307  -0.54422
H     0.05614  -2.29103  -1.10538
H     0.32654  -2.37371   0.73172
H    -2.33618  -1.73037  -0.73077
H    -2.06303  -1.76501   1.10903
21

C     4.07820  -0.83734   0.12650
O     2.70475  -0.54836   0.45781
C     1.88990  -0.28579  -0.54981
O     2.19529  -0.21522  -1.71712
C     0.43875  -0.26687  -0.08885
C    -0.21922  -1.84439  -0.10035
C    -1.63224  -1.64446   0.09855
C    -1.49823   0.61521  -0.17482
C    -2.64944   1.20139  -0.76373
N    -3.62329   1.62153  -1.24322
O    -0.36594   0.49386  -0.93871
C    -1.07958   0.70905   1.22880
O    -1.65993   1.02398   2.23870
O     0.22106   0.27670   1.20399
H     4.57239  -1.06593   1.07946
H     4.54633   0.02530  -0.35602
H     4.12495  -1.71348  -0.54411
H     0.05560  -2.29270  -1.10615
H     0.32726  -2.37502   0.73122
H    -2.33619  -1.73009  -0.73002
H    -2.06232  -1.76657   1.10963
21

C     4.07846  -0.83855   0.12657
O     2.70513  -0.54867   0.45743
C     1.89202  -0.28373  -0.55053
O     2.19550  -0.21706  -1.71852
C     0.44749  -0.23969  -0.08755
C    -0.22972  -1.87292  -0.10091
C    -1.63217  -1.66335   0.09969
C    -1.49546   0.63183  -0.17366
C    -2.64892   1.20473  -0.76507
N    -3.62492   1.62036  -1.24439
O    -0.36514   0.49416  -0.93582
C    -1.08396   0.71351   1.22797
O    -1.66125   1.02231   2.24095
O     0.22263   0.27828   1.20148
H     4.57235  -1.06618   1.07955
H     4.54637   0.02492  -0.35610
H     4.12494  -1.71388  -0.54400
H     0.05506  -2.29436  -1.10692
H     0.32797  -2.37633   0.73072
H    -2.33620  -1.72982  -0.72928
H    -2.06160  -1.76813   1.11024
21

C     4.07872  -0.83975   0.12664
O     2.70550  -0.54897   0.45706
C     1.89414  -0.28167  -0.55125
O     2.19571  -0.21891  -1.71992
C     0.45624  -0.21251  -0.08626
C    -0.24022  -1.90145  -0.10147
C    -1.63210  -1.68223   0.10084
C    -1.49268   0.64845  -0.17250
C    -2.64841   1.20807  -0.76641
N    -3.62655   1.61920  -1.24556
O    -0.36434   0.49446  -0.93293
C    -1.08833   0.71797   1.22714
O    -1.66257   1.02063   2.24320
O     0.22420   0.27985   1.19896
H     4.57232  -1.06643   1.07964
H     4.54642   0.02454  -0.35617
H     4.12494  -1.71429  -0.54390
H     0.05452  -2.29603  -1.10769
H     0.32869  -2.37763   0.73021
H    -2.33621  -1.72954  -0.72853
H    -2.06089  -1.76969   1.11084
21

C     4.07898  -0.84096   0.12670
O     2.70587  -0.54928   0.45668
C     1.89625  -0.27961  -0.55197
O     2.19592  -0.22075  -1.72132
C     0.46499  -0.18534  -0.08497
C    -0.25072  -1.92999  -0.10204
C    -1.63203  -1.70112   0.10198
C    -1.48990   0.66506  -0.17133
C    -2.64789   1.21142  -0.76774
N    -3.62817   1.61804  -1.24672
O    -0.36354   0.49477  -0.93004
C    -1.09270   0.72243   1.22632
O    -1.66389   1.01896   2.24546
O     0.22577   0.28143   1.19645
H     4.57228  -1.06668   1.07972
H     4.54646   0.02416  -0.35625
H     4.12493  -1.71470  -0.54379
H     0.05398  -2.29770  -1.10846
H     0.32941  -2.37894   0.72971
H    -2.33622  -1.72926  -0.72778
H    -2.06017  -1.77124   1.11145
21

C     4.07924  -0.84217   0.12677
O     2.70625  -0.54958   0.45631
C     1.89837  -0.27755  -0.55269
O     2.19613  -0.22259  -1.72273
C     0.47373  -0.15816  -0.08368
C    -0.26122  -1.95852  -0.10260
C    -1.63197  -1.72001   0.10312
C    -1.48712   0.68168  -0.17017
C    -2.64737   1.21476  -0.76908
N    -3.62980   1.61688  -1.24789
O    -0.36273   0.49507  -0.92715
C    -1.09708   0.72689   1.22549
O    -1.66521   1.01729   2.24771
O     0.22734   0.28300   1.19393
H     4.57225  -1.06693   1.07981
H     4.54651   0.02378  -0.35632
H     4.12493  -1.71510  -0.54368
H     0.05344  -2.29936  -1.10923
H     0.33012  -2.38025   0.72921
H    -2.33623  -1.72899  -0.72703
H    -2.05946  -1.77280   1.11205
21

C     4.07950  -0.84337   0.12684
O     2.70662  -0.54989   0.45593
C     1.90049  -0.27549  -0.55341
O     2.19634  -0.22443  -1.72413
C     0.48248  -0.13098  -0.08238
C    -0.27173  -1.98705  -0.10316
C    -1.63190  -1.73889   0.10427
C    -1.48434   0.69830  -0.16901
C    -2.64686   1.21810  -0.77042
N    -3.63143   1.61571  -1.24906
O    -0.36193   0.49537  -0.92426
C    -1.10145   0.73134   1.22467
O    -1.66653   1.01561   2.24996
O     0.22891   0.28458   1.19142
H     4.57221  -1.06718   1.07990
H     4.54656   0.02340  -0.35640
H     4.12493  -1.71551  -0.54358
H     0.05290  -2.30103  -1.11000
H     0.33084  -2.38156   0.72871
H    -2.33624  -1.72871  -0.72629
H    -2.05874  -1.77436   1.11266
21

C     4.07976  -0.84458   0.12691
O     2.70699  -0.55019   0.45555
C     1.90260  -0.27343  -0.55413
O     2.19655  -0.22627  -1.72553
C     0.49122  -0.10380  -0.08109
C    -0.28223  -2.01558  -0.10372
C    -1.63183  -1.75778   0.10541
C    -1.48156   0.71492  -0.16784
C    -2.64634   1.22144  -0.77176
N    -3.63306   1.61455  -1.25022
O    -0.36113   0.49567  -0.92137
C    -1.10583   0.73580   1.22384
O    -1.66785   1.01394   2.25222
O     0.23048   0.28615   1.18890
H     4.57218  -1.06743   1.07998
H     4.54660   0.02302  -0.35647
H     4.12492  -1.71592  -0.54347
H     0.05236  -2.30269  -1.11077
H     0.33156  -2.38287   0.72821
H    -2.33625  -1.72844  -0.72554
H    -2.05802  -1.77592   1.11326
21

C     4.08002  -0.84578   0.12697
O     2.70737  -0.55050   0.45518
C     1.90472  -0.27137  -0.55484
O     2.19676  -0.22811  -1.72693
C     0.49997  -0.07663  -0.07980
C    -0.29273  -2.04412  -0.10428
C    -1.63176  -1.77666   0.10655
C    -1.47878   0.73154  -0.16668
C    -2.64583   1.22479  -0.77309
N    -3.63468   1.61339  -1.25139
O    -0.36033   0.49598  -0.91848
C    -1.11020   0.74026   1.22301
O    -1.66917   1.01226   2.25447
O     0.23205   0.28773   1.18638
H     4.57214  -1.06769   1.08007
H     4.54665   0.02264  -0.35655
H     4.12492  -1.71632  -0.54336
H     0.05182  -2.30436  -1.11154
H     0.33227  -2.38417   0.72770
H    -2.33626  -1.72816  -0.72479
H    -2.05731  -1.77748   1.11386
21

C     4.08028  -0.84699   0.12704
O     2.70774  -0.55080   0.45480
C     1.90684  -0.26931  -0.55556
O     2.19698  -0.22995  -1.72834
C     0.50871  -0.04945  -0.07851
C    -0.30323  -2.07265  -0.10484
C    -1.63169  -1.79555   0.10770
C    -1.47600   0.74816  -0.16552
C    -2.64531   1.22813  -0.77443
N    -3.63631   1.61223  -1.25255
O    -0.35953   0.49628  -0.91559
C    -1.11457   0.74472   1.22219
O    -1.67049   1.01059   2.25672
O     0.23362   0.28930   1.18387
H     4.57211  -1.06794   1.08016
H     4.54670   0.02226  -0.35662
H     4.12492  -1.71673  -0.54326
H     0.05128  -2.30603  -1.11231
H     0.33299  -2.38548   0.72720
H    -2.33627  -1.72788  -0.72404
H    -2.05659  -1.77904   1.11447
21

C     4.08054  -0.84820   0.12711
O     2.70812  -0.55111   0.45443
C     1.90896  -0.26725  -0.55628
O     2.19719  -0.23179  -1.72974
C     0.51746  -0.02227  -0.07721
C    -0.31373  -2.10118  -0.10541
C    -1.63162  -1.81444   0.10884
C    -1.47322   0.76477  -0.16436
C    -2.64479   1.23147  -0.77577
N    -3.63794   1.61106  -1.25372
O    -0.35873   0.49658  -0.91270
C    -1.11895   0.74917   1.22136
O    -1.67181   1.00891   2.25898
O     0.23519   0.29087   1.18135
H     4.57207  -1.06819   1.08024
H     4.54674   0.02187  -0.35670
H     4.12491  -1.71714  -0.54315
H     0.05074  -2.30769  -1.11308
H     0.33371  -2.38679   0.72670
H    -2.33628  -1.72761  -0.72330
H    -2.05588  -1.78059   1.11507
21

C     4.08080  -0.84940   0.12718
O     2.70849  -0.55141   0.45405
C     1.91107  -0.26519  -0.55700
O     2.19740  -0.23363  -1.73114
C     0.52621   0.00490  -0.07592
C    -0.32423  -2.12972  -0.10597
C    -1.63156  -1.83332   0.10999
C    -1.47045   0.78139  -0.16319
C    -2.64428   1.23481  -0.77710
N    -3.63957   1.60990  -1.25489
O    -0.35793   0.49688  -0.90981
C    -1.12332   0.75363   1.22053
O    -1.67313   1.00724   2.26123
O     0.23676   0.29245   1.17884
H     4.57203  -1.06844   1.08033
H     4.54679   0.02149  -0.35677
H     4.12491  -1.71754  -0.54304
H     0.05020  -2.30936  -1.11385
H     0.33442  -2.38810   0.72620
H    -2.33629  -1.72733  -0.72255
H    -2.05516  -1.78215   1.11568
21

C     4.08106  -0.85061   0.12725
O     2.70886  -0.55172   0.45367
C     1.91319  -0.26313  -0.55772
O     2.19761  -0.23547  -1.73254
C     0.53495   0.03208  -0.07463
C    -0.33473  -2.15825  -0.10653
C    -1.63149  -1.85221   0.11113
C    -1.46767   0.79801  -0.16203
C    -2.64376   1.23816  -0.77844
N    -3.64119   1.60874  -1.25605
O    -0.35713   0.49719  -0.90692
C    -1.12770   0.75809   1.21971
O    -1.67445   1.00557   2.26348
O     0.23833   0.29402   1.17632
H     4.57200  -1.06869   1.08041
H     4.54684   0.02111  -0.35685
H     4.12491  -1.71795  -0.54294
H     0.04966  -2.31103  -1.11463
H     0.33514  -2.38941   0.72569
H    -2.33630  -1.72706  -0.72180
H    -2.05445  -1.78371   1.11628
21

C     4.08131  -0.85182   0.12731
O     2.70924  -0.55202   0.45330
C     1.91531  -0.26107  -0.55844
O     2.19782  -0.23731  -1.73395
C     0.54370   0.05926  -0.07334
C    -0.34523  -2.18678  -0.10709
C    -1.63142  -1.87110   0.11227
C    -1.46489   0.81463  -0.16087
C    -2.64325   1.24150  -0.77978
N    -3.64282   1.60758  -1.25722
O    -0.35632   0.49749  -0.90403
C    -1.13207   0.76255   1.21888
O    -1.67577   1.00389   2.26574
O     0.23990   0.29560   1.17381
H     4.57196  -1.06894   1.08050
H     4.54688   0.02073  -0.35693
H     4.12490  -1.71836  -0.54283
H     0.04912  -2.31269  -1.11540
H     0.33586  -2.39071   0.72519
H    -2.33631  -1.72678  -0.72105
H    -2.05373  -1.78527   1.11689
21

C     4.08157  -0.85302   0.12738
O     2.70961  -0.55232   0.45292
C     1.91743  -0.25900  -0.55916
O     2.19803  -0.23915  -1.73535
C     0.55244   0.08644  -0.07204
C    -0.35573  -2.21532  -0.10765
C    -1.63135  -1.88998   0.11342
C    -1.46211   0.83125  -0.15971
C    -2.64273   1.24484  -0.78112
N    -3.64445   1.60641  -1.25838
O    -0.35552   0.49779  -0.90114
C    -1.13645   0.76701   1.21805
O    -1.67709   1.00222   2.26799
O     0.24147   0.29717   1.17129
H     4.57193  -1.06919   1.08059
H     4.54693   0.02035  -0.35700
H     4.12490  -1.71876  -0.54272
H     0.04859  -2.31436  -1.11617
H     0.33657  -2.39202   0.72469
H    -2.33632  -1.72651  -0.72030
H    -2.05302  -1.78683   1.11749
21

C     4.08183  -0.85423   0.12745
O     2.70999  -0.55263   0.45254
C     1.91954  -0.25694  -0.55988
O     2.19824  -0.24100  -1.73675
C     0.56119   0.11361  -0.07075
C    -0.36623  -2.24385  -0.10821
C    -1.63128  -1.90887   0.11456
C    -1.45933   0.84787  -0.15854
C    -2.64222   1.24818  -0.78245
N    -3.64607   1.60525  -1.25955
O    -0.35472   0.49809  -0.89825
C    -1.14082   0.77146   1.21723
O    -1.67841   1.00054   2.27024
O     0.24304   0.29875   1.16878
H     4.57189  -1.06944   1.08067
H     4.54697   0.01997  -0.35708
H     4.12489  -1.71917  -0.54262
H     0.04805  -2.31602  -1.11694
H     0.33729  -2.39333   0.72419
H    -2.33633  -1.72623  -0.71956
H    -2.05230  -1.78839   1.11809
21

C     4.08209  -0.85543   0.12752
O     2.71036  -0.55293   0.45217
C     1.92166  -0.25488  -0.56059
O     2.19846  -0.24284  -1.73815
C     0.56993   0.14079  -0.06946
C    -0.37673  -2.27238  -0.10878
C    -1.63121  -1.92775   0.11570
C    -1.45655   0.86449  -0.15738
C    -2.64170   1.25153  -0.78379
N    -3.64770   1.60409  -1.26072
O    -0.35392   0.49840  -0.89536
C    -1.14519   0.77592   1.21640
O    -1.67973   0.99887   2.27250
O     0.24461   0.30032   1.16626
H     4.57186  -1.06969   1.08076
H     4.54702   0.01959  -0.35715
H     4.12489  -1.71958  -0.54251
H     0.04751  -2.31769  -1.11771
H     0.33801  -2.39464   0.72368
H    -2.33634  -1.72595  -0.71881
H    -2.05159  -1.78994   1.11870
21

C     4.08235  -0.85664   0.12758
O     2.71073  -0.55324   0.45179
C     1.92378  -0.25282  -0.56131
O     2.19867  -0.24468  -1.73956
C     0.57868   0.16797  -0.06817
C    -0.38723  -2.30091  -0.10934
C    -1.63115  -1.94664   0.11685
C    -1.45377   0.88110  -0.15622
C    -2.64118   1.25487  -0.78513
N    -3.64933   1.60293  -1.26188
O    -0.35312   0.49870  -0.89247
C    -1.14957   0.78038   1.21557
O    -1.68105   0.99719   2.27475
O     0.24618   0.30190   1.16375
H     4.57182  -1.06994   1.08085
H     4.54707   0.01921  -0.35723
H     4.12489  -1.71998  -0.54241
H     0.04697  -2.31936  -1.11848
H     0.33872  -2.39595   0.72318
H    -2.33635  -1.72568  -0.71806
H    -2.05087  -1.79150   1.11930
21

C     4.08261  -0.85785   0.12765
O     2.71111  -0.55354   0.45142
C     1.92590  -0.25076  -0.56203
O     2.19888  -0.24652  -1.74096
C     0.58743   0.19515  -0.06687
C    -0.39773  -2.32945  -0.10990
C    -1.63108  -1.96553   0.11799
C    -1.45099   0.89772  -0.15506
C    -2.64067   1.25821  -0.78647
N    -3.65096   1.60176  -1.26305
O    -0.35232   0.49900  -0.88958
C    -1.15394   0.78484   1.21475
O    -1.68237   0.99552   2.27700
O     0.24775   0.30347   1.16123
H     4.57179  -1.07019   1.08093
H     4.54711   0.01883  -0.35730
H     4.12488  -1.72039  -0.54230
H     0.04643  -2.32102  -1.11925
H     0.33944  -2.39726   0.72268
H    -2.33637  -1.72540  -0.71731
H    -2.05016  -1.79306   1.11991
