16

C 2.653929895 -0.822612938 0.953683831
C 0.318482441 0.168912811 -0.340580388
C -0.089063227 2.968764069 -0.235987468
C -1.974235187 2.157062146 1.675281742
C -2.238300489 -1.603515103 0.053940531
C -0.793596817 -1.463965065 -2.349508188
H 3.002228435 0.158290566 2.732297461
H 4.289919507 -0.539061989 -0.275095841
H 2.507073760 -2.842003395 1.351021728
H 1.622475368 3.921159618 0.399131757
H -0.843085059 3.833402362 -1.944808070
H -0.949991269 1.750958773 3.439805404
H -1.833870148 -3.158300330 1.319406043
H -4.181665129 -1.022454367 0.024556008
H -1.714229168 -0.533188966 -3.922297138
H 0.352192207 -3.075349763 -2.880057490

