14

C 4.090266938 1.392843994 -0.745312141
C 1.655333416 0.057505027 -0.083360279
O 1.684459386 -2.005686145 0.899188193
C -0.828870123 1.302441159 -0.647556892
C -0.933637390 3.564512853 -1.736561214
H -2.729528427 4.460996716 -2.145196291
H 0.746720214 4.605881073 -2.262092349
C -3.130285027 -0.172035904 0.090590031
H -4.847792360 0.857311314 -0.389062862
H -3.122849333 -0.564284712 2.114943420
H -3.153402538 -2.002048025 -0.858723072
H 4.202511699 1.752316277 -2.773413310
H 5.664010540 0.200223456 -0.177500331
H 4.219195902 3.208888563 0.223481619

