11

N 3.621415908 0.392619270 0.444747119
C 1.767319455 0.503619590 -1.149073217
C -2.742313312 -1.779838758 -0.260721205
O -2.601614831 0.884421419 0.113657559
C -0.373184457 2.041203887 -0.212146532
O -0.183086664 4.292318987 0.063000105
H 3.623896401 1.261126096 2.160321961
H 5.256262539 -0.452482732 -0.053634453
H -2.152993679 -2.289478713 -2.168695621
H -4.714488925 -2.278342406 0.028743377
H -1.583160372 -2.795557858 1.112814135

