11

N 3.242542960 -0.087459738 0.197980049
C 1.029721762 0.252804575 -0.930414840
C -2.414294519 -1.448983638 0.118680205
O -3.086641273 1.054644434 -0.213698073
C -0.749111190 2.210983081 -0.206389632
O -0.395282857 4.389043561 0.288644781
H 3.631900657 0.689630567 1.893201614
H 4.697459658 -0.874214612 -0.731836069
H -0.312067407 -1.522159011 -1.539259653
H -3.640373546 -2.744330368 -0.907119940
H -2.032767073 -1.998737754 2.061269169

