17

C -3.007907176 -0.629959403 1.814846804
C -3.631313236 0.465690462 -0.724696778
C -0.924755413 0.163719503 0.047509019
C 0.718966562 2.349545756 0.681592163
C 3.144173890 1.806652177 0.356789835
C 3.524831609 -0.873034534 -0.531460660
C 0.830788724 -1.739805175 -1.230928631
H -3.299524647 -2.636077483 2.097136303
H -3.353019732 0.519564627 3.472322564
H -4.415944473 2.354570953 -0.796163839
H -4.344049182 -0.802100131 -2.165586719
H -0.021865246 4.127739904 1.378018469
H 4.335827172 -2.020579435 0.988278311
H 4.695094401 3.082809797 0.748892605
H 4.826585815 -1.007363505 -2.127620383
H 0.577735480 -1.632209744 -3.278001384
H 0.441603767 -3.683110326 -0.662778447

