17

C -2.636186917 -1.158303735 1.790864176
C -3.523423026 0.418506892 -0.397704428
C -0.759910086 0.012630967 0.020023444
C 0.958412701 2.139560882 0.954321406
C 3.553375771 1.194653732 0.283600157
C 3.475030561 -0.851967452 -1.159425118
C 0.811677622 -1.665409133 -1.730159805
H -2.919391119 -3.183452982 1.691079003
H -2.803031365 -0.369008691 3.672355838
H -4.293794939 2.272153440 0.004252375
H -4.409221244 -0.538817912 -1.975598946
H 0.564375646 3.931228267 -0.008877669
H 0.737045874 2.489979128 2.979286140
H 5.267637650 2.137377624 0.886138746
H 5.116329075 -1.817400467 -1.910603800
H 0.362040931 -1.334423640 -3.725612081
H 0.499032885 -3.677306902 -1.373939420

