11

C -1.205453611 2.089680389 -1.108384881
H -0.142015753 1.733459323 -2.840086287
H -0.197708608 3.498841563 0.014883351
C -4.014604647 2.479985765 -1.457577753
H -5.088172250 4.034518184 -2.245762564
C -4.678575284 0.308119070 -0.373020353
H -6.472243776 -0.606479424 -0.002748890
C -1.985875994 -0.397591404 0.290782477
O -1.009501296 -2.701602319 -0.584349200
H -1.501437540 -2.907973923 -2.318615304
H -1.574192563 -0.340586209 2.311244673

