17

C 3.999955584 -1.004719155 -0.333888377
C 2.656931876 0.669027261 1.472477998
C -0.387616409 2.311624508 -0.458245017
C -3.142116583 2.234157435 -1.099541360
C -3.941800321 0.028309477 -0.250040605
C -1.676660128 -0.913197961 1.090342513
O -0.963402013 -3.346067241 0.629817806
H 4.471266508 -0.078916191 -2.120789609
H 5.794095714 -1.337851981 0.663745987
H 3.191702543 -2.879071904 -0.701595349
H 2.060697754 -0.454604894 3.106069472
H 0.761740910 2.032278654 -2.138437402
H 0.157377790 4.058894366 0.465377958
H -4.186615739 3.755437099 -1.994315814
H -5.760504529 -0.909865505 -0.330605828
H -1.662986032 -0.566290883 3.109457448
H -1.369787937 -3.765954880 -1.090433655

