10

C 3.247202363 1.180934132 -0.584077325
C 0.956153760 0.407286076 1.101118487
C -0.477808936 -1.262896051 -0.574058640
C -2.149601828 -0.079030085 -2.229875504
N -3.600780477 0.696548571 -3.683067373
H -0.025370556 2.128250550 1.693875438
H 1.681474337 -0.611808414 2.736730683
H 4.520950696 2.300449008 0.582266306
H 4.261892960 -0.470705984 -1.275680313
H 2.647701887 2.322351520 -2.189233542

