12

C -2.965156771 -1.040486209 1.158458787
C -0.422775897 -1.576826085 -0.046192522
C 1.362394629 0.453851271 0.167294279
N 1.011147795 2.893191144 -0.376324974
N 3.908019369 -0.775107661 -1.345774412
N 5.897133995 -1.266049721 -1.638432026
O 0.054135872 -3.649157882 -0.941346169
H -2.955188277 0.637819039 2.348681679
H -3.530686699 -2.686968620 2.255999229
H -4.352102797 -0.778765471 -0.348716018
H 0.034259204 3.495922126 -1.897566145
H 1.940536495 4.235113387 0.593191493

