11

C -2.303633121 -1.218770833 -1.031350970
C -0.173474005 0.421823154 -0.096050716
C 2.368694559 -0.397837937 -0.195702003
C 4.507127671 -1.153145218 -0.323781196
C -0.673034860 2.795328161 0.894556550
N -1.156272185 4.750585528 1.943409427
H -2.235978469 -3.089987147 -0.167565134
H -4.131174689 -0.366488609 -0.613006065
H -2.167944795 -1.460402402 -3.078221390
H -0.822897190 1.990079086 2.944006125
H 6.404715642 -1.807860732 -0.440364447

