12

N -3.567666976 -1.904792514 1.436750892
C -1.875458522 -1.337630581 -0.313363929
N 0.522893776 -1.905767481 0.028074905
C 2.258994351 -0.227531945 -0.294156961
O 4.741810547 -0.824100076 -0.436628515
C 1.435436229 2.282286775 -0.835384708
N -0.940291172 2.649225517 -0.449028029
H -3.094189142 -2.263066692 3.250459231
H -5.407604846 -1.679291061 1.048996515
H 4.870977825 -2.636141847 -0.382957421
H 2.712534082 3.611692814 -1.746552707
H -1.603004461 4.260031221 -1.258537152

