14

C -3.949633009 0.555276255 -0.267912047
C -1.446790195 -0.842407800 -0.178162434
C 0.811242796 0.841663134 -0.613994033
O 0.701715687 2.992930435 -1.296286435
C 3.437574583 -0.414436932 -0.173990316
O 5.512125333 0.723686077 -0.845800935
H -4.041143413 2.001063799 1.197562644
H -5.519966771 -0.749393987 0.007877399
H -4.191757778 1.500436855 -2.081162146
H -1.368457267 -2.326100340 -1.623159789
H -1.187322332 -1.829012021 1.625121381
H 3.259422296 -0.323106355 2.539540653
H 3.323915096 -2.501269353 -0.276192582
H 4.730438648 0.419364715 1.693205096

