11

C -2.275722112 -0.112126730 0.046171962
N -1.052824420 2.348491950 -0.063517248
C 1.314458098 2.215282378 0.326290544
C 2.666538980 -0.182691182 0.503608346
N 1.675202676 -2.192056415 -0.450792712
N -0.715686489 -1.952702004 -1.217182442
H -1.495279925 -3.589236896 -1.780056870
H -2.569399120 -0.613602369 2.052091488
H -4.105982051 -0.039194394 -0.892565232
H 2.399710596 3.963414650 0.346954850
H 4.625209456 -0.288867164 1.081510387

