11

C -3.415798380 0.056281052 0.102374571
N -0.639593227 0.153852695 0.061979030
C 1.436345111 1.522544213 0.453975691
C 3.429979414 -0.090538120 -0.113147881
N 2.516531140 -2.352972925 -0.821039155
N 0.092761364 -2.105668606 -0.684126097
H -1.993713879 -2.784328047 -0.849187759
H -4.076206128 0.421731956 2.019787753
H -4.160822357 1.463866176 -1.205033771
H 1.375282221 3.455137830 1.081180270
H 5.435236591 0.260091888 -0.046764542

