11

O -2.540095609 3.757339222 0.193811275
C -1.195212619 1.920550657 0.114706357
C -1.920204005 -0.817074396 -0.436470572
C 0.545253393 -2.208729752 -0.266490293
C 2.354688041 -0.554259601 0.285364424
N 1.374921888 1.890146910 0.517876062
H -2.814349332 -0.921515628 -2.294567236
H -3.324955031 -1.435525046 0.944650959
H 0.804366233 -4.210028784 -0.545107412
H 4.351892622 -0.875235139 0.554164189
H 2.363694438 3.454331559 0.932062246

