11

O -3.115217655 3.624455249 0.173314247
C -1.191053048 2.323586834 0.237279833
C -1.858691020 -0.615821247 -0.402430425
C 0.519369267 -1.906859194 -0.266624615
C 2.811238559 -2.082904001 0.060063773
N 1.190424204 2.681653500 0.675950499
H -2.693125555 -0.703179582 -2.280424336
H -3.200915676 -1.297755243 0.999234149
H 1.249275774 -4.106768329 -0.553720595
H 4.786772272 -2.438167051 0.309039442
H 1.501197224 4.531946559 1.062810356

