10

O 3.320075343 -1.033895128 0.840283483
C 1.104085301 -0.461151094 -0.059408208
C -0.476446840 1.855920285 -0.020247036
C -1.513068842 -0.683175886 0.922919695
H 2.453458356 -1.617575478 -1.680737476
H 0.910871481 -1.300397742 -2.538904269
H -1.272948015 2.613648985 -1.743864174
H 0.098263151 3.247644087 1.365195827
H -2.981876350 -1.569917209 -0.188611883
H -1.632847829 -0.996461297 2.941511441

