9

N -2.135028752 -0.346375347 -0.105153394
C -1.022878194 2.230116369 0.351387354
C 1.468665041 1.622253854 0.303899047
C 1.816570007 -1.053291749 -0.137206513
N -0.239268467 -2.326792395 -0.396724870
H -3.292101463 -0.817778697 1.360339476
H -3.226370382 -0.305938590 -1.691392168
H 3.001802227 2.943058144 0.563429951
H 3.595369700 -2.060640155 -0.264373214

