14

C -3.623556930 1.499190826 -0.092434706
C -1.275287458 0.020238060 -0.740936839
C 0.899376069 -0.277883641 1.222741109
C 3.547299678 -0.140535115 0.336563586
N 4.088680135 0.163065242 -1.970471155
C -0.743832240 -2.419079041 0.391409486
O -1.233458446 -4.590558285 0.670866286
H -3.279972841 3.522171801 -0.293325500
H -4.224587008 1.133646324 1.846706604
H -5.176385856 0.975970260 -1.342368540
H -0.519734759 0.255709160 -2.638980593
H 0.548363788 0.395854065 3.129849729
H 4.979148319 -0.374895793 1.812202340
H 5.988587423 0.155301983 -2.246903203

