14

C -3.674817755 1.078183921 0.093101175
C -1.002368222 0.399110063 -0.721660064
C 1.048565260 0.894111463 1.203188945
C 3.445926511 0.127862101 0.383961263
N 3.584443568 -1.077980851 -1.763337349
C -0.425340010 -2.210500671 -0.264195599
O -0.494917666 -4.283820605 0.362572171
H -3.825487640 3.131882129 0.133665507
H -4.094014397 0.364548314 1.980458093
H -5.072028112 0.338395260 -1.226212158
H -0.538044863 0.984815652 -2.646246269
H 0.599956335 1.674965913 3.031080056
H 5.079191553 0.447611282 1.606686083
H 5.325452857 -1.784168990 -2.117330068

