14

O 3.269230788 2.378098592 -2.991245725
C 1.138483305 1.878264047 -2.861788468
C 3.066547494 -2.133924604 1.640980228
N 0.723224739 -2.355226065 1.318229254
C -0.863247114 -0.182740447 1.828628898
C -2.599590103 0.378876879 -0.397359345
C -1.264730616 1.319585567 -2.736529579
H 4.291226896 -3.745452618 1.277612879
H 3.965744493 -0.375403335 2.273999702
H 0.250603214 1.502628786 2.334377208
H -2.045141094 -0.655185206 3.455453508
H -3.999800948 1.778352300 0.198150030
H -3.630161561 -1.349297977 -0.862353462
H -2.301450280 1.575024458 -4.482129202

