14

O 3.755964427 0.910800938 -3.479039331
C 2.149517187 0.697864935 -1.868863416
C 2.714142466 -0.419976135 0.825470336
N 0.806270511 -2.215907764 0.515511221
C -1.532893449 -1.350430112 1.671407577
C -2.378834697 0.824080234 -0.017355925
C -0.512510751 0.875534037 -2.143303012
H 4.608265964 -1.209989370 0.756080084
H 2.476912579 0.953056971 2.352709781
H -1.189181407 -0.799981974 3.639825979
H -2.902823890 -2.886352489 1.657394464
H -2.624075038 2.685927683 0.863482498
H -4.214839309 0.334898624 -0.814261255
H -1.155916501 1.600476291 -3.959057092

