13

C 2.796963190 2.369179311 1.612248170
O 1.610299333 -0.731257378 -1.144887643
C -0.697997745 -1.366673385 -1.838975130
C -2.648702214 -1.809582953 0.519797139
C -1.903370155 0.086969788 2.262938512
N -0.740513333 1.614689394 3.307532966
H 2.556911980 3.210237960 -0.224847513
H 2.760542555 3.599839412 3.234765188
H 3.990383744 0.723208619 1.695290749
H -1.674669641 0.021380172 -3.068173717
H -0.798947444 -3.236342240 -2.764284553
H -2.362177725 -3.669561255 1.354996540
H -4.588266633 -1.593115052 -0.131083763

