10

N 2.918329887 -0.162936193 -0.677703863
C 0.268726085 -0.124706277 -0.218891040
C -1.326305566 -2.390331450 -0.308756739
O -3.588054721 -2.449113384 -0.034048348
N -1.839073112 3.972170148 1.041290420
C -0.841110616 2.065369592 0.316857107
H 3.896434687 -1.057621678 0.693385415
H 3.368785623 -0.900193300 -2.377304434
H -0.229409633 -4.145006143 -0.677038566
H -2.645895196 5.168032813 -0.219526725

