9

C 1.740969473 2.416552629 -1.887167908
C 3.439626069 0.129868045 -1.689924607
O 1.962513178 -1.931501336 -0.827816223
H 3.021804997 -3.391791337 -0.681912548
H 4.994860843 0.513289829 -0.371604816
H 4.275268140 -0.295179907 -3.540673372
H 0.928159433 2.871554838 -0.048094928
H 2.803459199 4.052121758 -2.558423572
H 0.198014876 2.052275812 -3.205079631

