14

C 2.743114518 -0.426556313 -0.466059998
C 0.048020757 0.114991460 0.295028483
C -1.366124382 2.134499779 -1.236201648
C -1.217862649 3.748035911 1.154205373
C -1.415164815 -2.229759664 1.001233857
O -0.009038522 1.953773592 2.397109936
H 3.765268135 1.319812372 -0.855876709
H 2.761447224 -1.588784499 -2.170829046
H 3.730898647 -1.447447574 1.028997128
H -0.373349902 2.946508160 -2.849924466
H -3.297931986 1.680250588 -1.796381005
H -3.322506022 -1.752368036 1.618219421
H -0.465809666 -3.246086235 2.524217847
H -1.549578635 -3.482349999 -0.632780632

