16

C -2.462106253 -2.619969778 1.162466877
C -1.575040729 0.018687861 0.525467186
N 1.054536908 2.931774362 -1.560641488
C -0.105839516 0.392881375 -1.952607064
C 2.522682463 -0.672459930 -1.243694072
C 2.305944710 1.609891171 0.525192836
O 0.338217550 0.903182998 2.253770373
H -0.922156529 -3.985303631 1.074365483
H -3.247408608 -2.664137062 3.067383244
H -3.939834023 -3.207568268 -0.154290469
H -3.188217000 1.318848593 0.598536848
H -0.180425873 4.274388018 -0.954834523
H -1.057661816 -0.000079312 -3.732358063
H 3.890623269 -0.395900401 -2.747362282
H 2.663264594 -2.532930297 -0.384406388
H 3.850225044 2.503927820 1.541539173

