14

C 3.130095299 -0.838458726 -2.341621246
O 1.930450308 0.276430234 -0.214701479
C 0.337393082 -1.343658788 1.029325071
C -1.174355163 0.220290269 2.914495084
C -2.806791353 0.413704890 0.641841151
O -2.631667315 2.507379234 -0.871885411
H 1.787150468 -1.048470925 -3.899769430
H 3.880646686 -2.690981793 -1.838693560
H 4.650736330 0.426432744 -2.908449832
H -1.694842109 -1.570974492 -0.446267612
H -0.303328916 1.983337091 3.502319151
H -1.929020126 -0.849471955 4.491609693
H -4.705117678 -0.362116520 0.678624367
H -0.857806063 2.939154045 -0.983841517

