15

C 3.856664682 0.689550764 -1.295049779
C 1.163488728 -0.330297085 -1.380752506
C 0.121035503 -0.732552937 1.233459976
C -2.513200630 -0.258678657 1.912554489
O -0.579909119 1.461710641 2.614944392
N -4.262302483 0.571098819 0.053994748
H 4.611253772 0.962608611 -3.194160302
H 5.117802362 -0.602641541 -0.292777820
H 3.904924225 2.504609028 -0.317809623
H -0.061518919 0.977271317 -2.399343290
H 1.121049504 -2.139006852 -2.386796774
H 1.147403039 -2.118533257 2.363124099
H -3.283158636 -1.257176058 3.542334461
H -5.925084991 1.109591830 0.814147664
H -4.579234385 -0.753495808 -1.281309486

