15

C 4.019788052 0.599225672 -0.707246462
C 1.453933435 -0.181829882 -1.821551968
C -0.351786729 -1.207157124 0.014071430
C -2.266672762 0.391912663 1.320089463
O -1.297403074 2.632390306 1.334835657
N -4.889319507 0.105643325 0.637148356
H 5.289869976 1.197937169 -2.215065683
H 4.911118537 -0.963256428 0.304145354
H 3.728249232 2.161679484 0.599597192
H 0.590182860 1.449323524 -2.742205919
H 1.778700765 -1.716103455 -3.183766846
H 0.109817635 -3.037834126 0.846256907
H -1.824337613 -0.577858237 3.222459934
H -5.991903156 0.950057919 1.949666801
H -5.421023092 -1.720071974 0.428129812

