9

O 4.101188024 -0.931642652 2.173125044
C 2.215672096 -0.278624508 1.097762863
N 0.858983570 2.015068635 0.957230280
C -1.584983032 1.525063822 0.570361674
C -1.963107629 -1.054456406 0.400715574
O 0.105068017 -2.301512659 0.610362565
H 2.287628671 0.521543208 -1.122040647
H -2.930845732 3.000483557 0.165282231
H -3.674166177 -2.067977489 -0.084417770

