13

C -3.390915979 -0.129361259 2.088776457
N -0.956291143 -0.139500830 1.705215760
C 0.472699816 -1.053475166 -0.207058482
C 3.283823120 -0.936207814 0.121933539
O 4.060497364 1.424758010 1.147530860
H 3.733183099 2.710711819 -0.092010841
H 4.189037423 -1.333985356 -1.692485601
H 3.980552651 -2.334607716 1.477404211
C -0.744665609 -2.249859717 -2.224988899
N -1.813797628 -3.214130002 -3.869391704
H 0.122109246 0.764836224 3.014231125
H -4.618458731 -1.034857773 0.734562245
H -4.102851323 0.814704094 3.745173789

