15

C -3.354040808 0.694254519 1.600707575
N -0.978872558 -0.197430951 1.766599205
C 0.336055609 -0.678688505 -0.401582978
C 3.175950580 -0.806478248 -0.161810785
O 4.094318076 1.225870742 1.304743526
C -0.830288967 -2.277493277 -2.236430492
N -1.760229203 -3.543761147 -3.741681537
H -4.641067698 -0.303789915 0.361349801
H -4.148818647 1.506185364 3.301730467
H -2.475229022 2.532300621 -0.717272234
H 0.125346970 0.561211961 3.131521267
H -1.086646511 2.037366420 -1.567945318
H 3.996867961 -0.840130321 -2.058211139
H 3.785668541 -2.523287667 0.812035952
H 3.801066748 2.761344593 0.379665802

