9

C -0.466959999 1.543295087 1.514737471
H -1.419880967 3.337574339 1.608144365
C 0.847674259 -0.190720137 3.234362374
H 1.331574368 -0.291167244 5.207326531
C -0.991513559 -1.239029849 1.346704479
H -2.704389325 -2.326998167 1.554226775
O 0.861868842 -1.756176383 -0.592963063
C 1.984336737 0.374732502 0.697974672
H 3.772908449 1.182246263 0.141151770

