12

O -2.309019710 0.763583676 -3.024709260
C 0.026700923 1.652978496 -0.124665327
C -0.372623303 0.174578417 2.096979853
C -0.319529614 -2.234083981 0.474478634
O 2.410750754 -2.206676527 0.303827936
C 2.299809922 0.283420633 0.992139361
H -1.368278443 0.874314446 -4.581195033
H -0.220668214 3.640894771 -0.512505781
H -1.222483351 0.653283764 3.896013901
H -1.175705146 -3.962580468 1.167471269
H -1.759042606 -0.923074369 -2.195840630
H 3.998194851 1.316962382 1.473198229

