12

C -3.067222844 -0.557998368 -0.502009751
N -0.436794320 -0.169353816 0.221787348
C 1.623115286 -2.083105900 -0.441500343
C 3.656288177 -0.481359693 -0.177779122
N 3.115963152 2.029802867 0.277812398
C 0.696565635 2.180070960 0.500111446
H -3.316548623 -0.032770289 -2.474643188
H -3.500597270 -2.555737685 -0.284930070
H -4.305564134 0.573410558 0.692833124
H 0.163100145 -1.645075925 1.715088143
H 5.606182955 -1.058719949 -0.355924379
H -0.386403242 3.861614612 0.915193606

