12

C -2.146152965 -2.260307899 0.084712605
C -0.851730065 -0.058454445 1.319414037
C -1.790403801 2.504171991 0.545825621
H -1.572405279 2.777454092 -1.491645622
H -0.779389459 4.014906663 1.513970110
H -3.805932320 2.700616751 0.961075306
C 1.001228339 -0.357380091 2.982732641
H 1.662539943 -2.218592403 3.525921773
H 1.920064978 1.250010292 3.859318028
H -1.938019153 -2.171192592 -1.970093777
H -4.174904785 -2.230096489 0.480468328
H -1.383909501 -4.058310819 0.738430458

