16

C -2.098935682 -2.303127884 0.024778807
C -0.788441493 0.080215718 0.627755094
C -2.047040382 2.522482757 0.341030559
C 1.743703850 0.007246589 1.610051930
C 3.042184105 -0.244846542 -1.251749105
O 1.649680602 1.064958502 -2.851029672
H -3.543478501 -2.039938583 -1.414190340
H -3.015722025 -2.964872462 1.762972197
H -0.753320536 -3.758419900 -0.546766705
H -0.790078638 3.491928719 -1.020479867
H -2.005731649 3.589064081 2.107322135
H -3.955267700 2.394687760 -0.413127447
H 2.213205739 -1.653415627 2.727325913
H 2.346095853 1.762490581 2.492312618
H 2.950671945 -2.331751679 -1.476995010
H 5.068593856 0.270556889 -1.120761661

