12

C -2.812708105 -0.346042377 -0.002510558
C -0.278576036 -0.906182391 -1.103834799
C 1.939959297 1.953989191 0.533256940
O 2.073430710 -0.854222009 1.318661964
H -2.840632512 -0.795491286 2.007560658
H -4.210698636 -1.572233635 -0.919180739
H -3.314054146 1.630033252 -0.243680392
H 0.019045945 -2.949425557 -1.299712414
H 0.160229066 0.048173994 -2.855295143
H 2.223201842 3.039638531 2.271592040
H 3.553434088 2.280198193 -0.721213862
H 3.708617642 -1.597987314 0.987801873

