14

N -4.293145912 0.320311828 0.724766283
C -1.774471237 0.068767606 -0.149364652
C 0.046369873 -2.166146683 -0.072214353
C 1.992580062 -0.618925349 0.461926506
N 4.552079304 -0.824652670 0.713593674
C 0.360969116 1.728714070 0.466844594
N -0.835509978 1.849718960 -2.085884988
H -5.502739252 -0.628865497 -0.412766566
H -4.465373567 -0.403773321 2.485575367
H -0.071832345 -4.073813640 -0.797545853
H 5.558333899 0.755080494 0.405459316
H 5.357058565 -2.405876205 0.032626821
H 0.377143565 3.336936953 1.725116806
H -2.037790097 3.358747473 -2.045838762

