13

O -5.292387186 -1.577155654 2.484700518
C -3.546381271 -0.877313574 1.127367974
C -1.224669103 0.131147598 1.861809881
N 0.418078019 1.113168779 -0.092722606
C 1.302935663 -0.542661237 -2.159277075
C 3.093860348 0.324122027 -0.219141504
H -3.741774001 -1.085119461 -0.979578975
H -0.742081711 0.736264265 3.749382341
H 0.163472818 2.928740123 -0.670291526
H 1.337877341 0.322925074 -4.010177812
H 0.544823481 -2.431762921 -2.029611910
H 3.589103368 -0.953278939 1.294091253
H 4.424227351 1.808309901 -0.671471565

