13

O -5.615215732 0.680674588 1.207802654
C -3.695005944 -0.519666067 1.132390563
C -1.095760887 0.631577500 1.408568292
N 0.802333644 -1.011276618 0.331551315
C 1.433454435 -0.561039750 -2.300255273
C 3.211982668 0.140478253 -0.257747966
H -3.706359532 -2.600471131 0.880604040
H -0.735986702 0.827358645 3.438880818
H -1.127740061 2.545319285 0.597781752
H 0.460609990 0.968996263 -3.264163014
H 1.766291066 -2.231211049 -3.434977249
H 4.861932273 -1.011766907 0.116514107
H 3.439464781 2.141026969 0.143050019

