15

C 4.211295203 -1.348747632 0.293059313
C 1.605413787 -0.366218624 -0.237463212
C -0.669555402 -1.875066933 -0.499514840
C -2.622131398 -0.011685121 -0.210558387
N -5.193048063 -0.545594357 -0.578913252
C -1.603939970 2.287592672 0.410378443
N 0.961960019 2.095290778 0.464552507
H 4.457531506 -1.642219227 2.318830771
H 4.448891452 -3.164157725 -0.644067475
H 5.679940421 -0.056972200 -0.366151331
H 1.036120053 -0.745988549 -2.394416774
H -6.354630095 0.242086729 0.708497744
H -5.469098575 -2.429879846 -0.661517489
H -2.517030878 4.087065401 0.736761546
H 2.161033311 3.546944807 0.691564928

