14

C 4.242334730 1.508906683 0.131108783
C 2.699445763 -0.826552828 -0.432991643
O 0.950305757 -1.191304023 1.545592673
C -0.494909993 -3.386596405 1.256859397
H 0.683763950 -5.080917270 1.196175245
C -3.038601185 -3.429762927 2.372167818
H -4.119344607 -3.473959029 4.094332079
C -2.968109090 -3.295627484 -0.067022860
H -3.965695738 -3.150587715 -1.833189752
H 3.933345951 -2.490175810 -0.603583626
H 1.692168222 -0.622749191 -2.238800473
H 5.247112182 1.295626467 1.918315961
H 3.021517909 3.163969509 0.271124185
H 5.625006026 1.840491786 -1.363078200

