19

C 5.089499065 1.327280702 0.045071820
C 3.052599010 -0.606355741 -0.474120795
O 1.208220870 -0.441724370 1.444565288
C -0.835058126 -2.096282147 1.064908066
C -3.084913648 -1.853449525 2.564782481
C -3.224134439 -1.186396990 -0.147180223
C -3.173598230 2.259607548 -1.022730834
H 5.934241678 0.998921910 1.896027586
H 4.307105376 3.235288528 0.029050268
H 6.571818038 1.213957681 -1.384614388
H 3.861689955 -2.518741534 -0.518916507
H 2.190869629 -0.278969931 -2.340408571
H -0.190756835 -3.901417403 0.282603288
H -4.022038622 0.795790354 0.736156475
H -4.212427848 -3.405228348 3.262477795
H -4.262632089 -1.976347145 -1.719806052
H -1.147120752 2.513543672 -1.136590650
H -4.155715259 2.270208023 -2.818760765
H -3.948549006 3.709897761 0.246575282

