15

C -3.223190388 -1.254275177 0.059864010
C -0.204447334 1.176802056 0.034253403
O -1.476414316 3.343795828 -0.333702447
C 1.551688778 0.578418295 2.029049906
C 3.520411975 -0.618208425 0.302284899
C 1.661391178 -0.039369817 -1.828649137
O 1.647949405 -0.151147987 -4.073593015
H -4.724847987 -0.345118566 1.132016020
H -3.611122703 -1.233524680 -1.961618998
H -2.959244744 -3.221510384 0.649508809
H -2.339574484 3.269929835 -1.937369276
H 1.633234505 1.317439500 3.923276489
H -0.838363503 -0.767898129 1.461443150
H 5.308486896 0.396288702 0.049627685
H 3.942186033 -2.627730298 0.542278379

