9

C -1.281959325 0.616358742 2.166777757
C -3.604936590 -0.897990957 2.036363146
H -4.350451876 -0.653329042 3.970172688
H -3.237263198 -2.920524218 1.879712806
H -5.081129033 -0.289378826 0.706518029
C -1.633211601 3.228669668 1.292834963
H -1.963468813 4.219382589 3.098784086
H -3.242502974 3.624861692 0.039244774
H 0.107448297 4.063725734 0.568731464

