9

C 4.288416249 -0.241911816 -1.351517857
C 2.199927049 -2.101181659 -1.928714519
O -0.064476095 -0.720134205 -2.303292479
H -1.405648476 -1.880456451 -2.665072949
H 1.985464922 -3.439259576 -0.357954852
H 2.674920709 -3.197684963 -3.624690823
H 4.524788711 1.083801566 -2.912489235
H 6.074919731 -1.229477851 -1.055376457
H 3.843342604 0.835954952 0.348635157

