18

C 4.105137098 -0.194027800 -0.898367787
C 1.862251585 -1.889504894 -1.153888069
C -0.894920435 0.336879568 0.691090002
C -3.037431482 -1.194398789 1.716304786
C -1.342298261 3.123198838 0.863327181
O -0.824178122 -0.234085496 -2.211114171
H 3.876436641 1.482395696 -2.076979710
H 5.787400585 -1.186621036 -1.589538916
H 4.371999610 0.408239746 1.047436017
H 1.554552866 -3.197864525 0.387386372
H 1.923634047 -2.918076607 -2.956118797
H -3.336137127 -0.739355743 3.706370587
H -2.701747355 -3.235733124 1.605485407
H -4.841730950 -0.800059774 0.719632747
H -1.514980168 3.676589543 2.845640041
H -3.091668228 3.698057550 -0.125185909
H 0.211890455 4.209542123 0.044807561
H -2.274034246 -1.243753692 -2.707623515

