14

O 2.349252149 3.340675210 2.733871773
C 1.340718299 2.644499085 0.843992127
C 1.595772555 2.076297424 -1.857363847
C -0.917882970 1.605685227 -0.369263426
C -1.923631137 -1.018772651 0.180139674
C 0.062862665 -2.926488552 1.019161783
H 1.046897464 -2.291522452 2.718261539
H 1.605069176 3.607019824 -3.217413930
H 2.740438987 0.457644160 -2.377801224
H -2.366651141 2.996237550 -0.801065014
H -3.361449555 -0.840738983 1.653379023
H -2.894017918 -1.718813814 -1.506267265
H -0.818386622 -4.740537042 1.443255802
H 1.475101958 -3.264315478 -0.447066210

