14

O 2.456409031 1.737959196 2.977314910
C 1.213471871 1.123982567 0.933949119
C 1.361998618 1.735044388 -1.794231857
C -1.200074317 1.645490834 -0.471331918
C -2.151114516 -1.044394333 -0.370865820
C 0.215288674 -2.202244477 0.888640724
H 1.689116900 -0.666900847 2.505316164
H 2.122825562 3.618259348 -2.062405235
H 1.834485424 0.389634674 -3.267002422
H -2.392181341 3.299899606 -0.335197957
H -3.798083947 -1.226470824 0.850011566
H -2.592419045 -1.891316934 -2.201058428
H -0.224717084 -3.213327435 2.640199089
H 1.456033129 -3.336951221 -0.290272818

