14

C 3.659710056 -0.101181852 -0.042093895
N 1.353286659 0.478914029 0.080392767
C -0.446877729 1.609827941 2.019337791
H 0.424497664 2.776257574 3.475555357
C -1.838134409 2.697972174 -0.321702648
H -0.946377319 4.366101832 -1.157825502
H -3.866634972 2.913016336 -0.100730283
C -0.968311389 0.140052006 -1.459307873
H -0.675417597 -0.181761682 -3.467151008
C -2.334462586 -1.894338587 0.218836805
C -1.938533177 -0.783232746 2.503104976
H -2.485375811 -1.438555883 4.361218591
H 4.379616246 -1.010596902 -1.728863075
H 4.887082185 0.283889795 1.549487852

