16

C 3.319872216 -0.845770530 -0.585016047
N 1.421823813 0.649969883 -0.236214915
C -0.417460664 1.280877816 1.895653288
C -1.860808950 2.836676370 -0.083345936
C -1.019644760 0.641066080 -1.792068348
C -2.248948699 -1.766857682 -0.661889935
C -1.884035158 -1.182234225 1.815787321
H 3.875500301 -1.229730110 -2.512620220
H 4.631835668 -1.234162539 0.937708691
H 1.676129606 -3.895419677 -0.953987227
H 0.372958105 2.050820099 3.629145436
H -0.926614903 4.616317955 -0.556200464
H -3.877491070 3.051994808 0.230254360
H -0.786400173 0.845275214 -3.824899709
H 0.036310388 -3.742757547 -0.984438954
H -2.086249138 -2.422566096 3.433677136

