12

C -3.540939011 -0.276891799 -1.772038914
N -1.596548817 -0.615577945 -0.439609237
C 0.713021219 0.498803699 -1.231719520
N 2.984470528 -1.073131662 -1.045935291
C 2.563366547 0.843879065 0.851684409
O 1.886687369 0.199246940 3.279863672
H 0.244999231 -0.594767997 3.187309384
H -3.526055339 0.815805143 -3.529043714
H -5.325027083 -1.095946364 -1.166847905
H 0.635907165 1.752895875 -2.861831346
H 2.538804416 -2.809220540 -0.362870162
H 3.884351060 2.407201867 0.829220535

