12

C -2.934235409 -0.106807812 -0.664117923
N -0.997129126 -1.507293480 -1.513629770
C 1.113388744 -0.284233083 -2.037577049
N 3.407185330 -1.110626361 -0.852598394
C 2.253056699 0.718022493 0.870474730
O 0.648289029 0.291704115 2.603790019
H -1.588172417 0.129511038 1.511862177
H -3.108956350 1.892295661 -1.205393821
H -4.702805447 -1.091542092 -0.324699470
H 1.184270594 1.411250493 -3.195433014
H 3.093835196 -2.882804963 -0.169653508
H 3.094310462 2.592820291 0.715156043

