12

O 4.928654156 1.717526986 0.397524262
C 2.818131108 1.094168075 0.925227277
C 1.449307915 -1.068310536 -0.345985969
C -1.367442730 -1.141471056 0.195940807
C -2.769168456 1.142036689 -0.754719027
O -1.767762067 2.931191892 -1.724881705
H 1.830226019 -0.943405309 -2.368644348
H 2.339180343 -2.810102286 0.324703457
H -2.253514145 -2.814508636 -0.637140854
H -1.753377849 -1.287984830 2.228611259
H 1.772543830 2.071036332 2.463539138
H -4.848747824 1.095747961 -0.496117377

