12

O -4.040005438 0.576963470 -2.150512128
C -3.321902614 0.485345466 0.403716270
C -0.573986396 0.713003229 0.756960073
N 1.298718947 1.962217871 0.647741424
N 3.576236903 1.685473470 -0.057386882
C 3.147803506 -2.234998911 -1.023736395
N 0.995903715 -2.651015994 -0.798453885
H -3.217087272 -0.806059712 -2.994970640
H -3.963272863 -1.257031003 1.309723861
H -4.213642489 2.080492654 1.362132278
H 4.734697183 2.996960843 0.723713686
H 5.083167122 -2.570776277 -1.488667659

