14

O 4.184683211 2.620462279 0.329507481
N 3.724503700 0.269614728 -0.645569429
C 1.402951950 -0.250180142 -0.772698430
C 0.043363904 -2.663498089 -1.316375622
C -1.568101428 -1.268605292 0.616007480
C -1.175876091 1.348295798 -0.192762439
O -1.805682917 2.970952542 1.521490161
H 5.984285178 2.795014618 0.165516878
H 0.950500550 -4.396985286 -0.713605352
H -0.755537770 -2.794440935 -3.206228490
H -1.075444479 -1.653626615 2.569932098
H -4.446375262 -0.216148650 1.845118818
H -1.787965866 1.691785855 -2.163366877
H -3.902914633 1.402281154 2.168127569

