10

C 5.104370378 0.649252184 -0.595041327
C 2.892031400 0.269266357 -0.317553641
C 0.248196024 -0.104128974 -0.003266448
C -1.712336456 1.685975627 -0.067402506
N -3.877598199 0.499932867 0.310672317
N -3.193169462 -1.873016921 0.580487677
N -0.774192088 -2.366010751 0.416026098
H 7.074773144 0.967980592 -0.842865416
H -1.626405828 3.697923719 -0.362081484
H -4.465798378 -3.248022977 0.898614283

