18

C -2.413357517 1.999289082 -0.432172560
C -0.829898002 -0.328478261 0.080030903
C -1.034443167 -2.397780562 -1.878789486
C -0.425310341 -0.969688848 2.575575746
C 2.868154786 0.938413503 -1.112983492
O 4.158936032 1.936172210 0.595083960
H -2.290030797 2.584940889 -2.407046323
H -1.812130077 3.586787830 0.739922188
H -4.407902649 1.629432451 -0.030111841
H -0.453502504 -1.743201410 -3.751432524
H 0.115783482 -4.036587831 -1.386524164
H -2.996844266 -3.029059995 -2.041929013
H 2.104185322 0.219609117 3.716538996
H -1.340460918 0.087523327 4.072769189
H 0.115934112 -2.885157918 3.066446639
H 3.409729941 -0.929295404 -1.838796361
H 1.812974482 2.151594809 -2.414272258
H 3.253843957 1.001741343 2.921883177

