10

O -3.685889547 0.682211049 -0.107238821
C -1.423953743 -0.198015330 -1.131322547
C 0.775294025 1.313257574 -0.101868502
O 0.578634120 3.024371320 1.368317900
C 3.228920057 0.486610279 -1.078294224
C 5.215316690 -0.222966423 -1.898563202
H 6.998166500 -0.832229829 -2.608301967
H -1.047966142 -2.191432598 -0.677787238
H -1.350044078 -0.027054132 -3.201937716
H -5.050596237 -0.298223727 -0.780240780

