12

O -4.138464951 -0.053009199 -0.008597876
C -1.809161242 -0.683814614 -0.460400590
C 0.172081447 1.315785876 -0.298701355
O -0.017242976 2.846495331 1.620406571
C 2.680596614 0.161021352 -0.830559860
C 4.720809397 -0.738346025 -1.215237479
H -5.307184610 -1.329448426 -0.567663996
H -1.482096477 -2.409389433 -1.547482569
H -0.763661552 -1.266703755 3.106320919
H -0.451208716 2.192375250 -2.158459919
H -0.474976501 0.236752504 3.296837154
H 6.549297699 -1.515222904 -1.532219837

