11

O 4.391432855 0.185334927 1.255973833
C 2.231647349 0.292801384 0.557969550
N 0.910005892 -2.077860851 -0.657354914
C -1.290914605 -1.070468358 0.051972722
C -1.402196438 1.568033794 -0.960447482
O 1.156077184 2.235890295 -0.949272096
H 1.436352368 -3.715152126 0.170063484
H -2.938580570 -2.139206029 0.656503328
H 0.450416581 0.406831522 2.387858063
H -2.565559820 2.820617478 0.195958042
H -2.115712198 1.532716722 -2.904323652

