17

C 4.092259711 0.060458858 0.092197111
C 1.294715127 -0.291652771 0.029250258
C 0.074780696 -2.349586026 0.767319608
C -2.722339474 -2.463123247 0.534567559
C -3.051165199 1.503484813 -0.219038457
C -0.300047067 1.889200459 -0.924371874
O 0.407935500 4.206013967 0.250136131
H 4.573688039 1.722497665 1.213403651
H 4.822831459 0.391251221 -1.812325324
H 5.042568510 -1.587133313 0.882081334
H 1.048628453 -3.993772571 1.509120581
H -3.775313825 -2.347280239 2.289184596
H -3.358960275 -4.132826499 -0.521725132
H -3.402514985 -1.033214543 -0.985049978
H -4.326217102 1.683364744 -1.861452250
H 0.093884164 2.193654935 -2.940063891
H -0.588678714 4.286204117 1.775851134

