12

C 1.787690155 -0.446801100 -1.072701031
C 0.449839326 2.048788284 -0.341172950
C -3.632690203 -0.284982321 -0.102882246
O -2.442906957 -2.342490067 -0.912122934
C -0.128943365 -1.918920069 0.508593330
C -1.352937495 0.544083936 1.444232431
H 3.680385436 -0.583750592 -0.272419271
H 1.856937713 -0.954458355 -3.066416460
H 1.652179860 3.386135841 0.653944903
H -0.518661167 3.037235593 -1.867945916
H 0.413306442 -3.571787524 1.603121398
H -1.598300706 1.168556085 3.381653089

