11

C -3.497711167 -0.381234879 -0.319018292
C -0.684733266 -0.738778696 -0.634860824
C 0.907967105 0.936691206 0.890183081
N 3.324826284 0.680373498 0.742395254
C 5.490850192 0.097011283 0.653209063
O 0.204497601 -2.309756420 -2.045674866
H -4.046427087 -0.759904001 1.634907215
H -4.027082149 1.567915441 -0.745548224
H -4.499798311 -1.661858016 -1.574945449
H 0.157599247 2.359301032 2.149607063
H 6.935960288 0.812277912 -0.605374388

