10

O 3.867985918 1.556632189 -0.456410471
C 3.265628346 -0.689162539 0.658760322
C 1.469863675 -2.183911771 -0.230617981
C 0.764229112 -4.653785819 0.948744503
H 1.914760649 -5.047228480 2.615608952
H -1.217676171 -4.670967908 1.531499852
H 1.019241001 -6.218006940 -0.376212705
H 0.456012211 -1.581293322 -1.910056233
H 4.353154298 -1.182518081 2.332428428
H 5.215123560 2.344906743 0.455301523

