16

O 5.116521600 0.564431997 0.239875560
C 2.870811249 -0.486243974 0.907179712
C 0.657628414 -0.059132233 -0.677497297
C -0.934267443 -2.273704602 0.159769579
C -3.497636769 0.903911601 -0.672150922
C -1.151400396 2.334167032 -0.412467233
H 6.222601185 0.662773930 1.672312850
H 1.285598200 -3.268323719 0.703737410
H 2.525036212 -0.564556492 2.937988424
H 1.122018235 -0.280949570 -2.672798584
H -1.755361098 -2.200256938 2.035579458
H -1.729969396 -3.581448069 -1.195854955
H -4.182285791 0.475114451 -2.553506448
H -4.909633175 0.904401985 0.805017433
H -0.932731531 3.204719034 1.442351266
H -0.742256019 3.735274345 -1.863046215

