8

O 2.294500585 -2.446669666 1.342865084
C 2.241345291 -0.475875708 0.216827969
C -0.130363229 0.753463739 -0.650660351
C -2.519553512 0.019726397 0.494599700
N -2.231608988 -1.010609884 -1.582085042
H 4.004900998 0.559911054 -0.234134232
H 0.050600289 2.540248639 -1.641533880
H -3.827472004 0.115941633 2.057490152

