8

O 2.400272581 -2.719834245 -0.122622665
C 2.271467658 -0.427125801 -0.063808549
C 0.044718479 1.053441207 -0.167163359
C -2.385000136 -0.125511225 0.390344720
N -2.336889750 -2.383695696 -0.169496528
H 3.990147471 0.722239020 0.272250481
H 0.036125479 2.936813997 -0.972196949
H -4.075018341 0.977874896 0.836224748

