11

C 0.681553046 2.480844116 0.153311118
C 0.453689020 -0.215434428 0.910656676
O 1.661644118 -0.692353473 3.093001808
C -0.787704896 -2.017220976 -0.375139549
C -2.057963453 -1.504704650 -2.682690714
N -3.093018740 -1.114795267 -4.554712656
H -0.056056741 3.680986841 1.659127079
H -0.338116904 2.861311369 -1.588888113
H 2.673106005 2.952557135 -0.102333092
H 1.493719672 -2.444900731 3.543413608
H -0.861875815 -3.946314669 0.309445280

