11

C -2.605008476 0.561649300 -0.311593350
C -0.761931186 -1.320824661 0.735213822
O -1.374518847 -3.153839651 1.921490909
C 2.065650764 -0.915215187 0.194955769
C 2.790170097 1.674914607 -0.391733744
N 3.324100894 3.725650934 -0.845107160
H -4.523637093 -0.104507524 -0.004961060
H -2.260662355 0.872688431 -2.323088872
H -2.337615329 2.385109910 0.619866735
H 2.550253076 -2.122666333 -1.411395492
H 3.133198456 -1.602959807 1.816352424

