11

C 0.913840336 2.622814496 0.276203542
C 0.449918581 0.017160830 1.155356594
O 0.731468404 -0.656561853 3.432468694
C -0.446671219 -2.162069145 -0.221823838
C -2.084045453 -1.878031403 -2.344507935
N -3.450716078 -1.603033318 -4.014045023
H 1.413281080 3.865819725 1.832724388
H -0.803339243 3.300782279 -0.651122446
H 2.389898136 2.614567580 -1.164679501
H -0.402343479 -2.538746817 2.554624239
H 1.057682358 -3.542723347 -0.490005379

