13

C 2.038635768 -0.877560145 -0.530029609
C 0.738801222 0.355846503 1.746662008
C -0.325165136 2.405617691 -0.049615156
C -0.377602070 -0.020137337 -1.806669335
C -1.987511685 -1.382750532 0.190230263
N -2.165735081 2.097993842 1.717501777
H 2.335230929 -2.920269199 -0.423248744
H 3.764388883 0.116400345 -1.065754568
H 1.498137587 0.681430327 3.611704398
H 0.759006192 4.131569472 -0.320746125
H -0.758182045 -0.138565642 -3.821541571
H -1.389906358 -3.332683860 0.543451294
H -4.020397716 -1.214185904 0.238570667

