13

O 5.334966646 0.520564953 1.463123797
C 3.362127192 -0.856218410 0.274881641
C 0.922222518 0.476314616 0.748854943
C -0.641679182 1.235462462 -1.051558020
C -3.115600324 2.528778210 -0.618913028
H -3.147790335 4.376033987 -1.542517994
H -4.675508863 1.433586584 -1.415604328
H -3.480101168 2.804610534 1.390888373
H -0.115652108 0.906893797 -3.013476860
H 0.461640798 0.807824395 2.724514001
H 3.262860559 -2.776548271 1.058273237
H 3.688360250 -1.022058847 -1.766435951
H 6.838056336 -0.488396712 1.441543559

