15

C 1.945011442 1.044329156 2.322208638
C -0.689633704 -0.491189595 -3.685909086
C -0.638614935 -0.504873348 -1.171248945
N 0.168383668 1.570293340 0.296479736
O 1.232406265 3.488631562 -1.208156184
C -1.607161935 -2.691949541 0.357789519
H 2.283936903 2.789910203 3.355355774
H 1.127209293 -0.326951891 3.618258516
H 3.749771946 0.321153588 1.603236180
H 0.035411389 1.075457764 -4.771339767
H -1.484002927 -2.086331851 -4.684661468
H -0.028585490 4.794261672 -1.205390211
H -2.884999521 -2.047330039 1.844848493
H -2.631002510 -3.991860773 -0.862816729
H -0.070103435 -3.739982900 1.251825525

