15

C 3.520660663 1.675257006 0.447305260
C 1.370038987 -1.773069136 -1.319192618
C -0.787633011 -0.774055064 -0.194287996
N -0.320793142 1.378535819 0.966823381
O -2.382024252 3.039709112 0.937655874
C -3.357844713 -1.951876212 -0.172764677
H 3.188311430 3.688249323 0.268914471
H 3.874004337 1.088876501 2.373213309
H 4.977768044 1.053174662 -0.849403566
H 2.163684483 -0.712123901 -2.866492469
H 1.634513056 -3.808103370 -1.438670325
H -2.173620039 4.015976909 2.453869013
H -4.450367025 -1.382416580 1.477429817
H -4.413037281 -1.401631107 -1.858186879
H -3.163125387 -4.004155085 -0.213128150

