16

C 5.505712245 -2.070806617 0.712571691
O 4.443404065 0.036468880 -0.526622546
C 2.320274994 0.997617923 0.663488776
C -4.342631981 0.578856390 0.181112807
C -5.680335714 0.906165553 -2.305129916
C -1.965952593 -0.061532676 0.381342764
N 0.210637094 -0.779969416 0.549042068
H 7.194747055 -2.596178845 -0.337276032
H 4.192728852 -3.665809203 0.748687570
H 6.036305767 -1.592669304 2.660085810
H 2.697589958 1.362604389 2.673424877
H 1.857451095 2.770452770 -0.286519330
H -5.377576927 0.861317080 1.926329042
H -7.264705038 -0.406954089 -2.468520758
H -6.433674769 2.818135852 -2.498002451
H -4.404223542 0.560856843 -3.883905254

