16

C 5.666355671 -0.347491514 1.231548688
O 4.051586455 -0.067611925 -0.922386357
C 1.683178851 -0.600912858 -0.598595808
C -3.422648656 0.256695408 0.362290205
C -4.754852133 1.876032016 -1.558581120
C -2.724175626 -2.169829872 -0.157259871
N -1.553115068 -3.997971882 -0.650318311
H 7.547015702 0.208019105 0.626826634
H 5.665861526 -2.314828255 1.843982658
H 5.017528146 0.881567763 2.754009281
H 1.017768469 -1.069710483 1.260917961
H 0.524600936 -0.367152035 -2.242906262
H -3.705957436 0.708692348 2.342386755
H -6.813652829 1.697404936 -1.440388899
H -4.298460899 3.867510085 -1.273108074
H -4.205384820 1.368079927 -3.480961598

