10

O -3.461321070 0.243023825 -1.702895384
C -1.822368972 0.000398978 0.328817486
C 0.003133034 -2.114875843 0.816133577
O 0.350315879 -4.327189158 1.066925877
C 1.018467441 0.348839512 0.222529708
C 2.921696113 1.747202149 -0.578139598
H -2.918507464 -0.847413892 -3.047311216
H -2.668561988 0.775557907 2.037561969
H 2.607598252 3.580312702 -1.440123600
H 4.855707496 1.095826442 -0.399818616

