14

C -2.583988769 -1.950179049 0.589553128
C -1.423056179 0.467154584 -0.422849105
C -1.275570728 2.772434356 1.359834390
N 1.450756163 2.826622177 1.248347182
C 1.405696002 0.863674173 -0.206805996
O -2.740781103 4.031747090 2.494500184
C 3.571846729 -0.525956361 -1.282929435
H -1.816314195 -2.430836275 2.443330463
H -4.623260657 -1.729008659 0.787450841
H -2.237321176 -3.532410318 -0.688180542
H -2.176741602 0.945793752 -2.286552416
H 3.480968307 -2.510705757 -0.719404317
H 5.349631336 0.292472156 -0.652116650
H 3.474879515 -0.482925672 -3.345465571

