15

C -3.331066803 -0.634593994 -1.937455618
N -2.659798780 0.828774503 0.268492609
C -0.488472944 0.634602290 1.240427737
N 0.219868690 2.060668029 3.298092537
C 1.671112270 -1.029954916 0.290112985
O 2.325368203 -2.836685366 1.510929106
C 2.958937531 -0.212378250 -2.103644464
H -3.393702814 0.581973115 -3.608325851
H -5.231495977 -1.389345657 -1.675309011
H -2.080654849 -2.239254650 -2.338300204
H -1.233015853 2.946536846 4.154838199
H 1.457897362 1.237687256 4.485590859
H 3.861383385 1.615437574 -1.764691054
H 4.372552639 -1.600607438 -2.652392679
H 1.590522726 0.069411511 -3.618700391

