15

C -4.271280798 -1.153381169 -0.901999954
N -2.637822116 0.512096297 0.505759497
C -0.251905689 1.018706681 0.097746632
N 0.200790638 3.220410318 1.210566549
C 1.610527745 -0.550283277 -1.381343763
O 0.967880645 -1.567610534 -3.312521994
C 4.237516778 -0.743054617 -0.318474089
H -5.843797175 -1.718345728 0.301945713
H -3.271233708 -2.843821652 -1.530855379
H -5.039386608 -0.220563939 -2.579626091
H -2.238721520 2.726563182 1.706991045
H 1.923376138 3.657576933 1.904203354
H 4.168793222 -1.315680070 1.663276596
H 5.328610004 -2.094331723 -1.416781646
H 5.156085360 1.103993932 -0.399217947

