17

C 2.109811188 0.565492228 -2.588403018
C 0.258266734 -3.244558674 2.089819832
O -0.146999282 -0.741174623 2.807874223
C -1.471122100 0.330885526 0.735699614
C -1.449013495 3.173543126 0.925822295
C -0.124825576 -0.886447962 -1.538808084
O 0.724162402 -3.239771960 -0.532421718
H 1.500308958 2.304629460 -3.517092822
H 3.444004395 1.038542626 -1.088948821
H 3.091569641 -0.598666011 -3.976020767
H -1.420803380 -4.406775787 2.496199558
H 1.900768172 -3.980709215 3.095899306
H -3.432437721 -0.359875607 0.773208429
H -2.403174974 4.009687277 -0.700650184
H -2.435707837 3.774627646 2.631091894
H 0.478753629 3.894302395 1.003167538
H -1.485854084 -1.277938498 -3.046656142

