29

C    -2.06408   2.23943   0.68893
C    -1.28823   1.81617  -0.52669
O    -1.80376   1.65204  -1.63218
C     0.14094   1.71840  -0.34164
C    -0.24618  -1.13926   0.24171
C    -1.64631  -1.32781   0.26832
C    -2.26030  -1.53273   1.52128
C    -3.62328  -1.80057   1.56819
C    -4.36677  -1.85800   0.38315
C    -3.75929  -1.62076  -0.85567
C    -2.39743  -1.34398  -0.92424
N     0.92028  -0.96101   0.34484
N     2.09104  -0.49051   0.58585
C     3.18824  -1.04236  -0.00206
C     3.06088  -2.39111  -0.66064
O     4.25671  -0.43432   0.06457
C     1.32147   1.87681  -0.19270
Cl    2.89522   2.46833  -0.11475
H    -2.05243   1.43989   1.43325
H    -1.55417   3.12084   1.15867
H    -3.06836   2.50030   0.39400
H    -1.64760  -1.46425   2.42469
H    -4.08673  -1.98919   2.52886
H    -5.42242  -2.09770   0.43071
H    -4.34613  -1.66645  -1.77137
H    -1.91000  -1.12073  -1.88027
H     2.65978  -3.08877   0.09963
H     4.04578  -2.70461  -0.97910
H     2.35800  -2.34311  -1.48283
29

C    -2.06062   2.24117   0.68874
C    -1.28393   1.81505  -0.52577
O    -1.79963   1.65435  -1.63158
C     0.14121   1.69750  -0.33620
C    -0.24724  -1.11771   0.23814
C    -1.64514  -1.32172   0.26757
C    -2.25860  -1.52996   1.52045
C    -3.62102  -1.80116   1.56782
C    -4.36531  -1.85891   0.38324
C    -3.75841  -1.62121  -0.85571
C    -2.39714  -1.34124  -0.92446
N     0.91996  -0.96801   0.34671
N     2.08430  -0.48045   0.57566
C     3.18753  -1.03677  -0.00356
C     3.06072  -2.38829  -0.65685
O     4.25524  -0.42923   0.06386
C     1.32665   1.84749  -0.18603
Cl    2.88602   2.46634  -0.11552
H    -2.05261   1.44048   1.43323
H    -1.55282   3.12101   1.15888
H    -3.06697   2.50162   0.39329
H    -1.64720  -1.46290   2.42449
H    -4.08582  -1.98977   2.52881
H    -5.42193  -2.09825   0.43088
H    -4.34587  -1.66698  -1.77137
H    -1.91025  -1.11954  -1.88043
H     2.65967  -3.08739   0.10119
H     4.04597  -2.70375  -0.97738
H     2.35813  -2.34300  -1.48188
29

C    -2.05717   2.24291   0.68855
C    -1.27964   1.81393  -0.52485
O    -1.79550   1.65666  -1.63099
C     0.14148   1.67660  -0.33075
C    -0.24830  -1.09616   0.23456
C    -1.64396  -1.31563   0.26682
C    -2.25689  -1.52718   1.51961
C    -3.61875  -1.80174   1.56745
C    -4.36385  -1.85982   0.38333
C    -3.75752  -1.62165  -0.85575
C    -2.39686  -1.33850  -0.92468
N     0.91964  -0.97500   0.34857
N     2.07757  -0.47040   0.56548
C     3.18681  -1.03119  -0.00506
C     3.06055  -2.38546  -0.65305
O     4.25376  -0.42414   0.06315
C     1.33182   1.81816  -0.17937
Cl    2.87683   2.46436  -0.11630
H    -2.05279   1.44107   1.43322
H    -1.55148   3.12118   1.15909
H    -3.06558   2.50293   0.39257
H    -1.64680  -1.46154   2.42428
H    -4.08491  -1.99035   2.52875
H    -5.42144  -2.09879   0.43105
H    -4.34560  -1.66751  -1.77137
H    -1.91051  -1.11835  -1.88058
H     2.65957  -3.08602   0.10276
H     4.04615  -2.70289  -0.97566
H     2.35827  -2.34289  -1.48094
29

C    -2.05372   2.24465   0.68837
C    -1.27534   1.81281  -0.52393
O    -1.79137   1.65897  -1.63039
C     0.14175   1.65570  -0.32531
C    -0.24936  -1.07460   0.23098
C    -1.64278  -1.30955   0.26606
C    -2.25519  -1.52441   1.51878
C    -3.61649  -1.80233   1.56709
C    -4.36239  -1.86074   0.38343
C    -3.75663  -1.62209  -0.85579
C    -2.39658  -1.33577  -0.92490
N     0.91932  -0.98200   0.35043
N     2.07083  -0.46035   0.55530
C     3.18610  -1.02560  -0.00656
C     3.06038  -2.38263  -0.64926
O     4.25229  -0.41904   0.06244
C     1.33700   1.78883  -0.17270
Cl    2.86763   2.46238  -0.11708
H    -2.05297   1.44166   1.43320
H    -1.55013   3.12135   1.15930
H    -3.06419   2.50425   0.39186
H    -1.64640  -1.46018   2.42408
H    -4.08400  -1.99093   2.52870
H    -5.42096  -2.09934   0.43122
H    -4.34534  -1.66804  -1.77136
H    -1.91076  -1.11716  -1.88073
H     2.65947  -3.08464   0.10432
H     4.04633  -2.70204  -0.97394
H     2.35841  -2.34278  -1.47999
29

C    -2.05026   2.24639   0.68818
C    -1.27104   1.81168  -0.52301
O    -1.78725   1.66128  -1.62979
C     0.14203   1.63480  -0.31987
C    -0.25043  -1.05305   0.22740
C    -1.64161  -1.30346   0.26531
C    -2.25348  -1.52163   1.51795
C    -3.61423  -1.80291   1.56672
C    -4.36093  -1.86165   0.38352
C    -3.75574  -1.62254  -0.85582
C    -2.39629  -1.33303  -0.92513
N     0.91900  -0.98899   0.35229
N     2.06410  -0.45029   0.54512
C     3.18539  -1.02001  -0.00806
C     3.06021  -2.37980  -0.64546
O     4.25082  -0.41395   0.06172
C     1.34218   1.75950  -0.16603
Cl    2.85844   2.46040  -0.11785
H    -2.05314   1.44224   1.43319
H    -1.54878   3.12152   1.15952
H    -3.06280   2.50556   0.39114
H    -1.64601  -1.45882   2.42388
H    -4.08309  -1.99151   2.52864
H    -5.42047  -2.09989   0.43139
H    -4.34508  -1.66857  -1.77136
H    -1.91101  -1.11598  -1.88089
H     2.65936  -3.08326   0.10588
H     4.04651  -2.70118  -0.97222
H     2.35854  -2.34267  -1.47904
29

C    -2.04681   2.24813   0.68799
C    -1.26675   1.81056  -0.52209
O    -1.78312   1.66360  -1.62919
C     0.14230   1.61390  -0.31442
C    -0.25149  -1.03149   0.22382
C    -1.64043  -1.29737   0.26456
C    -2.25177  -1.51886   1.51712
C    -3.61197  -1.80350   1.56635
C    -4.35947  -1.86256   0.38362
C    -3.75485  -1.62298  -0.85586
C    -2.39601  -1.33029  -0.92535
N     0.91869  -0.99599   0.35416
N     2.05737  -0.44024   0.53494
C     3.18467  -1.01442  -0.00956
C     3.06005  -2.37698  -0.64167
O     4.24934  -0.40886   0.06101
C     1.34735   1.73017  -0.15937
Cl    2.84924   2.45842  -0.11863
H    -2.05332   1.44283   1.43317
H    -1.54744   3.12170   1.15973
H    -3.06141   2.50687   0.39043
H    -1.64561  -1.45746   2.42368
H    -4.08218  -1.99209   2.52859
H    -5.41998  -2.10043   0.43156
H    -4.34482  -1.66910  -1.77136
H    -1.91127  -1.11479  -1.88104
H     2.65926  -3.08188   0.10744
H     4.04669  -2.70032  -0.97050
H     2.35868  -2.34256  -1.47810
29

C    -2.04336   2.24987   0.68780
C    -1.26245   1.80944  -0.52117
O    -1.77899   1.66591  -1.62860
C     0.14257   1.59301  -0.30898
C    -0.25255  -1.00994   0.22024
C    -1.63926  -1.29129   0.26381
C    -2.25007  -1.51608   1.51628
C    -3.60971  -1.80408   1.56598
C    -4.35801  -1.86348   0.38371
C    -3.75397  -1.62342  -0.85590
C    -2.39573  -1.32755  -0.92557
N     0.91837  -1.00299   0.35602
N     2.05063  -0.43019   0.52476
C     3.18396  -1.00883  -0.01105
C     3.05988  -2.37415  -0.63787
O     4.24787  -0.40376   0.06030
C     1.35253   1.70084  -0.15270
Cl    2.84005   2.45644  -0.11941
H    -2.05350   1.44342   1.43316
H    -1.54609   3.12187   1.15994
H    -3.06002   2.50819   0.38971
H    -1.64521  -1.45610   2.42348
H    -4.08127  -1.99267   2.52853
H    -5.41949  -2.10098   0.43173
H    -4.34455  -1.66962  -1.77136
H    -1.91152  -1.11360  -1.88120
H     2.65916  -3.08050   0.10900
H     4.04687  -2.69946  -0.96878
H     2.35881  -2.34245  -1.47715
29

C    -2.03990   2.25161   0.68762
C    -1.25815   1.80831  -0.52025
O    -1.77487   1.66822  -1.62800
C     0.14285   1.57211  -0.30353
C    -0.25361  -0.98838   0.21667
C    -1.63808  -1.28520   0.26306
C    -2.24836  -1.51331   1.51545
C    -3.60745  -1.80467   1.56562
C    -4.35655  -1.86439   0.38381
C    -3.75308  -1.62387  -0.85594
C    -2.39544  -1.32481  -0.92579
N     0.91805  -1.00998   0.35788
N     2.04390  -0.42013   0.51458
C     3.18325  -1.00325  -0.01255
C     3.05971  -2.37132  -0.63408
O     4.24639  -0.39867   0.05959
C     1.35771   1.67151  -0.14604
Cl    2.83085   2.45446  -0.12018
H    -2.05368   1.44401   1.43314
H    -1.54475   3.12204   1.16015
H    -3.05863   2.50950   0.38899
H    -1.64482  -1.45474   2.42328
H    -4.08036  -1.99325   2.52848
H    -5.41900  -2.10153   0.43190
H    -4.34429  -1.67015  -1.77135
H    -1.91178  -1.11241  -1.88135
H     2.65905  -3.07912   0.11056
H     4.04705  -2.69860  -0.96706
H     2.35895  -2.34235  -1.47620
29

C    -2.03645   2.25336   0.68743
C    -1.25386   1.80719  -0.51932
O    -1.77074   1.67053  -1.62740
C     0.14312   1.55121  -0.29809
C    -0.25468  -0.96683   0.21309
C    -1.63691  -1.27912   0.26231
C    -2.24666  -1.51053   1.51462
C    -3.60519  -1.80525   1.56525
C    -4.35509  -1.86530   0.38390
C    -3.75219  -1.62431  -0.85598
C    -2.39516  -1.32208  -0.92602
N     0.91773  -1.01698   0.35974
N     2.03716  -0.41008   0.50439
C     3.18253  -0.99766  -0.01405
C     3.05954  -2.36850  -0.63028
O     4.24492  -0.39358   0.05888
C     1.36289   1.64218  -0.13937
Cl    2.82166   2.45248  -0.12096
H    -2.05386   1.44460   1.43313
H    -1.54340   3.12221   1.16036
H    -3.05724   2.51082   0.38828
H    -1.64442  -1.45338   2.42308
H    -4.07945  -1.99383   2.52842
H    -5.41851  -2.10207   0.43208
H    -4.34403  -1.67068  -1.77135
H    -1.91203  -1.11122  -1.88150
H     2.65895  -3.07774   0.11213
H     4.04723  -2.69774  -0.96534
H     2.35908  -2.34224  -1.47525
29

C    -2.03299   2.25510   0.68724
C    -1.24956   1.80607  -0.51840
O    -1.76661   1.67284  -1.62680
C     0.14339   1.53031  -0.29265
C    -0.25574  -0.94528   0.20951
C    -1.63573  -1.27303   0.26156
C    -2.24495  -1.50776   1.51379
C    -3.60293  -1.80584   1.56488
C    -4.35363  -1.86621   0.38400
C    -3.75130  -1.62475  -0.85602
C    -2.39488  -1.31934  -0.92624
N     0.91741  -1.02397   0.36161
N     2.03043  -0.40003   0.49421
C     3.18182  -0.99207  -0.01555
C     3.05937  -2.36567  -0.62649
O     4.24344  -0.38848   0.05817
C     1.36806   1.61285  -0.13270
Cl    2.81246   2.45049  -0.12174
H    -2.05404   1.44519   1.43311
H    -1.54206   3.12238   1.16057
H    -3.05585   2.51213   0.38756
H    -1.64402  -1.45202   2.42288
H    -4.07854  -1.99441   2.52837
H    -5.41802  -2.10262   0.43225
H    -4.34377  -1.67121  -1.77135
H    -1.91229  -1.11004  -1.88166
H     2.65885  -3.07636   0.11369
H     4.04741  -2.69688  -0.96362
H     2.35922  -2.34213  -1.47431
29

C    -2.02954   2.25684   0.68705
C    -1.24526   1.80494  -0.51748
O    -1.76248   1.67515  -1.62621
C     0.14367   1.50941  -0.28720
C    -0.25680  -0.92372   0.20593
C    -1.63455  -1.26694   0.26081
C    -2.24325  -1.50498   1.51295
C    -3.60067  -1.80642   1.56451
C    -4.35217  -1.86713   0.38409
C    -3.75042  -1.62520  -0.85606
C    -2.39459  -1.31660  -0.92646
N     0.91709  -1.03097   0.36347
N     2.02369  -0.38997   0.48403
C     3.18110  -0.98648  -0.01705
C     3.05921  -2.36284  -0.62269
O     4.24197  -0.38339   0.05746
C     1.37324   1.58352  -0.12604
Cl    2.80326   2.44851  -0.12252
H    -2.05422   1.44578   1.43310
H    -1.54071   3.12256   1.16078
H    -3.05446   2.51344   0.38685
H    -1.64363  -1.45066   2.42268
H    -4.07763  -1.99499   2.52831
H    -5.41754  -2.10317   0.43242
H    -4.34350  -1.67174  -1.77135
H    -1.91254  -1.10885  -1.88181
H     2.65874  -3.07499   0.11525
H     4.04760  -2.69602  -0.96190
H     2.35936  -2.34202  -1.47336
29

C    -2.02609   2.25858   0.68687
C    -1.24097   1.80382  -0.51656
O    -1.75836   1.67747  -1.62561
C     0.14394   1.48851  -0.28176
C    -0.25786  -0.90217   0.20235
C    -1.63338  -1.26086   0.26006
C    -2.24154  -1.50221   1.51212
C    -3.59840  -1.80701   1.56415
C    -4.35071  -1.86804   0.38419
C    -3.74953  -1.62564  -0.85610
C    -2.39431  -1.31386  -0.92668
N     0.91677  -1.03796   0.36533
N     2.01696  -0.37992   0.47385
C     3.18039  -0.98090  -0.01855
C     3.05904  -2.36001  -0.61890
O     4.24049  -0.37830   0.05674
C     1.37842   1.55419  -0.11937
Cl    2.79407   2.44653  -0.12329
H    -2.05439   1.44637   1.43308
H    -1.53936   3.12273   1.16100
H    -3.05307   2.51476   0.38613
H    -1.64323  -1.44930   2.42248
H    -4.07672  -1.99557   2.52825
H    -5.41705  -2.10372   0.43259
H    -4.34324  -1.67227  -1.77134
H    -1.91280  -1.10766  -1.88197
H     2.65864  -3.07361   0.11681
H     4.04778  -2.69516  -0.96018
H     2.35949  -2.34191  -1.47241
29

C    -2.02263   2.26032   0.68668
C    -1.23667   1.80270  -0.51564
O    -1.75423   1.67978  -1.62501
C     0.14421   1.46761  -0.27631
C    -0.25893  -0.88061   0.19877
C    -1.63220  -1.25477   0.25931
C    -2.23983  -1.49943   1.51129
C    -3.59614  -1.80759   1.56378
C    -4.34925  -1.86895   0.38428
C    -3.74864  -1.62608  -0.85613
C    -2.39403  -1.31112  -0.92690
N     0.91645  -1.04496   0.36720
N     2.01023  -0.36987   0.46367
C     3.17968  -0.97531  -0.02005
C     3.05887  -2.35719  -0.61510
O     4.23902  -0.37321   0.05603
C     1.38359   1.52486  -0.11271
Cl    2.78487   2.44455  -0.12407
H    -2.05457   1.44696   1.43307
H    -1.53802   3.12290   1.16121
H    -3.05167   2.51607   0.38542
H    -1.64283  -1.44794   2.42228
H    -4.07581  -1.99615   2.52820
H    -5.41656  -2.10426   0.43276
H    -4.34298  -1.67280  -1.77134
H    -1.91305  -1.10647  -1.88212
H     2.65854  -3.07223   0.11837
H     4.04796  -2.69431  -0.95846
H     2.35963  -2.34180  -1.47146
29

C    -2.01918   2.26206   0.68649
C    -1.23238   1.80157  -0.51472
O    -1.75010   1.68209  -1.62441
C     0.14448   1.44671  -0.27087
C    -0.25999  -0.85906   0.19520
C    -1.63103  -1.24868   0.25856
C    -2.23813  -1.49665   1.51045
C    -3.59388  -1.80818   1.56341
C    -4.34779  -1.86987   0.38438
C    -3.74775  -1.62653  -0.85617
C    -2.39374  -1.30838  -0.92713
N     0.91613  -1.05196   0.36906
N     2.00349  -0.35981   0.45349
C     3.17896  -0.96972  -0.02155
C     3.05870  -2.35436  -0.61131
O     4.23754  -0.36811   0.05532
C     1.38877   1.49553  -0.10604
Cl    2.77568   2.44257  -0.12485
H    -2.05475   1.44755   1.43305
H    -1.53667   3.12307   1.16142
H    -3.05028   2.51739   0.38470
H    -1.64243  -1.44658   2.42208
H    -4.07490  -1.99673   2.52814
H    -5.41607  -2.10481   0.43293
H    -4.34272  -1.67333  -1.77134
H    -1.91331  -1.10529  -1.88228
H     2.65843  -3.07085   0.11994
H     4.04814  -2.69345  -0.95674
H     2.35976  -2.34169  -1.47052
29

C    -2.01573   2.26380   0.68631
C    -1.22808   1.80045  -0.51380
O    -1.74598   1.68440  -1.62381
C     0.14476   1.42581  -0.26542
C    -0.26105  -0.83751   0.19162
C    -1.62985  -1.24260   0.25780
C    -2.23642  -1.49388   1.50962
C    -3.59162  -1.80876   1.56304
C    -4.34634  -1.87078   0.38447
C    -3.74687  -1.62697  -0.85621
C    -2.39346  -1.30565  -0.92735
N     0.91581  -1.05895   0.37092
N     1.99676  -0.34976   0.44330
C     3.17825  -0.96413  -0.02305
C     3.05853  -2.35153  -0.60751
O     4.23607  -0.36302   0.05461
C     1.39395   1.46620  -0.09937
Cl    2.76648   2.44059  -0.12562
H    -2.05493   1.44813   1.43304
H    -1.53533   3.12324   1.16163
H    -3.04889   2.51870   0.38398
H    -1.64204  -1.44522   2.42188
H    -4.07399  -1.99731   2.52809
H    -5.41558  -2.10536   0.43310
H    -4.34245  -1.67386  -1.77134
H    -1.91356  -1.10410  -1.88243
H     2.65833  -3.06947   0.12150
H     4.04832  -2.69259  -0.95502
H     2.35990  -2.34158  -1.46957
29

C    -2.01227   2.26554   0.68612
C    -1.22378   1.79933  -0.51288
O    -1.74185   1.68671  -1.62322
C     0.14503   1.40491  -0.25998
C    -0.26211  -0.81595   0.18804
C    -1.62867  -1.23651   0.25705
C    -2.23472  -1.49110   1.50879
C    -3.58936  -1.80935   1.56268
C    -4.34488  -1.87169   0.38457
C    -3.74598  -1.62741  -0.85625
C    -2.39317  -1.30291  -0.92757
N     0.91549  -1.06595   0.37278
N     1.99002  -0.33971   0.43312
C     3.17754  -0.95854  -0.02454
C     3.05837  -2.34870  -0.60372
O     4.23459  -0.35793   0.05390
C     1.39912   1.43687  -0.09271
Cl    2.75729   2.43861  -0.12640
H    -2.05511   1.44872   1.43302
H    -1.53398   3.12342   1.16184
H    -3.04750   2.52002   0.38327
H    -1.64164  -1.44386   2.42168
H    -4.07308  -1.99790   2.52803
H    -5.41509  -2.10590   0.43327
H    -4.34219  -1.67439  -1.77133
H    -1.91381  -1.10291  -1.88258
H     2.65823  -3.06809   0.12306
H     4.04850  -2.69173  -0.95330
H     2.36003  -2.34148  -1.46862
29

C    -2.00882   2.26728   0.68593
C    -1.21949   1.79820  -0.51196
O    -1.73772   1.68903  -1.62262
C     0.14530   1.38401  -0.25454
C    -0.26318  -0.79440   0.18446
C    -1.62750  -1.23043   0.25630
C    -2.23301  -1.48833   1.50796
C    -3.58710  -1.80993   1.56231
C    -4.34342  -1.87260   0.38466
C    -3.74509  -1.62786  -0.85629
C    -2.39289  -1.30017  -0.92779
N     0.91517  -1.07294   0.37465
N     1.98329  -0.32965   0.42294
C     3.17682  -0.95296  -0.02604
C     3.05820  -2.34588  -0.59992
O     4.23312  -0.35283   0.05319
C     1.40430   1.40754  -0.08604
Cl    2.74809   2.43663  -0.12718
H    -2.05529   1.44931   1.43301
H    -1.53264   3.12359   1.16205
H    -3.04611   2.52133   0.38255
H    -1.64124  -1.44251   2.42148
H    -4.07217  -1.99848   2.52798
H    -5.41461  -2.10645   0.43344
H    -4.34193  -1.67492  -1.77133
H    -1.91407  -1.10172  -1.88274
H     2.65812  -3.06671   0.12462
H     4.04868  -2.69087  -0.95158
H     2.36017  -2.34137  -1.46768
29

C    -2.00536   2.26902   0.68574
C    -1.21519   1.79708  -0.51104
O    -1.73359   1.69134  -1.62202
C     0.14558   1.36311  -0.24909
C    -0.26424  -0.77284   0.18088
C    -1.62632  -1.22434   0.25555
C    -2.23131  -1.48555   1.50712
C    -3.58484  -1.81052   1.56194
C    -4.34196  -1.87352   0.38476
C    -3.74420  -1.62830  -0.85633
C    -2.39261  -1.29743  -0.92802
N     0.91485  -1.07994   0.37651
N     1.97656  -0.31960   0.41276
C     3.17611  -0.94737  -0.02754
C     3.05803  -2.34305  -0.59613
O     4.23165  -0.34774   0.05248
C     1.40948   1.37821  -0.07938
Cl    2.73890   2.43464  -0.12795
H    -2.05546   1.44990   1.43299
H    -1.53129   3.12376   1.16227
H    -3.04472   2.52264   0.38184
H    -1.64085  -1.44115   2.42128
H    -4.07126  -1.99906   2.52792
H    -5.41412  -2.10700   0.43361
H    -4.34167  -1.67545  -1.77133
H    -1.91432  -1.10054  -1.88289
H     2.65802  -3.06533   0.12618
H     4.04886  -2.69001  -0.94986
H     2.36031  -2.34126  -1.46673
29

C    -2.00191   2.27076   0.68556
C    -1.21089   1.79596  -0.51012
O    -1.72947   1.69365  -1.62142
C     0.14585   1.34222  -0.24365
C    -0.26530  -0.75129   0.17730
C    -1.62515  -1.21825   0.25480
C    -2.22960  -1.48278   1.50629
C    -3.58258  -1.81110   1.56157
C    -4.34050  -1.87443   0.38485
C    -3.74331  -1.62874  -0.85637
C    -2.39232  -1.29469  -0.92824
N     0.91453  -1.08693   0.37837
N     1.96982  -0.30955   0.40258
C     3.17539  -0.94178  -0.02904
C     3.05786  -2.34022  -0.59233
O     4.23017  -0.34265   0.05176
C     1.41465   1.34888  -0.07271
Cl    2.72970   2.43266  -0.12873
H    -2.05564   1.45049   1.43298
H    -1.52995   3.12393   1.16248
H    -3.04333   2.52396   0.38112
H    -1.64045  -1.43979   2.42108
H    -4.07035  -1.99964   2.52787
H    -5.41363  -2.10754   0.43378
H    -4.34140  -1.67597  -1.77133
H    -1.91458  -1.09935  -1.88305
H     2.65792  -3.06395   0.12774
H     4.04904  -2.68915  -0.94814
H     2.36044  -2.34115  -1.46578
29

C    -1.99846   2.27250   0.68537
C    -1.20660   1.79483  -0.50920
O    -1.72534   1.69596  -1.62083
C     0.14612   1.32132  -0.23820
C    -0.26636  -0.72973   0.17373
C    -1.62397  -1.21217   0.25405
C    -2.22789  -1.48000   1.50546
C    -3.58031  -1.81169   1.56120
C    -4.33904  -1.87534   0.38495
C    -3.74243  -1.62919  -0.85641
C    -2.39204  -1.29196  -0.92846
N     0.91421  -1.09393   0.38023
N     1.96309  -0.29949   0.39240
C     3.17468  -0.93619  -0.03054
C     3.05769  -2.33740  -0.58854
O     4.22870  -0.33755   0.05105
C     1.41983   1.31955  -0.06604
Cl    2.72051   2.43068  -0.12951
H    -2.05582   1.45108   1.43296
H    -1.52860   3.12410   1.16269
H    -3.04194   2.52527   0.38041
H    -1.64005  -1.43843   2.42088
H    -4.06944  -2.00022   2.52781
H    -5.41314  -2.10809   0.43395
H    -4.34114  -1.67650  -1.77132
H    -1.91483  -1.09816  -1.88320
H     2.65781  -3.06258   0.12931
H     4.04923  -2.68829  -0.94642
H     2.36058  -2.34104  -1.46483
29

C    -1.99500   2.27425   0.68518
C    -1.20230   1.79371  -0.50828
O    -1.72121   1.69827  -1.62023
C     0.14640   1.30042  -0.23276
C    -0.26743  -0.70818   0.17015
C    -1.62279  -1.20608   0.25330
C    -2.22619  -1.47723   1.50463
C    -3.57805  -1.81227   1.56084
C    -4.33758  -1.87626   0.38504
C    -3.74154  -1.62963  -0.85645
C    -2.39176  -1.28922  -0.92868
N     0.91389  -1.10093   0.38210
N     1.95635  -0.28944   0.38222
C     3.17397  -0.93060  -0.03204
C     3.05753  -2.33457  -0.58474
O     4.22722  -0.33246   0.05034
C     1.42501   1.29022  -0.05938
Cl    2.71131   2.42870  -0.13028
H    -2.05600   1.45167   1.43295
H    -1.52725   3.12428   1.16290
H    -3.04055   2.52659   0.37969
H    -1.63965  -1.43707   2.42068
H    -4.06853  -2.00080   2.52776
H    -5.41265  -2.10864   0.43412
H    -4.34088  -1.67703  -1.77132
H    -1.91509  -1.09697  -1.88335
H     2.65771  -3.06120   0.13087
H     4.04941  -2.68743  -0.94470
H     2.36071  -2.34093  -1.46389
29

C    -1.99846   2.27250   0.68537
C    -1.20660   1.79483  -0.50920
O    -1.72534   1.69596  -1.62083
C     0.14612   1.32132  -0.23820
C    -0.26636  -0.72973   0.17373
C    -1.62397  -1.21217   0.25405
C    -2.22789  -1.48000   1.50546
C    -3.58031  -1.81169   1.56120
C    -4.33904  -1.87534   0.38495
C    -3.74243  -1.62919  -0.85641
C    -2.39204  -1.29196  -0.92846
N     0.91421  -1.09393   0.38023
N     1.96309  -0.29949   0.39240
C     3.17468  -0.93619  -0.03054
C     3.05769  -2.33740  -0.58854
O     4.22870  -0.33755   0.05105
C     1.41983   1.31955  -0.06604
Cl    2.72051   2.43068  -0.12951
H    -2.05582   1.45108   1.43296
H    -1.52860   3.12410   1.16269
H    -3.04194   2.52527   0.38041
H    -1.64005  -1.43843   2.42088
H    -4.06944  -2.00022   2.52781
H    -5.41314  -2.10809   0.43395
H    -4.34114  -1.67650  -1.77132
H    -1.91483  -1.09816  -1.88320
H     2.65781  -3.06258   0.12931
H     4.04923  -2.68829  -0.94642
H     2.36058  -2.34104  -1.46483
29

C    -2.00191   2.27076   0.68556
C    -1.21089   1.79596  -0.51012
O    -1.72947   1.69365  -1.62142
C     0.14585   1.34222  -0.24365
C    -0.26530  -0.75129   0.17730
C    -1.62515  -1.21825   0.25480
C    -2.22960  -1.48278   1.50629
C    -3.58258  -1.81110   1.56157
C    -4.34050  -1.87443   0.38485
C    -3.74331  -1.62874  -0.85637
C    -2.39232  -1.29469  -0.92824
N     0.91453  -1.08693   0.37837
N     1.96982  -0.30955   0.40258
C     3.17539  -0.94178  -0.02904
C     3.05786  -2.34022  -0.59233
O     4.23017  -0.34265   0.05176
C     1.41465   1.34888  -0.07271
Cl    2.72970   2.43266  -0.12873
H    -2.05564   1.45049   1.43298
H    -1.52995   3.12393   1.16248
H    -3.04333   2.52396   0.38112
H    -1.64045  -1.43979   2.42108
H    -4.07035  -1.99964   2.52787
H    -5.41363  -2.10754   0.43378
H    -4.34140  -1.67597  -1.77133
H    -1.91458  -1.09935  -1.88305
H     2.65792  -3.06395   0.12774
H     4.04904  -2.68915  -0.94814
H     2.36044  -2.34115  -1.46578
29

C    -2.00536   2.26902   0.68574
C    -1.21519   1.79708  -0.51104
O    -1.73359   1.69134  -1.62202
C     0.14558   1.36311  -0.24909
C    -0.26424  -0.77284   0.18088
C    -1.62632  -1.22434   0.25555
C    -2.23131  -1.48555   1.50712
C    -3.58484  -1.81052   1.56194
C    -4.34196  -1.87352   0.38476
C    -3.74420  -1.62830  -0.85633
C    -2.39261  -1.29743  -0.92802
N     0.91485  -1.07994   0.37651
N     1.97656  -0.31960   0.41276
C     3.17611  -0.94737  -0.02754
C     3.05803  -2.34305  -0.59613
O     4.23165  -0.34774   0.05248
C     1.40948   1.37821  -0.07938
Cl    2.73890   2.43464  -0.12795
H    -2.05546   1.44990   1.43299
H    -1.53129   3.12376   1.16227
H    -3.04472   2.52264   0.38184
H    -1.64085  -1.44115   2.42128
H    -4.07126  -1.99906   2.52792
H    -5.41412  -2.10700   0.43361
H    -4.34167  -1.67545  -1.77133
H    -1.91432  -1.10054  -1.88289
H     2.65802  -3.06533   0.12618
H     4.04886  -2.69001  -0.94986
H     2.36031  -2.34126  -1.46673
29

C    -2.00882   2.26728   0.68593
C    -1.21949   1.79820  -0.51196
O    -1.73772   1.68903  -1.62262
C     0.14530   1.38401  -0.25454
C    -0.26318  -0.79440   0.18446
C    -1.62750  -1.23043   0.25630
C    -2.23301  -1.48833   1.50796
C    -3.58710  -1.80993   1.56231
C    -4.34342  -1.87260   0.38466
C    -3.74509  -1.62786  -0.85629
C    -2.39289  -1.30017  -0.92779
N     0.91517  -1.07294   0.37465
N     1.98329  -0.32965   0.42294
C     3.17682  -0.95296  -0.02604
C     3.05820  -2.34588  -0.59992
O     4.23312  -0.35283   0.05319
C     1.40430   1.40754  -0.08604
Cl    2.74809   2.43663  -0.12718
H    -2.05529   1.44931   1.43301
H    -1.53264   3.12359   1.16205
H    -3.04611   2.52133   0.38255
H    -1.64124  -1.44251   2.42148
H    -4.07217  -1.99848   2.52798
H    -5.41461  -2.10645   0.43344
H    -4.34193  -1.67492  -1.77133
H    -1.91407  -1.10172  -1.88274
H     2.65812  -3.06671   0.12462
H     4.04868  -2.69087  -0.95158
H     2.36017  -2.34137  -1.46768
29

C    -2.01227   2.26554   0.68612
C    -1.22378   1.79933  -0.51288
O    -1.74185   1.68671  -1.62322
C     0.14503   1.40491  -0.25998
C    -0.26211  -0.81595   0.18804
C    -1.62867  -1.23651   0.25705
C    -2.23472  -1.49110   1.50879
C    -3.58936  -1.80935   1.56268
C    -4.34488  -1.87169   0.38457
C    -3.74598  -1.62741  -0.85625
C    -2.39317  -1.30291  -0.92757
N     0.91549  -1.06595   0.37278
N     1.99002  -0.33971   0.43312
C     3.17754  -0.95854  -0.02454
C     3.05837  -2.34870  -0.60372
O     4.23459  -0.35793   0.05390
C     1.39912   1.43687  -0.09271
Cl    2.75729   2.43861  -0.12640
H    -2.05511   1.44872   1.43302
H    -1.53398   3.12342   1.16184
H    -3.04750   2.52002   0.38327
H    -1.64164  -1.44386   2.42168
H    -4.07308  -1.99790   2.52803
H    -5.41509  -2.10590   0.43327
H    -4.34219  -1.67439  -1.77133
H    -1.91381  -1.10291  -1.88258
H     2.65823  -3.06809   0.12306
H     4.04850  -2.69173  -0.95330
H     2.36003  -2.34148  -1.46862
29

C    -2.01573   2.26380   0.68631
C    -1.22808   1.80045  -0.51380
O    -1.74598   1.68440  -1.62381
C     0.14476   1.42581  -0.26542
C    -0.26105  -0.83751   0.19162
C    -1.62985  -1.24260   0.25780
C    -2.23642  -1.49388   1.50962
C    -3.59162  -1.80876   1.56304
C    -4.34634  -1.87078   0.38447
C    -3.74687  -1.62697  -0.85621
C    -2.39346  -1.30565  -0.92735
N     0.91581  -1.05895   0.37092
N     1.99676  -0.34976   0.44330
C     3.17825  -0.96413  -0.02305
C     3.05853  -2.35153  -0.60751
O     4.23607  -0.36302   0.05461
C     1.39395   1.46620  -0.09937
Cl    2.76648   2.44059  -0.12562
H    -2.05493   1.44813   1.43304
H    -1.53533   3.12324   1.16163
H    -3.04889   2.51870   0.38398
H    -1.64204  -1.44522   2.42188
H    -4.07399  -1.99731   2.52809
H    -5.41558  -2.10536   0.43310
H    -4.34245  -1.67386  -1.77134
H    -1.91356  -1.10410  -1.88243
H     2.65833  -3.06947   0.12150
H     4.04832  -2.69259  -0.95502
H     2.35990  -2.34158  -1.46957
29

C    -2.01918   2.26206   0.68649
C    -1.23238   1.80157  -0.51472
O    -1.75010   1.68209  -1.62441
C     0.14448   1.44671  -0.27087
C    -0.25999  -0.85906   0.19520
C    -1.63103  -1.24868   0.25856
C    -2.23813  -1.49665   1.51045
C    -3.59388  -1.80818   1.56341
C    -4.34779  -1.86987   0.38438
C    -3.74775  -1.62653  -0.85617
C    -2.39374  -1.30838  -0.92713
N     0.91613  -1.05196   0.36906
N     2.00349  -0.35981   0.45349
C     3.17896  -0.96972  -0.02155
C     3.05870  -2.35436  -0.61131
O     4.23754  -0.36811   0.05532
C     1.38877   1.49553  -0.10604
Cl    2.77568   2.44257  -0.12485
H    -2.05475   1.44755   1.43305
H    -1.53667   3.12307   1.16142
H    -3.05028   2.51739   0.38470
H    -1.64243  -1.44658   2.42208
H    -4.07490  -1.99673   2.52814
H    -5.41607  -2.10481   0.43293
H    -4.34272  -1.67333  -1.77134
H    -1.91331  -1.10529  -1.88228
H     2.65843  -3.07085   0.11994
H     4.04814  -2.69345  -0.95674
H     2.35976  -2.34169  -1.47052
29

C    -2.02263   2.26032   0.68668
C    -1.23667   1.80270  -0.51564
O    -1.75423   1.67978  -1.62501
C     0.14421   1.46761  -0.27631
C    -0.25893  -0.88061   0.19877
C    -1.63220  -1.25477   0.25931
C    -2.23983  -1.49943   1.51129
C    -3.59614  -1.80759   1.56378
C    -4.34925  -1.86895   0.38428
C    -3.74864  -1.62608  -0.85613
C    -2.39403  -1.31112  -0.92690
N     0.91645  -1.04496   0.36720
N     2.01023  -0.36987   0.46367
C     3.17968  -0.97531  -0.02005
C     3.05887  -2.35719  -0.61510
O     4.23902  -0.37321   0.05603
C     1.38359   1.52486  -0.11271
Cl    2.78487   2.44455  -0.12407
H    -2.05457   1.44696   1.43307
H    -1.53802   3.12290   1.16121
H    -3.05167   2.51607   0.38542
H    -1.64283  -1.44794   2.42228
H    -4.07581  -1.99615   2.52820
H    -5.41656  -2.10426   0.43276
H    -4.34298  -1.67280  -1.77134
H    -1.91305  -1.10647  -1.88212
H     2.65854  -3.07223   0.11837
H     4.04796  -2.69431  -0.95846
H     2.35963  -2.34180  -1.47146
29

C    -2.02609   2.25858   0.68687
C    -1.24097   1.80382  -0.51656
O    -1.75836   1.67747  -1.62561
C     0.14394   1.48851  -0.28176
C    -0.25786  -0.90217   0.20235
C    -1.63338  -1.26086   0.26006
C    -2.24154  -1.50221   1.51212
C    -3.59840  -1.80701   1.56415
C    -4.35071  -1.86804   0.38419
C    -3.74953  -1.62564  -0.85610
C    -2.39431  -1.31386  -0.92668
N     0.91677  -1.03796   0.36533
N     2.01696  -0.37992   0.47385
C     3.18039  -0.98090  -0.01855
C     3.05904  -2.36001  -0.61890
O     4.24049  -0.37830   0.05674
C     1.37842   1.55419  -0.11937
Cl    2.79407   2.44653  -0.12329
H    -2.05439   1.44637   1.43308
H    -1.53936   3.12273   1.16100
H    -3.05307   2.51476   0.38613
H    -1.64323  -1.44930   2.42248
H    -4.07672  -1.99557   2.52825
H    -5.41705  -2.10372   0.43259
H    -4.34324  -1.67227  -1.77134
H    -1.91280  -1.10766  -1.88197
H     2.65864  -3.07361   0.11681
H     4.04778  -2.69516  -0.96018
H     2.35949  -2.34191  -1.47241
29

C    -2.02954   2.25684   0.68705
C    -1.24526   1.80494  -0.51748
O    -1.76248   1.67515  -1.62621
C     0.14367   1.50941  -0.28720
C    -0.25680  -0.92372   0.20593
C    -1.63455  -1.26694   0.26081
C    -2.24325  -1.50498   1.51295
C    -3.60067  -1.80642   1.56451
C    -4.35217  -1.86713   0.38409
C    -3.75042  -1.62520  -0.85606
C    -2.39459  -1.31660  -0.92646
N     0.91709  -1.03097   0.36347
N     2.02369  -0.38997   0.48403
C     3.18110  -0.98648  -0.01705
C     3.05921  -2.36284  -0.62269
O     4.24197  -0.38339   0.05746
C     1.37324   1.58352  -0.12604
Cl    2.80326   2.44851  -0.12252
H    -2.05422   1.44578   1.43310
H    -1.54071   3.12256   1.16078
H    -3.05446   2.51344   0.38685
H    -1.64363  -1.45066   2.42268
H    -4.07763  -1.99499   2.52831
H    -5.41754  -2.10317   0.43242
H    -4.34350  -1.67174  -1.77135
H    -1.91254  -1.10885  -1.88181
H     2.65874  -3.07499   0.11525
H     4.04760  -2.69602  -0.96190
H     2.35936  -2.34202  -1.47336
29

C    -2.03299   2.25510   0.68724
C    -1.24956   1.80607  -0.51840
O    -1.76661   1.67284  -1.62680
C     0.14339   1.53031  -0.29265
C    -0.25574  -0.94528   0.20951
C    -1.63573  -1.27303   0.26156
C    -2.24495  -1.50776   1.51379
C    -3.60293  -1.80584   1.56488
C    -4.35363  -1.86621   0.38400
C    -3.75130  -1.62475  -0.85602
C    -2.39488  -1.31934  -0.92624
N     0.91741  -1.02397   0.36161
N     2.03043  -0.40003   0.49421
C     3.18182  -0.99207  -0.01555
C     3.05937  -2.36567  -0.62649
O     4.24344  -0.38848   0.05817
C     1.36806   1.61285  -0.13270
Cl    2.81246   2.45049  -0.12174
H    -2.05404   1.44519   1.43311
H    -1.54206   3.12238   1.16057
H    -3.05585   2.51213   0.38756
H    -1.64402  -1.45202   2.42288
H    -4.07854  -1.99441   2.52837
H    -5.41802  -2.10262   0.43225
H    -4.34377  -1.67121  -1.77135
H    -1.91229  -1.11004  -1.88166
H     2.65885  -3.07636   0.11369
H     4.04741  -2.69688  -0.96362
H     2.35922  -2.34213  -1.47431
29

C    -2.03645   2.25336   0.68743
C    -1.25386   1.80719  -0.51932
O    -1.77074   1.67053  -1.62740
C     0.14312   1.55121  -0.29809
C    -0.25468  -0.96683   0.21309
C    -1.63691  -1.27912   0.26231
C    -2.24666  -1.51053   1.51462
C    -3.60519  -1.80525   1.56525
C    -4.35509  -1.86530   0.38390
C    -3.75219  -1.62431  -0.85598
C    -2.39516  -1.32208  -0.92602
N     0.91773  -1.01698   0.35974
N     2.03716  -0.41008   0.50439
C     3.18253  -0.99766  -0.01405
C     3.05954  -2.36850  -0.63028
O     4.24492  -0.39358   0.05888
C     1.36289   1.64218  -0.13937
Cl    2.82166   2.45248  -0.12096
H    -2.05386   1.44460   1.43313
H    -1.54340   3.12221   1.16036
H    -3.05724   2.51082   0.38828
H    -1.64442  -1.45338   2.42308
H    -4.07945  -1.99383   2.52842
H    -5.41851  -2.10207   0.43208
H    -4.34403  -1.67068  -1.77135
H    -1.91203  -1.11122  -1.88150
H     2.65895  -3.07774   0.11213
H     4.04723  -2.69774  -0.96534
H     2.35908  -2.34224  -1.47525
29

C    -2.03990   2.25161   0.68762
C    -1.25815   1.80831  -0.52025
O    -1.77487   1.66822  -1.62800
C     0.14285   1.57211  -0.30353
C    -0.25361  -0.98838   0.21667
C    -1.63808  -1.28520   0.26306
C    -2.24836  -1.51331   1.51545
C    -3.60745  -1.80467   1.56562
C    -4.35655  -1.86439   0.38381
C    -3.75308  -1.62387  -0.85594
C    -2.39544  -1.32481  -0.92579
N     0.91805  -1.00998   0.35788
N     2.04390  -0.42013   0.51458
C     3.18325  -1.00325  -0.01255
C     3.05971  -2.37132  -0.63408
O     4.24639  -0.39867   0.05959
C     1.35771   1.67151  -0.14604
Cl    2.83085   2.45446  -0.12018
H    -2.05368   1.44401   1.43314
H    -1.54475   3.12204   1.16015
H    -3.05863   2.50950   0.38899
H    -1.64482  -1.45474   2.42328
H    -4.08036  -1.99325   2.52848
H    -5.41900  -2.10153   0.43190
H    -4.34429  -1.67015  -1.77135
H    -1.91178  -1.11241  -1.88135
H     2.65905  -3.07912   0.11056
H     4.04705  -2.69860  -0.96706
H     2.35895  -2.34235  -1.47620
29

C    -2.04336   2.24987   0.68780
C    -1.26245   1.80944  -0.52117
O    -1.77899   1.66591  -1.62860
C     0.14257   1.59301  -0.30898
C    -0.25255  -1.00994   0.22024
C    -1.63926  -1.29129   0.26381
C    -2.25007  -1.51608   1.51628
C    -3.60971  -1.80408   1.56598
C    -4.35801  -1.86348   0.38371
C    -3.75397  -1.62342  -0.85590
C    -2.39573  -1.32755  -0.92557
N     0.91837  -1.00299   0.35602
N     2.05063  -0.43019   0.52476
C     3.18396  -1.00883  -0.01105
C     3.05988  -2.37415  -0.63787
O     4.24787  -0.40376   0.06030
C     1.35253   1.70084  -0.15270
Cl    2.84005   2.45644  -0.11941
H    -2.05350   1.44342   1.43316
H    -1.54609   3.12187   1.15994
H    -3.06002   2.50819   0.38971
H    -1.64521  -1.45610   2.42348
H    -4.08127  -1.99267   2.52853
H    -5.41949  -2.10098   0.43173
H    -4.34455  -1.66962  -1.77136
H    -1.91152  -1.11360  -1.88120
H     2.65916  -3.08050   0.10900
H     4.04687  -2.69946  -0.96878
H     2.35881  -2.34245  -1.47715
29

C    -2.04681   2.24813   0.68799
C    -1.26675   1.81056  -0.52209
O    -1.78312   1.66360  -1.62919
C     0.14230   1.61390  -0.31442
C    -0.25149  -1.03149   0.22382
C    -1.64043  -1.29737   0.26456
C    -2.25177  -1.51886   1.51712
C    -3.61197  -1.80350   1.56635
C    -4.35947  -1.86256   0.38362
C    -3.75485  -1.62298  -0.85586
C    -2.39601  -1.33029  -0.92535
N     0.91869  -0.99599   0.35416
N     2.05737  -0.44024   0.53494
C     3.18467  -1.01442  -0.00956
C     3.06005  -2.37698  -0.64167
O     4.24934  -0.40886   0.06101
C     1.34735   1.73017  -0.15937
Cl    2.84924   2.45842  -0.11863
H    -2.05332   1.44283   1.43317
H    -1.54744   3.12170   1.15973
H    -3.06141   2.50687   0.39043
H    -1.64561  -1.45746   2.42368
H    -4.08218  -1.99209   2.52859
H    -5.41998  -2.10043   0.43156
H    -4.34482  -1.66910  -1.77136
H    -1.91127  -1.11479  -1.88104
H     2.65926  -3.08188   0.10744
H     4.04669  -2.70032  -0.97050
H     2.35868  -2.34256  -1.47810
29

C    -2.05026   2.24639   0.68818
C    -1.27104   1.81168  -0.52301
O    -1.78725   1.66128  -1.62979
C     0.14203   1.63480  -0.31987
C    -0.25043  -1.05305   0.22740
C    -1.64161  -1.30346   0.26531
C    -2.25348  -1.52163   1.51795
C    -3.61423  -1.80291   1.56672
C    -4.36093  -1.86165   0.38352
C    -3.75574  -1.62254  -0.85582
C    -2.39629  -1.33303  -0.92513
N     0.91900  -0.98899   0.35229
N     2.06410  -0.45029   0.54512
C     3.18539  -1.02001  -0.00806
C     3.06021  -2.37980  -0.64546
O     4.25082  -0.41395   0.06172
C     1.34218   1.75950  -0.16603
Cl    2.85844   2.46040  -0.11785
H    -2.05314   1.44224   1.43319
H    -1.54878   3.12152   1.15952
H    -3.06280   2.50556   0.39114
H    -1.64601  -1.45882   2.42388
H    -4.08309  -1.99151   2.52864
H    -5.42047  -2.09989   0.43139
H    -4.34508  -1.66857  -1.77136
H    -1.91101  -1.11598  -1.88089
H     2.65936  -3.08326   0.10588
H     4.04651  -2.70118  -0.97222
H     2.35854  -2.34267  -1.47904
29

C    -2.05372   2.24465   0.68837
C    -1.27534   1.81281  -0.52393
O    -1.79137   1.65897  -1.63039
C     0.14175   1.65570  -0.32531
C    -0.24936  -1.07460   0.23098
C    -1.64278  -1.30955   0.26606
C    -2.25519  -1.52441   1.51878
C    -3.61649  -1.80233   1.56709
C    -4.36239  -1.86074   0.38343
C    -3.75663  -1.62209  -0.85579
C    -2.39658  -1.33577  -0.92490
N     0.91932  -0.98200   0.35043
N     2.07083  -0.46035   0.55530
C     3.18610  -1.02560  -0.00656
C     3.06038  -2.38263  -0.64926
O     4.25229  -0.41904   0.06244
C     1.33700   1.78883  -0.17270
Cl    2.86763   2.46238  -0.11708
H    -2.05297   1.44166   1.43320
H    -1.55013   3.12135   1.15930
H    -3.06419   2.50425   0.39186
H    -1.64640  -1.46018   2.42408
H    -4.08400  -1.99093   2.52870
H    -5.42096  -2.09934   0.43122
H    -4.34534  -1.66804  -1.77136
H    -1.91076  -1.11716  -1.88073
H     2.65947  -3.08464   0.10432
H     4.04633  -2.70204  -0.97394
H     2.35841  -2.34278  -1.47999
29

C    -2.05717   2.24291   0.68855
C    -1.27964   1.81393  -0.52485
O    -1.79550   1.65666  -1.63099
C     0.14148   1.67660  -0.33075
C    -0.24830  -1.09616   0.23456
C    -1.64396  -1.31563   0.26682
C    -2.25689  -1.52718   1.51961
C    -3.61875  -1.80174   1.56745
C    -4.36385  -1.85982   0.38333
C    -3.75752  -1.62165  -0.85575
C    -2.39686  -1.33850  -0.92468
N     0.91964  -0.97500   0.34857
N     2.07757  -0.47040   0.56548
C     3.18681  -1.03119  -0.00506
C     3.06055  -2.38546  -0.65305
O     4.25376  -0.42414   0.06315
C     1.33182   1.81816  -0.17937
Cl    2.87683   2.46436  -0.11630
H    -2.05279   1.44107   1.43322
H    -1.55148   3.12118   1.15909
H    -3.06558   2.50293   0.39257
H    -1.64680  -1.46154   2.42428
H    -4.08491  -1.99035   2.52875
H    -5.42144  -2.09879   0.43105
H    -4.34560  -1.66751  -1.77137
H    -1.91051  -1.11835  -1.88058
H     2.65957  -3.08602   0.10276
H     4.04615  -2.70289  -0.97566
H     2.35827  -2.34289  -1.48094
29

C    -2.06062   2.24117   0.68874
C    -1.28393   1.81505  -0.52577
O    -1.79963   1.65435  -1.63158
C     0.14121   1.69750  -0.33620
C    -0.24724  -1.11771   0.23814
C    -1.64514  -1.32172   0.26757
C    -2.25860  -1.52996   1.52045
C    -3.62102  -1.80116   1.56782
C    -4.36531  -1.85891   0.38324
C    -3.75841  -1.62121  -0.85571
C    -2.39714  -1.34124  -0.92446
N     0.91996  -0.96801   0.34671
N     2.08430  -0.48045   0.57566
C     3.18753  -1.03677  -0.00356
C     3.06072  -2.38829  -0.65685
O     4.25524  -0.42923   0.06386
C     1.32665   1.84749  -0.18603
Cl    2.88602   2.46634  -0.11552
H    -2.05261   1.44048   1.43323
H    -1.55282   3.12101   1.15888
H    -3.06697   2.50162   0.39329
H    -1.64720  -1.46290   2.42449
H    -4.08582  -1.98977   2.52881
H    -5.42193  -2.09825   0.43088
H    -4.34587  -1.66698  -1.77137
H    -1.91025  -1.11954  -1.88043
H     2.65967  -3.08739   0.10119
H     4.04597  -2.70375  -0.97738
H     2.35813  -2.34300  -1.48188
