12

O 1.651866089 2.819191736 -2.416063983
C 0.801114185 1.232491964 -0.592899720
C 1.272097562 -1.598114039 -0.616863280
C -1.171116796 -1.891988410 1.016440653
C -1.525849570 0.963945328 0.876549331
O 0.751724379 2.059969737 1.935499959
H 1.065869426 -2.415910254 -2.494101660
H 3.054644657 -2.191005954 0.224851085
H -2.656192521 -2.944492994 0.054337468
H -0.905359944 -2.631050943 2.920328631
H -3.229095650 2.087502026 0.997757744
H 1.281535743 4.524067497 -1.908062307

