14

C -1.703090631 -1.984401082 -0.332724268
C 0.235631935 -0.179580919 -1.642841664
C -0.947894485 1.932041533 0.041973746
C -1.063089204 -0.258202956 1.909383528
O 1.612332962 -0.887404088 2.264932569
C 2.538293831 -0.931106272 -0.101751075
H -3.613582937 -1.726458474 -1.049875786
H -1.225890414 -3.978201681 -0.153756149
H 0.443091870 -0.024841584 -3.677971878
H -2.818216675 2.510070941 -0.591557957
H 0.233852191 3.553069919 0.507570044
H -2.014381209 -0.239843586 3.726242229
H 4.546662461 0.234732387 -0.471379048
H 4.161298795 1.979721459 -0.495110361

