10

O 4.392203391 0.157936677 -1.402711293
C 3.893199230 -1.865878650 0.277030354
C 1.622486933 -3.363571849 -0.505756095
C -0.388189695 -3.719625410 0.940126407
H -0.488468541 -2.938094665 2.834341935
H -1.998449779 -4.809870073 0.300636661
H 1.683670615 -4.146946325 -2.403986819
H 3.657139215 -1.190511131 2.223882105
H 5.584190851 -3.048970452 0.228485425
H 2.914586774 1.206544796 -1.472175283

