8

O -1.535897811 0.014781570 -1.703768948
C -0.532999408 -1.653944335 0.185985182
C 0.801700624 0.615336948 -0.620873014
O 0.959133254 2.775749559 0.802315541
H -0.573140989 2.965052005 1.758942942
H -1.537078493 -1.634499487 1.978217464
H 0.029278094 -3.508661676 -0.488928330
H 2.426408060 0.491583168 -1.866709336

