10

N -2.653218338 -0.679718802 -0.414034232
C -1.327270762 -1.490642593 1.585706721
O -2.052985971 -2.821177460 3.258035974
O 1.193651875 -0.679360794 1.712760907
C 2.426151814 0.811336243 0.073620253
N 1.522194765 1.769796867 -1.907395839
H -1.842927624 0.455722592 -1.720904588
H -4.458736981 -1.244961303 -0.520010054
H 4.357184139 1.057970352 0.749221285
H 2.835957122 2.821034918 -2.817000466

