13

O 2.225892491 3.757873372 1.545276050
C 1.499832974 2.016590677 0.297420593
C 2.965479347 -0.410689265 -0.222299936
O 1.190599967 -2.140109791 -1.217349683
C -1.135406358 -0.868384788 -1.551111788
C -2.734349950 -0.542067939 0.902571388
C -1.049495610 1.812060271 -1.072857633
H 3.786050115 -1.116912043 1.535079295
H 4.492327411 -0.082574569 -1.579807261
H -2.155119205 -1.679623917 -3.129600209
H -1.877683788 -1.590620311 2.444366846
H -4.736507201 -0.850017519 0.601673208
H -2.680026767 1.571414987 1.404080589

