13

C 2.833388663 1.092096538 0.147561532
C 1.575183044 -1.425075862 -0.192203591
C -0.666972656 -1.756712479 1.445177446
C -1.883444486 -0.817857177 -1.013236849
C -2.852707106 1.730364160 -0.998055224
N -3.597482074 3.767612378 -1.007089570
H 3.735868607 1.773313931 -1.572904034
H 4.362704048 0.646900628 1.474053954
H 1.703742208 2.607003423 1.001551728
H -0.133948777 -1.040721404 -2.407501747
H -0.931321190 -0.451987813 3.017632689
H -1.210039561 -3.677517852 1.918547566
H -3.159337884 -2.178996102 -1.869197690

