10

C 1.876040728 2.611875760 -0.897944073
C -0.196404849 2.772614598 0.506212956
C -2.106629664 0.774153765 0.765227039
C -2.855358108 -0.746565124 -1.084008888
H -2.114186131 -0.564081188 -2.985952357
H -4.255481460 -2.203440919 -0.760632566
H -2.975174814 0.590270903 2.617647362
H -0.527333763 4.482696819 1.595163837
H 2.336327367 0.906540683 -1.937190754
H 3.192949101 4.172279540 -1.031814690

