13

N 4.788606969 -2.429219765 2.112046110
C 2.894078446 -1.628361959 1.330085566
C 2.204024126 0.793255664 -0.986675974
C 0.016763099 1.779167546 0.121104062
C -1.715889595 -0.111570148 1.151774788
C -3.123819745 -0.290911394 -1.039185680
H 1.991287887 -0.640599771 -2.446242872
H 3.766711205 2.060942020 -1.382919134
H -0.177024498 3.731130176 0.690467016
H -2.707699255 0.216447700 2.916660087
H 0.500214625 -1.868946677 1.600183403
H -2.234241886 -0.616560603 -2.847389190
H -5.176593424 -0.193381495 -1.047538723

