11

C -2.970293746 -0.258461735 0.564692364
N -0.321796983 0.256094003 -0.859304332
C 0.975139139 2.361474633 0.249293502
N 3.098099816 1.742025414 1.158915761
N 3.465646634 -0.881425882 0.694481947
C 1.551863314 -1.663558675 -0.523919028
H -3.527906817 -2.066725886 -0.299327214
H -0.851389668 0.558786119 -2.681314691
H -2.316732079 -0.710290603 2.485846297
H 0.071041740 4.186054358 0.342029147
H 1.207930513 -3.573533612 -1.153080230

