10

O -2.246932115 -3.128937274 0.410071174
C -0.788074583 -1.140033296 -0.388863987
C 0.452914591 2.825506010 0.302952313
O 2.315364711 2.147658679 -0.984264381
C 1.732814435 -1.241142960 0.351109791
O 3.326769679 -1.947947245 1.663688972
H -2.975892456 -3.982889562 -1.014689917
H -1.242866409 -0.264805092 -2.171049653
H 0.505589252 2.820859722 2.375663264
H -1.093429173 3.907499921 -0.558388029

