12

C 2.596776055 1.058732535 -0.168342000
O 2.532158041 -0.099231919 2.214995479
C 0.993013605 -1.115559982 -0.889424035
C -0.893135646 -1.202641302 1.007451585
C -2.754127842 0.662582671 0.110604971
O -2.345921242 -0.737496366 -2.137552027
H 1.736414402 2.935427165 -0.290700954
H 4.471240392 1.076894145 -1.035210358
H 1.802667273 -2.803949678 -1.716890450
H -1.458539907 -2.913195860 1.978549526
H -2.180718191 2.641102529 0.040939537
H -4.663099297 0.459197628 0.859583634

