14

C -1.570512095 -0.591366112 -3.067567115
C -0.248932432 1.405548566 1.029920901
O 0.392266061 3.891426383 1.674034788
C -0.044360130 -0.719876711 2.932036297
C 1.698465432 -0.433036694 0.725123498
O 1.166836019 -2.045466297 -1.473091478
H -3.263953860 -0.918581904 -1.985567534
H -1.265377280 -1.963217706 -4.569234880
H -1.284540842 1.353119267 -3.607699294
H -1.113609917 4.681213531 2.291937417
H 0.839135909 -0.417954752 4.768758949
H -1.469520312 -2.195433620 2.915681832
H 3.709738552 -0.139871065 0.969057377
H 2.587692651 -2.010105212 -2.629446282

