11

O -4.709074576 0.281600657 -0.252276057
C -2.458768279 0.017525377 0.032753281
C -0.246551188 1.923535101 -0.343437050
C 1.496567489 -0.251860109 0.455221210
C -0.757052121 -1.889131598 0.860607809
H 0.036487682 2.708362927 -2.230423581
H -0.207706034 3.434620771 1.054367967
H 3.108618958 -0.128709227 1.726914408
H 2.935169387 -0.520223555 -1.621970735
H -0.883115997 -3.793322801 1.580449881
H 1.734151284 -1.790714227 -1.270506829

