14

C -1.849238572 -1.780861402 -0.090247159
C -2.193900202 1.039798103 -0.789282931
O -1.233526721 2.505975546 1.328460874
C 1.178609523 2.262786181 0.031734776
C 2.378566412 -0.247090365 0.937482491
N 0.807830574 -2.414498931 0.279608847
C -0.038521387 1.753582715 -2.457228454
H -2.918080178 -2.032154064 1.660786617
H -2.654955355 -3.015415625 -1.529297697
H -4.136669843 1.487519613 -1.319561454
H 2.443064938 3.873765494 0.279788693
H 4.264444620 -0.501242277 0.147702619
H 2.548455663 -0.052794753 2.988155267
H 1.480244678 -3.188663580 -1.328334564

