14

C -1.939165102 -1.811472679 0.189611831
C -2.211186566 0.850138972 -0.805998144
O -1.197679562 2.653275786 0.963780166
C 1.312293624 2.130736314 0.048850252
C 2.345655887 -0.255024984 1.229006383
N 0.824132882 -2.101524115 -0.250465604
C 0.283333271 0.755994271 -2.300344828
H -2.465515867 -2.116351681 2.162615729
H -2.922560965 -3.183455287 -0.994848208
H -4.006495152 1.465534313 -1.608315518
H 2.484196679 3.823457186 -0.033062025
H 4.333267425 -0.550718651 0.766007836
H 2.084134704 -0.461898028 3.266579218
H 1.133801735 -1.438987119 -2.516894705

