11

O -4.195084679 -1.947139217 -0.299301664
C -2.045615075 -1.968647909 0.402808937
C 0.177710015 -1.988805467 -1.407606024
O 2.474827115 -1.362094257 -0.207798026
C 2.811133566 1.078922558 0.482118059
N 1.379969743 2.954586210 0.225991799
H -0.293121051 2.584174529 -0.641362861
H 4.651461380 1.271781071 1.375047725
H 0.408378962 -3.918324518 -2.100893797
H -0.222104500 -0.773215894 -3.031353272
H -1.535242038 -2.031230820 2.435487873

