13

O 2.049735453 0.840092054 -2.504240191
C 0.694081193 0.251756344 -0.313862855
C -1.724303600 -1.162996152 -0.899145088
O -3.528269531 0.770223399 -0.100761614
C -0.786409999 2.466690181 0.870260417
C 2.384112380 -0.994027783 1.599287654
O 4.649260813 -0.844612940 1.502926871
H 3.808047963 0.932279924 -2.026112912
H -2.087149195 -2.809599864 0.279448485
H -1.938482911 -1.631048602 -2.891494056
H -4.048916253 1.779220478 -1.520225594
H -1.043710611 2.125621657 2.906821001
H 1.414450272 -1.949649642 3.190850995

