10

N 2.997722251 0.172993353 0.042480760
C 0.237113140 0.176961381 0.056430246
N -1.051202184 -1.869787643 -0.570159285
N -3.349368422 -0.980757087 -0.283898053
N -3.532851021 1.421176412 0.460315363
C -1.143891229 2.320012587 0.726364197
H 3.739890587 -0.147848733 -1.704749244
H 3.752038370 -1.090788129 1.283306643
H -4.874107382 -2.068447483 -0.611131911
H 3.426559917 1.978616838 0.609133110

