14

C -3.238427515 1.318259376 -1.094481259
C -0.600727060 -1.985329448 0.677704997
N -2.341035242 -0.011407067 1.135230047
C 2.860592858 1.029488702 0.200809649
N 1.911157603 -1.160986201 -0.318641254
C 5.298885803 1.436756826 -0.880928091
N 7.263424692 1.969156699 -1.661214205
H -1.749149908 2.303814289 -2.144931124
H -4.649767581 2.705169933 -0.525886346
H -4.159636818 -0.025626614 -2.362167237
H -1.372541608 -3.299720611 -0.715135955
H -0.233678430 -3.025220110 2.422147163
H -1.636497381 1.212327755 2.421807541
H 2.836590539 -2.468492016 -1.383558787

