16

C 2.950361463 -1.461079586 -0.799988040
C 0.574199576 -0.001876177 -0.268498108
C 0.640450199 2.754967674 -0.944157457
N -1.643202092 -1.273653052 -0.659348046
C -3.800180220 -0.411617745 0.432528792
C -0.764035396 0.144985495 3.379531966
O -0.138389954 -1.028369512 5.099113197
H 4.465476028 -0.785147832 0.424166339
H 3.587467394 -1.235225169 -2.756749213
H 2.709908912 -3.476462066 -0.423911018
H 2.371309221 3.606246510 -0.219550517
H -0.946308344 3.789783212 -0.141923666
H 0.617514498 3.008324541 -3.000722173
H -1.463875605 -3.172486920 -0.676054831
H -4.301553814 1.542302206 0.142132292
H -5.342841834 -1.749635814 0.551448520

