15

C 4.231722481 -0.648951302 -1.498643335
C 1.550728042 -0.278794224 -0.680989227
C 0.016648563 -2.067354768 0.332212492
C -2.534777655 -1.080879898 0.939652691
C -2.385954750 1.561336586 -0.284321787
O -3.849708978 3.382979790 0.969405068
C 0.325349857 2.148735408 -0.572836630
H 4.440448250 -0.208657927 -3.503181414
H 4.868997581 -2.585913588 -1.193548828
H 5.469699205 0.634660569 -0.465160904
H 0.575482889 -4.009304948 0.707645080
H -4.064245088 -2.316978159 0.308117842
H -2.782280698 -0.793941238 2.969937249
H -3.014051053 1.371015409 -2.275741878
H -2.872413473 4.914653175 0.942730790

