8

C 2.737280197 -0.326590821 -0.267356884
N 1.113639076 2.482241228 0.488027498
N -1.052610956 2.471892710 0.654891656
C -2.745991343 -0.351154823 0.147167127
N -1.816381810 -2.343004601 -0.379947919
N 1.758426328 -2.329572938 -0.640287494
H 4.683499854 0.263375609 -0.282329996
H -4.677693122 0.220362740 0.427905521

