13

O 2.862881222 -1.308269358 -2.705205119
C -0.086620359 0.551433629 0.488417972
C -1.441653333 -1.235061141 -1.152781502
O -3.843462413 -0.176873887 -0.450927185
C -2.621618791 1.598166479 1.178341975
C 2.300264476 0.563487323 1.654374795
O 4.360101158 0.147048320 0.683993590
H 4.572805896 -1.650022284 -3.229954058
H -1.264769053 -3.247520234 -0.728457258
H -0.881215707 -0.993287634 -3.165763501
H -2.962133512 3.563230410 0.623532596
H -3.164188566 1.347394040 3.161832890
H 2.220491786 0.801470720 3.723036649

