13

O -2.490454318 -2.315583919 1.726656536
C -2.191735351 -0.329165422 -0.048656536
C -1.136442042 2.224675583 0.813870535
N 1.257273795 1.719938371 -0.707807899
C 2.519299381 -0.734258169 -0.340049054
C 0.127693972 -0.607799946 -1.769222938
H -1.891915939 -1.695140402 3.320602047
H -3.957527529 -0.249074577 -1.115376943
H -0.646100291 2.317124065 2.828623492
H 2.093116308 3.051029989 -1.788922124
H 2.535805761 -1.420422865 1.585701184
H 4.235370768 -0.990117316 -1.429000729
H 0.121403660 -0.918126745 -3.793251143

