13

O -2.801183931 -2.077847963 1.692024168
C -2.159029218 -0.219095357 -0.106667594
C -0.906073675 2.245455408 0.735710972
N 1.499852022 1.566654332 -0.874839223
C 2.609304164 -0.868620985 -0.274387024
C 0.190562193 -0.713524491 -1.727373706
H -1.661399909 -1.931029283 3.093927603
H -3.859263377 0.021311235 -1.247419761
H -0.425212585 2.480487392 2.730342842
H 0.790719293 3.504544171 -1.191775925
H 2.620161227 -1.372987413 1.711634536
H 4.281926533 -1.368118156 -1.344773122
H 0.196327710 -1.253205233 -3.704872375

