15

C 3.632498944 -0.209243440 -0.369028118
C 1.180394785 0.227903049 1.044995039
C -0.811105431 -1.795969895 0.575971874
C -2.042051864 -0.202930337 -1.510815835
C -3.316051795 -0.703040952 1.162785731
C -3.274171306 1.947735161 0.610646610
C -0.631721082 2.068590006 -0.298588765
H 4.821263836 1.476088282 -0.304434444
H 4.704270779 -1.769180873 0.453498460
H 3.272429943 -0.655866150 -2.353923174
H -0.516566652 -3.819780762 0.509527422
H -2.907604500 -0.623660398 -3.302261991
H -5.009541823 -1.823253326 1.402069221
H 1.540970705 0.658739214 3.035795036
H 0.024678614 3.730606967 -1.298777944

