11

O 4.029071426 -1.856088244 -1.814452475
C 2.064123355 -1.091021945 -1.360975879
C -0.222875962 -0.166867673 -0.703713392
C -0.989829417 2.415516303 -1.535539595
O -3.134584324 3.115479722 -1.482893318
H 0.559853984 3.656456798 -2.194285253
C -0.954704472 -1.210547576 2.123625974
H 0.612712572 -2.392655190 2.800130314
C -2.164845644 -2.309439872 -0.077985444
H -4.017099520 -1.594048010 -0.610193359
H -1.735796404 -4.170641733 -0.861466765

