15

C     2.31021  -0.35020   0.38868
C     0.84066  -0.15838   0.18263
N    -0.07384  -0.67272   0.87354
C    -1.44574  -0.50961   0.70161
C    -1.51403   0.72767  -0.90089
C    -0.14742   0.94842  -1.22525
H     2.79469  -0.83139  -0.45915
H     2.83065   0.58143   0.59828
H     2.57914  -1.04949   1.31219
H    -1.88849  -0.05939   1.65890
H    -1.92185  -1.53735   0.52135
H    -2.15539   0.10179  -1.58941
H    -2.12354   1.57003  -0.45705
H     0.27200   1.97283  -1.05068
H     0.24031   0.50910  -2.18036
15

C     2.31585  -0.35714   0.39762
C     0.84834  -0.16538   0.19129
N    -0.07548  -0.66842   0.86799
C    -1.44054  -0.52631   0.72313
C    -1.52012   0.74199  -0.91923
C    -0.15933   0.96254  -1.24320
H     2.79606  -0.83306  -0.45686
H     2.83198   0.57964   0.60040
H     2.58180  -1.05139   1.31467
H    -1.88705  -0.06159   1.66290
H    -1.92041  -1.54079   0.52462
H    -2.15624   0.10198  -1.58984
H    -2.12438   1.57037  -0.45726
H     0.27089   1.97396  -1.05184
H     0.23915   0.50999  -2.18177
15

C     2.32149  -0.36408   0.40656
C     0.85603  -0.17238   0.19994
N    -0.07711  -0.66412   0.86243
C    -1.43533  -0.54300   0.74465
C    -1.52620   0.75631  -0.93758
C    -0.17125   0.97666  -1.26115
H     2.79743  -0.83472  -0.45456
H     2.83331   0.57785   0.60251
H     2.58445  -1.05329   1.31716
H    -1.88561  -0.06379   1.66691
H    -1.91897  -1.54423   0.52788
H    -2.15709   0.10217  -1.59027
H    -2.12523   1.57071  -0.45746
H     0.26979   1.97509  -1.05300
H     0.23800   0.51088  -2.18318
15

C     2.32713  -0.37102   0.41550
C     0.86371  -0.17938   0.20860
N    -0.07875  -0.65982   0.85687
C    -1.43013  -0.55970   0.76617
C    -1.53229   0.77063  -0.95592
C    -0.18317   0.99078  -1.27910
H     2.79879  -0.83638  -0.45226
H     2.83464   0.57606   0.60462
H     2.58711  -1.05519   1.31965
H    -1.88416  -0.06599   1.67092
H    -1.91752  -1.54767   0.53115
H    -2.15793   0.10236  -1.59071
H    -2.12607   1.57105  -0.45766
H     0.26868   1.97623  -1.05416
H     0.23684   0.51176  -2.18459
15

C     2.33277  -0.37796   0.42444
C     0.87140  -0.18639   0.21726
N    -0.08038  -0.65552   0.85132
C    -1.42493  -0.57640   0.78769
C    -1.53838   0.78495  -0.97427
C    -0.19509   1.00490  -1.29706
H     2.80016  -0.83805  -0.44997
H     2.83597   0.57427   0.60674
H     2.58976  -1.05709   1.32214
H    -1.88272  -0.06820   1.67493
H    -1.91608  -1.55111   0.53442
H    -2.15878   0.10254  -1.59114
H    -2.12691   1.57139  -0.45787
H     0.26757   1.97736  -1.05533
H     0.23569   0.51265  -2.18600
15

C     2.33841  -0.38490   0.43339
C     0.87908  -0.19339   0.22591
N    -0.08202  -0.65122   0.84576
C    -1.41972  -0.59310   0.80921
C    -1.54447   0.79927  -0.99261
C    -0.20700   1.01902  -1.31501
H     2.80153  -0.83971  -0.44767
H     2.83730   0.57248   0.60885
H     2.59242  -1.05899   1.32463
H    -1.88128  -0.07040   1.67894
H    -1.91464  -1.55454   0.53769
H    -2.15963   0.10273  -1.59157
H    -2.12776   1.57172  -0.45807
H     0.26646   1.97850  -1.05649
H     0.23453   0.51354  -2.18741
15

C     2.34405  -0.39185   0.44233
C     0.88676  -0.20039   0.23457
N    -0.08365  -0.64692   0.84021
C    -1.41452  -0.60979   0.83074
C    -1.55056   0.81359  -1.01096
C    -0.21892   1.03315  -1.33296
H     2.80290  -0.84138  -0.44538
H     2.83863   0.57069   0.61097
H     2.59507  -1.06089   1.32712
H    -1.87984  -0.07260   1.68295
H    -1.91320  -1.55798   0.54096
H    -2.16047   0.10292  -1.59200
H    -2.12860   1.57206  -0.45827
H     0.26535   1.97963  -1.05765
H     0.23338   0.51443  -2.18882
15

C     2.34969  -0.39879   0.45127
C     0.89445  -0.20739   0.24322
N    -0.08528  -0.64262   0.83465
C    -1.40931  -0.62649   0.85226
C    -1.55664   0.82791  -1.02930
C    -0.23084   1.04727  -1.35091
H     2.80427  -0.84304  -0.44308
H     2.83996   0.56890   0.61308
H     2.59772  -1.06279   1.32960
H    -1.87839  -0.07480   1.68696
H    -1.91175  -1.56142   0.54423
H    -2.16132   0.10311  -1.59243
H    -2.12945   1.57240  -0.45847
H     0.26425   1.98077  -1.05881
H     0.23222   0.51532  -2.19023
15

C     2.35534  -0.40573   0.46021
C     0.90213  -0.21439   0.25188
N    -0.08692  -0.63832   0.82910
C    -1.40411  -0.64319   0.87378
C    -1.56273   0.84223  -1.04765
C    -0.24276   1.06139  -1.36886
H     2.80563  -0.84470  -0.44078
H     2.84128   0.56710   0.61519
H     2.60038  -1.06470   1.33209
H    -1.87695  -0.07700   1.69097
H    -1.91031  -1.56486   0.54749
H    -2.16216   0.10330  -1.59287
H    -2.13029   1.57274  -0.45868
H     0.26314   1.98190  -1.05998
H     0.23107   0.51620  -2.19164
15

C     2.36098  -0.41267   0.46915
C     0.90982  -0.22139   0.26054
N    -0.08855  -0.63402   0.82354
C    -1.39891  -0.65988   0.89530
C    -1.56882   0.85656  -1.06600
C    -0.25468   1.07551  -1.38682
H     2.80700  -0.84637  -0.43849
H     2.84261   0.56531   0.61731
H     2.60303  -1.06660   1.33458
H    -1.87551  -0.07920   1.69497
H    -1.90887  -1.56830   0.55076
H    -2.16301   0.10349  -1.59330
H    -2.13114   1.57308  -0.45888
H     0.26203   1.98304  -1.06114
H     0.22991   0.51709  -2.19304
15

C     2.36662  -0.41961   0.47809
C     0.91750  -0.22840   0.26919
N    -0.09019  -0.62972   0.81799
C    -1.39370  -0.67658   0.91682
C    -1.57491   0.87088  -1.08434
C    -0.26659   1.08963  -1.40477
H     2.80837  -0.84803  -0.43619
H     2.84394   0.56352   0.61942
H     2.60569  -1.06850   1.33707
H    -1.87406  -0.08140   1.69898
H    -1.90743  -1.57174   0.55403
H    -2.16386   0.10368  -1.59373
H    -2.13198   1.57342  -0.45908
H     0.26092   1.98417  -1.06230
H     0.22875   0.51798  -2.19445
15

C     2.37226  -0.42655   0.48704
C     0.92519  -0.23540   0.27785
N    -0.09182  -0.62541   0.81243
C    -1.38850  -0.69328   0.93834
C    -1.58099   0.88520  -1.10269
C    -0.27851   1.10375  -1.42272
H     2.80974  -0.84969  -0.43390
H     2.84527   0.56173   0.62153
H     2.60834  -1.07040   1.33956
H    -1.87262  -0.08360   1.70299
H    -1.90598  -1.57518   0.55730
H    -2.16470   0.10387  -1.59416
H    -2.13282   1.57376  -0.45928
H     0.25981   1.98530  -1.06346
H     0.22760   0.51887  -2.19586
15

C     2.37790  -0.43349   0.49598
C     0.93287  -0.24240   0.28651
N    -0.09345  -0.62111   0.80687
C    -1.38330  -0.70997   0.95986
C    -1.58708   0.89952  -1.12103
C    -0.29043   1.11787  -1.44067
H     2.81111  -0.85136  -0.43160
H     2.84660   0.55994   0.62365
H     2.61100  -1.07230   1.34205
H    -1.87118  -0.08580   1.70700
H    -1.90454  -1.57861   0.56057
H    -2.16555   0.10406  -1.59460
H    -2.13367   1.57410  -0.45949
H     0.25870   1.98644  -1.06463
H     0.22644   0.51976  -2.19727
15

C     2.38354  -0.44043   0.50492
C     0.94055  -0.24940   0.29516
N    -0.09509  -0.61681   0.80132
C    -1.37809  -0.72667   0.98138
C    -1.59317   0.91384  -1.13938
C    -0.30235   1.13199  -1.45862
H     2.81248  -0.85302  -0.42930
H     2.84793   0.55815   0.62576
H     2.61365  -1.07420   1.34453
H    -1.86973  -0.08800   1.71101
H    -1.90310  -1.58205   0.56384
H    -2.16640   0.10425  -1.59503
H    -2.13451   1.57444  -0.45969
H     0.25760   1.98757  -1.06579
H     0.22529   0.52064  -2.19868
15

C     2.38918  -0.44738   0.51386
C     0.94824  -0.25640   0.30382
N    -0.09672  -0.61251   0.79576
C    -1.37289  -0.74337   1.00290
C    -1.59926   0.92816  -1.15772
C    -0.31426   1.14611  -1.47658
H     2.81384  -0.85468  -0.42701
H     2.84926   0.55636   0.62787
H     2.61630  -1.07610   1.34702
H    -1.86829  -0.09020   1.71502
H    -1.90166  -1.58549   0.56711
H    -2.16724   0.10444  -1.59546
H    -2.13536   1.57478  -0.45989
H     0.25649   1.98871  -1.06695
H     0.22413   0.52153  -2.20009
15

C     2.39483  -0.45432   0.52280
C     0.95592  -0.26341   0.31248
N    -0.09836  -0.60821   0.79021
C    -1.36769  -0.76007   1.02442
C    -1.60535   0.94248  -1.17607
C    -0.32618   1.16023  -1.49453
H     2.81521  -0.85635  -0.42471
H     2.85059   0.55457   0.62999
H     2.61896  -1.07800   1.34951
H    -1.86685  -0.09240   1.71903
H    -1.90022  -1.58893   0.57037
H    -2.16809   0.10462  -1.59589
H    -2.13620   1.57512  -0.46009
H     0.25538   1.98984  -1.06811
H     0.22298   0.52242  -2.20150
15

C     2.40047  -0.46126   0.53175
C     0.96361  -0.27041   0.32113
N    -0.09999  -0.60391   0.78465
C    -1.36248  -0.77676   1.04594
C    -1.61143   0.95680  -1.19441
C    -0.33810   1.17435  -1.51248
H     2.81658  -0.85801  -0.42241
H     2.85192   0.55278   0.63210
H     2.62161  -1.07991   1.35200
H    -1.86540  -0.09460   1.72304
H    -1.89877  -1.59237   0.57364
H    -2.16894   0.10481  -1.59633
H    -2.13704   1.57546  -0.46030
H     0.25427   1.99098  -1.06927
H     0.22182   0.52331  -2.20291
15

C     2.40611  -0.46820   0.54069
C     0.97129  -0.27741   0.32979
N    -0.10162  -0.59961   0.77910
C    -1.35728  -0.79346   1.06746
C    -1.61752   0.97112  -1.21276
C    -0.35002   1.18847  -1.53043
H     2.81795  -0.85967  -0.42012
H     2.85325   0.55099   0.63421
H     2.62427  -1.08181   1.35449
H    -1.86396  -0.09680   1.72705
H    -1.89733  -1.59581   0.57691
H    -2.16978   0.10500  -1.59676
H    -2.13789   1.57579  -0.46050
H     0.25316   1.99211  -1.07044
H     0.22067   0.52420  -2.20432
15

C     2.41175  -0.47514   0.54963
C     0.97898  -0.28441   0.33845
N    -0.10326  -0.59531   0.77354
C    -1.35208  -0.81016   1.08899
C    -1.62361   0.98545  -1.23110
C    -0.36194   1.20259  -1.54838
H     2.81932  -0.86134  -0.41782
H     2.85458   0.54920   0.63633
H     2.62692  -1.08371   1.35698
H    -1.86252  -0.09900   1.73105
H    -1.89589  -1.59925   0.58018
H    -2.17063   0.10519  -1.59719
H    -2.13873   1.57613  -0.46070
H     0.25206   1.99324  -1.07160
H     0.21951   0.52508  -2.20573
15

C     2.41739  -0.48208   0.55857
C     0.98666  -0.29141   0.34710
N    -0.10489  -0.59101   0.76799
C    -1.34687  -0.82685   1.11051
C    -1.62970   0.99977  -1.24945
C    -0.37385   1.21672  -1.56634
H     2.82068  -0.86300  -0.41553
H     2.85591   0.54740   0.63844
H     2.62957  -1.08561   1.35946
H    -1.86108  -0.10120   1.73506
H    -1.89445  -1.60269   0.58345
H    -2.17147   0.10538  -1.59762
H    -2.13958   1.57647  -0.46091
H     0.25095   1.99438  -1.07276
H     0.21836   0.52597  -2.20714
15

C     2.42303  -0.48902   0.56751
C     0.99434  -0.29841   0.35576
N    -0.10653  -0.58671   0.76243
C    -1.34167  -0.84355   1.13203
C    -1.63578   1.01409  -1.26779
C    -0.38577   1.23084  -1.58429
H     2.82205  -0.86467  -0.41323
H     2.85724   0.54561   0.64056
H     2.63223  -1.08751   1.36195
H    -1.85963  -0.10340   1.73907
H    -1.89300  -1.60612   0.58672
H    -2.17232   0.10557  -1.59805
H    -2.14042   1.57681  -0.46111
H     0.24984   1.99551  -1.07392
H     0.21720   0.52686  -2.20855
15

C     2.41739  -0.48208   0.55857
C     0.98666  -0.29141   0.34710
N    -0.10489  -0.59101   0.76799
C    -1.34687  -0.82685   1.11051
C    -1.62970   0.99977  -1.24945
C    -0.37385   1.21672  -1.56634
H     2.82068  -0.86300  -0.41553
H     2.85591   0.54740   0.63844
H     2.62957  -1.08561   1.35946
H    -1.86108  -0.10120   1.73506
H    -1.89445  -1.60269   0.58345
H    -2.17147   0.10538  -1.59762
H    -2.13958   1.57647  -0.46091
H     0.25095   1.99438  -1.07276
H     0.21836   0.52597  -2.20714
15

C     2.41175  -0.47514   0.54963
C     0.97898  -0.28441   0.33845
N    -0.10326  -0.59531   0.77354
C    -1.35208  -0.81016   1.08899
C    -1.62361   0.98545  -1.23110
C    -0.36194   1.20259  -1.54838
H     2.81932  -0.86134  -0.41782
H     2.85458   0.54920   0.63633
H     2.62692  -1.08371   1.35698
H    -1.86252  -0.09900   1.73105
H    -1.89589  -1.59925   0.58018
H    -2.17063   0.10519  -1.59719
H    -2.13873   1.57613  -0.46070
H     0.25206   1.99324  -1.07160
H     0.21951   0.52508  -2.20573
15

C     2.40611  -0.46820   0.54069
C     0.97129  -0.27741   0.32979
N    -0.10162  -0.59961   0.77910
C    -1.35728  -0.79346   1.06746
C    -1.61752   0.97112  -1.21276
C    -0.35002   1.18847  -1.53043
H     2.81795  -0.85967  -0.42012
H     2.85325   0.55099   0.63421
H     2.62427  -1.08181   1.35449
H    -1.86396  -0.09680   1.72705
H    -1.89733  -1.59581   0.57691
H    -2.16978   0.10500  -1.59676
H    -2.13789   1.57579  -0.46050
H     0.25316   1.99211  -1.07044
H     0.22067   0.52420  -2.20432
15

C     2.40047  -0.46126   0.53175
C     0.96361  -0.27041   0.32113
N    -0.09999  -0.60391   0.78465
C    -1.36248  -0.77676   1.04594
C    -1.61143   0.95680  -1.19441
C    -0.33810   1.17435  -1.51248
H     2.81658  -0.85801  -0.42241
H     2.85192   0.55278   0.63210
H     2.62161  -1.07991   1.35200
H    -1.86540  -0.09460   1.72304
H    -1.89877  -1.59237   0.57364
H    -2.16894   0.10481  -1.59633
H    -2.13704   1.57546  -0.46030
H     0.25427   1.99098  -1.06927
H     0.22182   0.52331  -2.20291
15

C     2.39483  -0.45432   0.52280
C     0.95592  -0.26341   0.31248
N    -0.09836  -0.60821   0.79021
C    -1.36769  -0.76007   1.02442
C    -1.60535   0.94248  -1.17607
C    -0.32618   1.16023  -1.49453
H     2.81521  -0.85635  -0.42471
H     2.85059   0.55457   0.62999
H     2.61896  -1.07800   1.34951
H    -1.86685  -0.09240   1.71903
H    -1.90022  -1.58893   0.57037
H    -2.16809   0.10462  -1.59589
H    -2.13620   1.57512  -0.46009
H     0.25538   1.98984  -1.06811
H     0.22298   0.52242  -2.20150
15

C     2.38918  -0.44738   0.51386
C     0.94824  -0.25640   0.30382
N    -0.09672  -0.61251   0.79576
C    -1.37289  -0.74337   1.00290
C    -1.59926   0.92816  -1.15772
C    -0.31426   1.14611  -1.47658
H     2.81384  -0.85468  -0.42701
H     2.84926   0.55636   0.62787
H     2.61630  -1.07610   1.34702
H    -1.86829  -0.09020   1.71502
H    -1.90166  -1.58549   0.56711
H    -2.16724   0.10444  -1.59546
H    -2.13536   1.57478  -0.45989
H     0.25649   1.98871  -1.06695
H     0.22413   0.52153  -2.20009
15

C     2.38354  -0.44043   0.50492
C     0.94055  -0.24940   0.29516
N    -0.09509  -0.61681   0.80132
C    -1.37809  -0.72667   0.98138
C    -1.59317   0.91384  -1.13938
C    -0.30235   1.13199  -1.45862
H     2.81248  -0.85302  -0.42930
H     2.84793   0.55815   0.62576
H     2.61365  -1.07420   1.34453
H    -1.86973  -0.08800   1.71101
H    -1.90310  -1.58205   0.56384
H    -2.16640   0.10425  -1.59503
H    -2.13451   1.57444  -0.45969
H     0.25760   1.98757  -1.06579
H     0.22529   0.52064  -2.19868
15

C     2.37790  -0.43349   0.49598
C     0.93287  -0.24240   0.28651
N    -0.09345  -0.62111   0.80687
C    -1.38330  -0.70997   0.95986
C    -1.58708   0.89952  -1.12103
C    -0.29043   1.11787  -1.44067
H     2.81111  -0.85136  -0.43160
H     2.84660   0.55994   0.62365
H     2.61100  -1.07230   1.34205
H    -1.87118  -0.08580   1.70700
H    -1.90454  -1.57861   0.56057
H    -2.16555   0.10406  -1.59460
H    -2.13367   1.57410  -0.45949
H     0.25870   1.98644  -1.06463
H     0.22644   0.51976  -2.19727
15

C     2.37226  -0.42655   0.48704
C     0.92519  -0.23540   0.27785
N    -0.09182  -0.62541   0.81243
C    -1.38850  -0.69328   0.93834
C    -1.58099   0.88520  -1.10269
C    -0.27851   1.10375  -1.42272
H     2.80974  -0.84969  -0.43390
H     2.84527   0.56173   0.62153
H     2.60834  -1.07040   1.33956
H    -1.87262  -0.08360   1.70299
H    -1.90598  -1.57518   0.55730
H    -2.16470   0.10387  -1.59416
H    -2.13282   1.57376  -0.45928
H     0.25981   1.98530  -1.06346
H     0.22760   0.51887  -2.19586
15

C     2.36662  -0.41961   0.47809
C     0.91750  -0.22840   0.26919
N    -0.09019  -0.62972   0.81799
C    -1.39370  -0.67658   0.91682
C    -1.57491   0.87088  -1.08434
C    -0.26659   1.08963  -1.40477
H     2.80837  -0.84803  -0.43619
H     2.84394   0.56352   0.61942
H     2.60569  -1.06850   1.33707
H    -1.87406  -0.08140   1.69898
H    -1.90743  -1.57174   0.55403
H    -2.16386   0.10368  -1.59373
H    -2.13198   1.57342  -0.45908
H     0.26092   1.98417  -1.06230
H     0.22875   0.51798  -2.19445
15

C     2.36098  -0.41267   0.46915
C     0.90982  -0.22139   0.26054
N    -0.08855  -0.63402   0.82354
C    -1.39891  -0.65988   0.89530
C    -1.56882   0.85656  -1.06600
C    -0.25468   1.07551  -1.38682
H     2.80700  -0.84637  -0.43849
H     2.84261   0.56531   0.61731
H     2.60303  -1.06660   1.33458
H    -1.87551  -0.07920   1.69497
H    -1.90887  -1.56830   0.55076
H    -2.16301   0.10349  -1.59330
H    -2.13114   1.57308  -0.45888
H     0.26203   1.98304  -1.06114
H     0.22991   0.51709  -2.19304
15

C     2.35534  -0.40573   0.46021
C     0.90213  -0.21439   0.25188
N    -0.08692  -0.63832   0.82910
C    -1.40411  -0.64319   0.87378
C    -1.56273   0.84223  -1.04765
C    -0.24276   1.06139  -1.36886
H     2.80563  -0.84470  -0.44078
H     2.84128   0.56710   0.61519
H     2.60038  -1.06470   1.33209
H    -1.87695  -0.07700   1.69097
H    -1.91031  -1.56486   0.54749
H    -2.16216   0.10330  -1.59287
H    -2.13029   1.57274  -0.45868
H     0.26314   1.98190  -1.05998
H     0.23107   0.51620  -2.19164
15

C     2.34969  -0.39879   0.45127
C     0.89445  -0.20739   0.24322
N    -0.08528  -0.64262   0.83465
C    -1.40931  -0.62649   0.85226
C    -1.55664   0.82791  -1.02930
C    -0.23084   1.04727  -1.35091
H     2.80427  -0.84304  -0.44308
H     2.83996   0.56890   0.61308
H     2.59772  -1.06279   1.32960
H    -1.87839  -0.07480   1.68696
H    -1.91175  -1.56142   0.54423
H    -2.16132   0.10311  -1.59243
H    -2.12945   1.57240  -0.45847
H     0.26425   1.98077  -1.05881
H     0.23222   0.51532  -2.19023
15

C     2.34405  -0.39185   0.44233
C     0.88676  -0.20039   0.23457
N    -0.08365  -0.64692   0.84021
C    -1.41452  -0.60979   0.83074
C    -1.55056   0.81359  -1.01096
C    -0.21892   1.03315  -1.33296
H     2.80290  -0.84138  -0.44538
H     2.83863   0.57069   0.61097
H     2.59507  -1.06089   1.32712
H    -1.87984  -0.07260   1.68295
H    -1.91320  -1.55798   0.54096
H    -2.16047   0.10292  -1.59200
H    -2.12860   1.57206  -0.45827
H     0.26535   1.97963  -1.05765
H     0.23338   0.51443  -2.18882
15

C     2.33841  -0.38490   0.43339
C     0.87908  -0.19339   0.22591
N    -0.08202  -0.65122   0.84576
C    -1.41972  -0.59310   0.80921
C    -1.54447   0.79927  -0.99261
C    -0.20700   1.01902  -1.31501
H     2.80153  -0.83971  -0.44767
H     2.83730   0.57248   0.60885
H     2.59242  -1.05899   1.32463
H    -1.88128  -0.07040   1.67894
H    -1.91464  -1.55454   0.53769
H    -2.15963   0.10273  -1.59157
H    -2.12776   1.57172  -0.45807
H     0.26646   1.97850  -1.05649
H     0.23453   0.51354  -2.18741
15

C     2.33277  -0.37796   0.42444
C     0.87140  -0.18639   0.21726
N    -0.08038  -0.65552   0.85132
C    -1.42493  -0.57640   0.78769
C    -1.53838   0.78495  -0.97427
C    -0.19509   1.00490  -1.29706
H     2.80016  -0.83805  -0.44997
H     2.83597   0.57427   0.60674
H     2.58976  -1.05709   1.32214
H    -1.88272  -0.06820   1.67493
H    -1.91608  -1.55111   0.53442
H    -2.15878   0.10254  -1.59114
H    -2.12691   1.57139  -0.45787
H     0.26757   1.97736  -1.05533
H     0.23569   0.51265  -2.18600
15

C     2.32713  -0.37102   0.41550
C     0.86371  -0.17938   0.20860
N    -0.07875  -0.65982   0.85687
C    -1.43013  -0.55970   0.76617
C    -1.53229   0.77063  -0.95592
C    -0.18317   0.99078  -1.27910
H     2.79879  -0.83638  -0.45226
H     2.83464   0.57606   0.60462
H     2.58711  -1.05519   1.31965
H    -1.88416  -0.06599   1.67092
H    -1.91752  -1.54767   0.53115
H    -2.15793   0.10236  -1.59071
H    -2.12607   1.57105  -0.45766
H     0.26868   1.97623  -1.05416
H     0.23684   0.51176  -2.18459
15

C     2.32149  -0.36408   0.40656
C     0.85603  -0.17238   0.19994
N    -0.07711  -0.66412   0.86243
C    -1.43533  -0.54300   0.74465
C    -1.52620   0.75631  -0.93758
C    -0.17125   0.97666  -1.26115
H     2.79743  -0.83472  -0.45456
H     2.83331   0.57785   0.60251
H     2.58445  -1.05329   1.31716
H    -1.88561  -0.06379   1.66691
H    -1.91897  -1.54423   0.52788
H    -2.15709   0.10217  -1.59027
H    -2.12523   1.57071  -0.45746
H     0.26979   1.97509  -1.05300
H     0.23800   0.51088  -2.18318
15

C     2.31585  -0.35714   0.39762
C     0.84834  -0.16538   0.19129
N    -0.07548  -0.66842   0.86799
C    -1.44054  -0.52631   0.72313
C    -1.52012   0.74199  -0.91923
C    -0.15933   0.96254  -1.24320
H     2.79606  -0.83306  -0.45686
H     2.83198   0.57964   0.60040
H     2.58180  -1.05139   1.31467
H    -1.88705  -0.06159   1.66290
H    -1.92041  -1.54079   0.52462
H    -2.15624   0.10198  -1.58984
H    -2.12438   1.57037  -0.45726
H     0.27089   1.97396  -1.05184
H     0.23915   0.50999  -2.18177
