10

C 5.171519396 0.366455633 0.993071903
C 3.305986603 -1.809169840 0.652629352
C 0.934058043 -0.960755489 -0.660465195
O 0.056907118 -1.922213710 -2.516806530
H -0.013435046 0.699077157 0.218000091
H 2.739883087 -2.532137519 2.509514946
H 4.126960260 -3.371059511 -0.412236365
H 4.307805916 1.944067694 2.006329124
H 6.816813944 -0.244486530 2.071189079
H 5.832762308 1.070804502 -0.828922128

