16

C 4.258405603 -0.492036476 0.637530308
C 1.439345071 -0.524784239 1.264285793
C 0.038156840 1.239065131 -0.487756303
O -0.049611056 0.743877385 -2.823477597
C -3.825816680 0.756179578 1.143368984
C -4.382663581 -0.541720116 -0.986666884
N -4.135997441 -1.411229933 -3.032655520
H 5.047517552 1.404679651 0.838785970
H 5.299854060 -1.748410912 1.896329300
H 4.568879461 -1.105860642 -1.304081498
H 1.126387074 0.038669107 3.224582002
H 0.693375683 -2.436153397 1.020260451
H -0.033276792 3.236470288 0.057098642
H -2.015658399 -0.625882735 -3.390775307
H -4.663854129 2.611933019 1.356050100
H -3.493281989 -0.302688394 2.861371047

