11

C -1.220934191 1.351492062 -0.521028314
C -1.705990888 -1.429907703 0.219242699
C 0.862114393 -1.684654916 1.491531275
O 2.830998273 -0.270476992 -1.517374602
C 1.450638055 0.941145593 0.475649999
H -2.303710411 2.689198194 0.609045804
H -1.350581838 1.879713732 -2.508049407
H -3.138108588 -1.694461934 1.692565820
H -2.106182385 -2.810728409 -1.256192437
H 4.244470309 -1.141868145 -0.758921911
H 2.535702336 2.402741074 1.440332982

