15

C -3.934042523 0.888365335 -2.074025671
O -3.065662951 -1.573907706 -1.508549940
C -0.163426690 -1.421652321 2.680831073
C 0.828649025 -1.339117342 0.384742305
O -0.424322354 -1.565708165 -1.871756776
O 3.314712527 -1.115284403 -0.065958056
C 4.050636244 0.836741626 -1.767047523
H -3.486937517 1.395151104 -4.024547819
H -3.139319827 2.274366479 -0.763598605
H -5.976485012 0.788589855 -1.826904561
H 1.080189071 -1.162590881 4.274987137
H -2.139813803 -1.813395116 2.969452855
H 3.519910177 0.391571983 -3.707803945
H 3.205040268 2.637730728 -1.206290968
H 6.096702321 0.968651880 -1.623051130

