9

O 3.110704006 1.115297764 -0.692452854
C 1.169662841 -0.550102091 -1.263208045
C -1.383664971 0.667792060 -0.985573489
O -1.665524331 2.823633254 -0.346704443
C -3.566241594 -0.968952384 -1.558157746
N -5.217217131 -2.296739986 -2.013668461
H 1.317896549 -1.256481017 -3.211057723
H 1.206230535 -2.218732526 -0.026682007
H 2.360206929 2.714343060 -0.237888608

