15

C -1.682358559 2.577275933 -0.556368422
C 0.031965190 0.382760285 0.140354060
C -0.632243874 -1.047294363 2.575735277
O 1.673410347 -0.005449233 3.658670139
C 2.396273845 1.215470691 1.613033540
C 0.663640842 -1.234589522 -2.153059876
O 2.273783461 -3.284635608 -1.588422069
H -2.078100979 3.775748443 1.074676665
H -0.794367730 3.754370217 -1.998060212
H -3.482890234 1.888166080 -1.297076794
H -0.517856239 -3.100892718 2.504630533
H -2.288037665 -0.422599245 3.631378318
H 1.484754509 -0.015789361 -3.614178049
H -1.068653295 -2.053994140 -2.925368720
H 3.940391549 -2.644006509 -1.264849385

