15

C -2.455251385 2.312774142 -0.579476182
C -0.355151632 0.524296217 0.064275349
C -0.165917311 -0.955049707 2.510601614
O 2.549918727 -0.627277428 2.473238951
C 2.433771511 1.246490753 0.597129834
C 1.031989093 -0.866568685 -1.962453198
O 1.435018845 -3.429976769 -1.845940377
H -2.806764368 3.620979760 0.975820593
H -1.967427789 3.438595224 -2.237211345
H -4.206234743 1.297846158 -0.988225795
H -0.749203843 -2.937547910 2.511273299
H -0.977039486 0.017259587 4.136326026
H 3.205195131 0.271483668 -1.596390344
H 0.671946812 -0.219970130 -3.877510440
H 2.311992910 -3.797241507 -0.287052063

