10

N 5.448838802 -1.590926504 -0.045384418
C 3.429617891 -0.799339071 0.028562946
C 0.956724987 0.299344316 0.160283716
C 0.756020973 3.011824125 0.966532684
O -1.203175830 4.125302800 1.139703444
C -3.113801759 -2.234693210 -0.938297379
C -1.071645922 -1.019968961 -0.405272668
H 2.592783479 3.912179185 1.393323436
H -4.124854859 -3.265077075 0.514959553
H -3.856035366 -2.247647207 -2.847398355

