10

N 6.104366124 -1.036731720 -0.242661036
C 3.960915090 -0.732574782 -0.102558460
C 1.304344794 -0.306350381 0.076628735
C 0.236029930 1.937796090 0.702129499
O -2.280446673 1.819262811 0.662247906
C -2.815567355 -0.667086569 -0.011377077
C -0.664915217 -2.204263517 -0.276523208
H 1.047035319 3.751234046 1.170985139
H -4.780432694 -1.185038787 0.202339137
H -2.226402282 -1.264235546 -2.186416811

