12

N 1.913745961 3.088990524 1.013688702
C 0.572241838 0.994475856 0.332363387
C -1.858290871 0.549265055 -0.162276603
C -2.181700829 -2.209016499 -0.682216019
O 0.285897251 -3.272365390 -0.443169991
C 1.958135722 -1.446094398 0.131452694
O 4.176949374 -1.792177196 0.397581029
H 1.212280266 4.794707175 0.574690772
H 3.801555450 2.906015978 0.857663880
H -2.867039866 -2.610745987 -2.589652997
H -3.405107538 1.880520947 -0.191789533
H -3.423050318 -3.156365610 0.670889756

