12

N 1.019033660 2.354711870 2.012153770
C 0.239847309 0.663037321 0.113763421
C -2.087022433 1.125764976 -1.343309775
C -1.465500978 -1.632326000 0.423867441
O 0.191480997 -3.228220631 -0.971478060
C 1.990188860 -1.304621809 -1.069889308
O 4.107271260 -1.469719224 -1.742346309
H 0.638694870 4.163451892 1.554853163
H 2.845765575 2.137601576 2.508542984
H -3.447738040 -0.973197011 -0.515926677
H -1.936583887 0.345316231 -3.251677443
H -2.074442356 -2.211964869 2.290734814

