10

O -1.501492966 1.324680892 -2.355816585
C -0.056998656 2.092970005 -0.346319713
H -0.154105710 4.127346104 -0.120210411
C 0.111728470 0.755946783 2.254159411
H -0.375879263 1.716700665 3.984264584
C 0.407436914 -2.029530973 1.876562425
O 2.162472904 -1.726031679 0.049568650
C 2.336914014 0.965970245 0.448408104
H 4.196880542 1.784856397 0.647254233
H -1.164240310 -0.426668166 -2.711925212

