11

C 0.247716979 2.670137906 0.041920343
O 2.247304543 3.647248786 0.383014377
C -1.158204222 1.664756592 -2.281908225
H -0.592074363 -0.147005594 -3.086193918
H -1.254647699 3.096148069 -3.760247511
N -3.546935717 1.594808757 -0.772964711
C -3.086971389 -0.224113922 1.211746570
H -1.772594588 -1.763519310 0.873974182
H -4.749481739 -0.722154398 2.296073687
C -2.112703433 2.383643955 1.566242315
H -2.847486530 3.670902998 2.974420454

