13

C -3.272642140 -0.534509752 0.711069756
C -0.505044992 -0.926053390 0.111601934
C 0.477019484 0.068548549 -2.194805797
N 1.020934592 0.945082762 1.579880733
C 3.455262797 1.140374864 1.106908022
O 4.562470587 0.734824104 -0.913525205
H -3.576426632 -0.883665000 2.718420484
H -4.452231013 -1.820684546 -0.386850635
H -3.826179242 1.408257243 0.303925843
H 0.104607339 -2.860828450 0.492273164
H 1.701094570 -0.964121053 -3.452331548
H -0.176307252 1.910866453 -2.802261869
H 4.541718654 1.810161493 2.748222561

