12

C 1.095378161 -2.887758653 0.825452818
H 3.062967691 -3.252598231 0.467980659
C -0.245276624 -2.889454324 2.930052633
H 0.261769360 -3.259176273 4.863549765
O -2.738582294 -2.361697715 2.420421408
C -2.795654045 -1.622072119 -0.172506333
C -3.179419380 1.196357434 -0.416567315
H -1.656320797 2.193006210 0.551807568
H -3.178415274 1.732195569 -2.406274748
H -4.980805778 1.735629863 0.425856717
H -4.285964065 -2.693394652 -1.121884688
O -0.420948022 -2.358741976 -1.218188967

