15

C 3.495809328 0.264331602 0.498952685
C 1.366073680 -0.433875714 -1.331108796
C -1.180018824 0.115345198 -0.255531790
N -1.935215971 2.441904079 -0.216979809
O -0.761121306 4.367740716 -1.018596377
C -2.833259424 -1.897617337 0.815307370
H 3.399261595 2.270988915 0.954244400
H 3.365897668 -0.818251884 2.251499905
H 5.334747116 -0.120291594 -0.349342122
H 1.577258152 0.672396435 -3.062661083
H 1.468330125 -2.435166525 -1.826943659
H -3.688100356 2.762506189 0.541139101
H -4.598267026 -1.129188196 1.558100033
H -3.298497241 -3.305058030 -0.622729009
H -1.873703779 -2.889272967 2.353170647

