15

C -4.095325300 -0.338855862 -1.809395303
C -2.037153278 -0.744154079 0.147382783
C 0.282056534 0.709101285 -0.132639385
C 2.292765004 0.347045519 1.630983614
O 2.265613211 -1.251309630 3.419449482
C 4.838445377 0.235530116 -0.160544158
O 5.446596226 1.681650101 -1.751886100
H -4.758293041 1.614195590 -1.804433355
H -5.715267962 -1.551489110 -1.425254025
H -3.419384117 -0.776985878 -3.707971412
H -1.402229300 -2.725985757 0.283969712
H -2.681875959 -0.426921937 2.101320233
H 0.560046529 2.058493615 -1.657854083
H 2.679420883 2.425629682 2.095819656
H 5.941162063 -1.406904388 0.510561952

