13

O 1.194285954 -1.141374586 4.312675911
C 2.461504942 -0.490670280 2.068282472
C -3.716933835 -2.167979547 -2.934124463
C -2.170446943 -0.361200475 -2.353048590
C -0.615825083 1.467594473 -1.756876545
C 1.311027583 1.179149531 0.152592096
C 3.161847762 2.143740106 1.464496475
H 0.154260649 0.262773145 4.802258350
H 3.649708151 -2.081226019 1.541373463
H -5.502967210 -2.380015908 -1.953799934
H -3.258897312 -3.518370522 -4.404356881
H -0.768529222 3.272836083 -2.720207749
H 4.350928049 3.742250345 1.884137392

