17

C -4.010123275 -1.007535243 -0.847433035
O -1.428877651 -1.678938986 -0.996234435
C 0.240500644 -0.021660211 0.247309138
C 2.905675997 -0.654141624 -0.704084723
C 0.027415693 -0.152063653 3.109134985
C 0.194063837 2.733935703 -0.706154446
C 2.295208401 2.497014578 -2.116421620
H -4.301036823 0.964515534 -1.389401593
H -5.013872962 -2.244305623 -2.149971156
H -4.766954657 -1.297804281 1.056482306
H 3.185263415 -2.453969735 -1.691372156
H 4.445322288 -0.276092180 0.594011616
H 2.626720768 0.420493845 -3.004606202
H 1.438787923 1.063712625 3.994023526
H 0.284575463 -2.090163498 3.770278045
H -1.819546043 0.534727902 3.705108080
H 3.761280718 3.680066620 -2.916705818

