14

C -2.265072371 0.306513388 0.801189302
C -0.193740713 0.897503521 -1.076784390
C -0.717790056 1.556053101 -3.432252660
H -2.642346517 1.808411398 -4.084829440
H 0.774870991 1.873454562 -4.797730094
C 2.473904909 0.662229122 -0.109622521
O 2.816632726 -1.590007832 1.295794785
H 2.979783667 -1.178787535 3.051191617
H 3.780608516 0.648963623 -1.706961092
H 2.921114606 2.317635217 1.051000475
C -1.853089116 1.529301174 3.246789628
N -1.452113591 2.472946251 5.157049290
H -2.315349914 -1.730206179 1.142469021
H -4.105473186 0.874632940 0.070635600

