10

O 3.816733579 -2.461748774 0.912481471
C 1.823177454 -1.489827913 0.417867674
N 1.531613235 1.091273940 0.516970770
N -0.750586253 2.242576353 0.007819668
C -2.828907310 1.129367172 -0.643522572
C -2.393017110 -1.636532341 -0.758816785
N -0.345371505 -2.845910290 -0.296373609
H 2.997085206 2.182363443 1.045121235
H -0.670921258 4.143458514 0.181970913
H -4.009652790 -2.784280860 -1.300416148

