16

C 2.825240768 -1.762751949 -0.236003927
C 0.824971373 -0.686115487 1.502955293
N 1.149283411 1.978495726 2.170423190
C -1.103237910 2.776926292 1.203955871
O -2.099863065 4.810643141 1.094660235
C -1.783521419 0.082889775 0.357829563
C -2.287775787 -0.291164844 -2.434572225
H 3.104106273 -0.567755345 -1.891573880
H 2.292652489 -3.652522860 -0.870699702
H 4.632124285 -1.917335722 0.748655388
H 0.617100705 -1.889214179 3.171858851
H 2.487429660 2.901036587 3.157998352
H -3.350374361 -0.650053655 1.482201905
H -0.795862636 0.521581021 -3.601768313
H -4.052801020 0.638406914 -2.951892103
H -2.459472806 -2.293065395 -2.904028496

