14

O -2.449473321 -0.866021799 2.626425858
C -1.991649070 0.146479380 0.148470793
C -0.789997947 2.665348282 0.253474219
O 1.966347943 2.560760312 0.321510349
C 3.172312309 0.507862838 0.420988556
N 2.144987533 -1.716162603 -0.085310949
C -0.375469797 -1.875950456 -1.161932463
H -2.499061851 0.612893154 3.684743465
H -3.792032024 0.326601839 -0.861483640
H -1.243378563 3.991234763 -1.241767930
H 3.124770768 -3.284275483 0.330985531
H 5.142619398 0.611778688 0.974226250
H -0.316762658 -1.527139101 -3.195893691
H -1.103260794 -3.771559619 -0.824448296

