14

O -3.940638404 -0.458393436 1.339934403
C -1.836384769 0.130613826 -0.186578103
C -0.105534703 1.960199662 1.180004046
O 2.056402369 2.566464111 -0.201189484
C 3.350970324 0.570323861 -0.780122937
N 2.438733289 -1.608684260 0.096223569
C -0.175282284 -2.158649194 -0.841345320
H -3.321694611 -0.790652037 3.016752436
H -2.636728626 0.962699261 -1.906735644
H -0.973133082 3.699455191 1.829681192
H 1.595649307 -0.616014585 1.924497558
H 5.214816914 0.889273990 -1.559191180
H -0.093617410 -2.568246122 -2.856318713
H -0.851393807 -3.839865584 0.139685305

