13

C -2.115256377 -1.218489434 0.028688065
O 0.043120451 -2.572348945 -0.739046319
C 2.153937616 -1.505324386 0.655059520
C 1.640567814 1.244567276 1.181529357
N 0.547040829 2.293451711 -1.372960806
C -1.111814545 1.385238508 0.672258768
H -2.984783089 -2.025933634 1.732498662
H -3.498082120 -1.270749791 -1.505892853
H 2.338357443 -2.468847700 2.478763376
H 3.849115151 -1.867076170 -0.460490579
H 0.764350829 4.162228049 -1.638896256
H 0.557680743 1.216379724 -2.955031051
H -2.368738155 2.776903728 1.499272840

