13

C -2.129053816 -1.236562396 0.072609816
O 0.082868950 -2.531642562 -0.682855842
C 2.147122394 -1.321017772 0.563446203
C 1.444827468 1.391403172 1.072893746
N 0.046191029 2.500365270 -1.721642034
C -1.285138846 1.471366480 0.468434401
H -2.881707259 -1.983886491 1.856138586
H -3.552782737 -1.482610426 -1.399826589
H 2.484580577 -2.186293809 2.421013327
H 3.838767426 -1.579155078 -0.585280344
H 1.914626233 3.159726166 -0.631861885
H 0.367659559 1.107914207 -3.007461257
H -2.590777648 2.762278420 1.379423159

