13

C -2.337740164 -1.467661785 1.420373052
C -0.321199414 0.998802384 -2.173658968
C 1.341659042 2.558766803 -0.324587466
C 2.216623082 -0.014302978 0.362169187
O 4.182423287 -1.123904332 0.468565340
N -0.224732694 -1.281281215 -0.364616495
H -1.958654168 -2.934416029 2.817502359
H -2.576180799 0.346547822 2.352478233
H -4.044566406 -1.889367058 0.350123638
H 0.772016277 0.419383139 -3.823876800
H 2.843918632 3.738867697 -1.087823905
H 0.260255236 3.603782496 1.083916367
H 0.132855192 -2.984590866 -1.181591170

