15

C -2.263570549 0.405836997 1.572466695
C -0.737170917 -0.498497922 -2.881425028
C 1.130472397 1.284595171 -1.694586844
C 0.540088337 3.943648795 -1.395732554
N 0.115431369 6.054429469 -1.136129538
N -0.218363050 -0.512199551 -0.053345797
C 1.329420118 -2.475921833 1.133252071
H -3.354578359 1.792304790 0.526963566
H -3.477415244 -1.192883323 2.030444014
H -1.492134645 1.235526486 3.296977164
H 0.323800773 -2.104709457 -3.640688866
H 3.163179811 0.964367398 -1.692493935
H 2.862065937 -2.987324260 -0.136595055
H 0.144928293 -4.129649945 1.458551189
H 2.095613846 -1.808567924 2.928369397

