13

O 2.198508828 0.873874952 -3.354944796
C 1.421713302 0.660424169 -1.227537367
C 1.727297966 -1.694096120 0.352005710
C -0.711172160 -2.564054974 1.622274339
C -1.645555009 3.718926287 -0.900500362
N 0.276064987 2.698591286 0.061824242
H 2.497196937 -3.149374190 -0.884649698
H 3.151486809 -1.270163843 1.789546754
H -2.179135299 -2.959328572 0.226763658
H -0.382249530 -4.293277154 2.693033488
H -2.510928594 3.041420032 -2.651549559
H -2.491279713 5.349946826 0.023492792
H -1.428159253 -1.136638687 2.923965957

