13

O 4.479533663 1.443806430 -1.632056279
C 2.371765137 1.105085155 -0.837868394
C 1.390663477 -1.683899838 -0.345673408
C -1.058493957 -1.479304010 1.069205284
C -1.838740180 1.788246603 -0.160050827
N 0.613282098 2.889529818 -0.214564266
H 1.147175667 -2.565112881 -2.193540398
H 2.873961064 -2.682866969 0.665384115
H -2.722713734 -2.445590954 0.368140816
H -0.923045853 -1.736262108 3.117115582
H -2.664654337 1.090622344 -1.923897305
H -3.219469593 2.797385298 0.983106414
H -0.484835656 1.031125299 1.567050419

