12

C 1.013930058 2.448497617 0.257838295
C 2.621880291 1.188029184 -1.244705869
C 2.491864583 -1.273867102 -1.783399909
N 0.826923649 -2.678462169 -0.268175910
C -1.114624473 -1.493764893 0.794888048
C -1.399345559 1.156012291 0.745908444
C -3.810069271 2.001775356 1.394187098
H 1.526625605 4.112085489 1.339861459
H 3.280269944 -2.245338755 -3.401148732
H 0.959261585 -4.574184716 -0.131534066
H -2.559622055 -2.622895830 1.698697736
H -4.027274486 3.988523460 0.799508239

