15

O 4.582443405 0.114496937 1.619839389
C 2.800057825 -0.868526404 -0.119541656
C 0.222294437 -0.736031356 1.095415691
H 0.295851667 -1.787416655 2.905130452
C -0.741640611 1.951053803 1.631295211
H 0.051545304 2.818341964 3.314345863
H -0.290354019 3.164867072 -0.015620722
C -3.516355526 1.496365062 1.680496404
H -5.070320461 2.782033012 1.970658521
O -3.986642766 -0.484968333 0.295448267
C -1.937821979 -1.724362352 -0.445560741
H -2.290677329 -3.651726189 -1.016517527
H 2.781047822 0.231408624 -1.876763473
H 3.246987029 -2.836060358 -0.601596409
H 6.222465106 0.090059509 0.855227059

