14

C -3.180986096 0.624250182 1.593421793
C -0.917863846 -0.330369782 0.221323193
C -0.586116283 -2.558775873 -0.924660265
O 1.674243962 -2.935096142 -2.031094665
C 3.133915172 -0.690863519 -1.615074010
C 1.445366494 1.068659928 -0.124390410
N 2.134939292 3.254058630 0.575721675
H -4.702331957 -0.764598667 1.583366881
H -3.901977461 2.357373568 0.730809324
H -2.731476810 1.056125072 3.563037903
H -1.890192339 -4.125339555 -1.097075229
H 4.836692543 -1.191542147 -0.567946415
H 3.662995420 0.107119182 -3.439551765
H 0.732596098 4.136951091 1.552710024

