16

C 1.425930094 2.242040824 1.057819400
C 0.216432412 -0.045195881 -0.211215237
C 2.186290464 -1.709745339 -1.479602114
C -1.541271361 -1.498111433 1.566412107
O -4.046212905 -0.569307982 0.957683512
C -3.952699525 0.600783468 -1.272603971
N -1.621631019 0.872005031 -2.149029090
H 2.364736111 3.428446846 -0.342471702
H 2.830377441 1.636490484 2.442956241
H 0.008047852 3.381342721 2.032859046
H 3.494302989 -2.482311205 -0.081782320
H 1.291278112 -3.277915893 -2.473904172
H 3.272369377 -0.615477846 -2.847073228
H -1.507014821 -3.533016278 1.225608996
H -1.205245137 -1.126778379 3.562787193
H -3.186251931 2.734966794 -2.000060846

