13

C 4.336616851 -0.894523234 -0.715738456
C 0.250607939 0.507623674 1.100962547
C 2.303991470 -0.818518336 1.263167529
N -4.320725501 -1.286367527 -1.279312499
C -4.171945795 0.864938778 -0.242158841
C -1.832856593 1.827213871 0.924844381
H 6.142488155 -0.278919797 0.071693280
H 4.583025365 -2.820512296 -1.413912021
H 3.866226942 0.320502899 -2.308375389
H 2.554953449 -1.978368717 2.940760993
H -6.091189196 -1.588052230 -1.960873160
H -5.778189890 2.169022430 -0.142970896
H -1.876872774 3.734457284 1.679461892

