12

C 1.189315010 0.440846176 2.502751201
H 3.067403672 0.537297514 3.307402840
C -0.204910374 2.053469665 1.159920755
H 0.086514402 3.963420829 0.485642247
C -2.118536129 0.014087322 0.481878669
O -4.714749329 0.218035088 0.568606799
H -5.315960140 0.697430563 -1.073153205
C -0.802485824 -2.179044801 -0.794326440
H -2.053808587 -3.701887817 -1.366541463
H 0.823910178 -1.869276359 -2.000928457
C -0.572054113 -1.774516023 2.035442641
H -1.297015056 -3.110238472 3.397415654

