12

N 3.940815528 -0.479320868 -0.199247583
C 1.345723163 0.033794501 -0.088699303
C -0.070102981 2.167331711 -0.235324306
N -2.584547788 1.487236551 0.000284064
C -2.687383811 -0.993459618 0.280969582
O -4.980883295 -1.727706033 0.503273487
N -0.360684807 -1.990881539 0.244825037
H 4.736168789 -0.040833448 -1.873559744
H 4.935516489 0.297766186 1.227096475
H 0.553524309 4.087490533 -0.490527926
H -4.964196390 0.860919481 0.214345719
H 0.127358054 -3.815212689 0.415139665

