14

C -4.099240718 0.686376496 -0.550374665
C -1.746247213 -0.909010970 -0.195685713
N 0.500063636 0.653188446 -0.328905169
C 2.836182339 -0.382321774 -0.226312221
N 3.214890258 -2.754847318 -0.122568544
C 4.884707914 1.471292497 -0.278810665
N 6.531701533 2.880500971 -0.309636728
H -4.080986039 1.644920023 -2.377204713
H -4.276501620 2.111903606 0.933179944
H -5.779486639 -0.501966458 -0.473707512
H -1.607575633 -2.360888232 -1.656494180
H -1.793142298 -1.907117501 1.615966074
H 0.332670656 2.536450082 -0.174683581
H 5.082963825 -3.168479907 -0.110626457

