10

O 2.791327006 -2.058584568 -0.394239672
C 2.438138724 0.560082415 -0.150341546
N -0.037958966 0.551397687 0.051756103
C -2.048066371 2.046651476 0.315489361
C 0.104408937 -2.207343544 -0.167611470
H 3.863494436 2.000165669 -0.256274075
H -3.867631878 1.152464179 0.459455235
H -1.773709318 4.056901631 0.446630515
H -0.799941081 -2.923072721 -1.871097715
H -0.507361758 -3.184265224 1.536710091

