13

C -3.355262043 -0.031600359 0.347280412
C -0.618734071 0.149617856 1.066771676
N 1.266843235 -0.886262523 -0.794054508
C 3.278764172 0.620331324 0.462050169
C 1.014529517 2.540390029 0.330403193
O 0.793047341 1.083353059 -2.537644105
H -4.082288249 -1.955482282 0.537547260
H -3.653336709 0.636481094 -1.573813730
H -4.426064732 1.178459176 1.627243752
H -0.244560891 -0.575327667 2.966260598
H 1.374848964 -2.664136779 -1.583945307
H 4.863437553 0.956665725 -0.800209838
H 3.832462582 -0.093792796 2.316584907

