14

N -1.540062843 1.177958966 -3.084784542
C -1.719384908 2.945313645 -1.569598658
C -1.965006804 3.024505755 0.922737204
C 3.429901047 -0.534505614 1.137856124
C 2.064460350 -1.065746065 -0.892358590
C -0.731416286 -0.854691114 -1.111186721
C -2.228307088 0.144408127 1.296657690
H -1.307047612 4.414409676 2.248449698
H 5.469814592 -0.698208695 1.103916945
H 2.586450402 0.072058224 2.900819798
H 3.005540010 -1.660000964 -2.617558034
H -1.516439849 -2.613707509 -1.853093670
H -4.173403133 -0.546335281 1.204023221
H -1.441051191 -0.469176100 3.101686687

