28

C     3.05707   1.27663  -1.37093
N     2.26090   0.48520  -0.43552
C     1.51406  -0.54583  -0.85480
O     1.60431  -1.03114  -1.99751
C     0.59541  -1.19507   0.17251
O     0.25112  -0.56563   1.32429
C    -0.48569   0.60288   1.33883
C    -0.23822   1.70908   0.51799
N    -0.06574   2.64766  -0.16785
C    -1.33661   0.70745   2.45483
N    -2.06242   0.78431   3.37050
C    -1.64418  -0.48965  -1.02626
C    -1.33949   0.31399  -2.22942
C    -1.04412  -1.71145  -0.69326
C    -1.73567  -2.59669   0.32655
H     3.74277   1.98648  -0.87952
H     2.39081   1.91240  -2.05013
H     3.64991   0.64539  -2.06102
H     2.24339   0.89792   0.50294
H     0.98623  -2.21867   0.46449
H    -2.47959  -0.09502  -0.42105
H    -0.98977   1.28439  -1.99782
H    -0.60848  -0.21210  -2.91192
H    -2.27069   0.46308  -2.88576
H    -0.59361  -2.25917  -1.52533
H    -1.07867  -3.27323   0.77718
H    -2.61280  -3.24451  -0.11161
H    -2.27287  -1.97895   1.09745
28

C     3.05792   1.28166  -1.37704
N     2.26695   0.49286  -0.43685
C     1.52232  -0.54256  -0.84887
O     1.60676  -1.03165  -1.98898
C     0.61575  -1.19177   0.18518
O     0.24888  -0.56721   1.32226
C    -0.47806   0.60410   1.34526
C    -0.23493   1.70877   0.52090
N    -0.06581   2.64659  -0.16596
C    -1.33314   0.70637   2.45807
N    -2.06200   0.78317   3.37100
C    -1.65364  -0.49318  -1.03405
C    -1.34249   0.30969  -2.23725
C    -1.06873  -1.71799  -0.70529
C    -1.74730  -2.59752   0.32449
H     3.74345   1.98848  -0.88259
H     2.39018   1.91320  -2.05158
H     3.64953   0.64642  -2.06293
H     2.24623   0.90056   0.50245
H     0.98820  -2.21875   0.46625
H    -2.47965  -0.09334  -0.42204
H    -0.98827   1.28208  -2.00002
H    -0.61023  -0.21493  -2.91403
H    -2.27065   0.46378  -2.88872
H    -0.59886  -2.26139  -1.52699
H    -1.07929  -3.26870   0.77852
H    -2.61329  -3.24970  -0.10924
H    -2.27859  -1.97864   1.09497
28

C     3.05876   1.28669  -1.38315
N     2.27300   0.50052  -0.43818
C     1.53057  -0.53929  -0.84294
O     1.60922  -1.03216  -1.98044
C     0.63609  -1.18848   0.19785
O     0.24664  -0.56878   1.32022
C    -0.47044   0.60533   1.35169
C    -0.23165   1.70846   0.52381
N    -0.06588   2.64552  -0.16407
C    -1.32967   0.70528   2.46132
N    -2.06158   0.78202   3.37150
C    -1.66310  -0.49671  -1.04184
C    -1.34550   0.30539  -2.24508
C    -1.09333  -1.72453  -0.71731
C    -1.75894  -2.59834   0.32243
H     3.74413   1.99049  -0.88566
H     2.38956   1.91400  -2.05303
H     3.64914   0.64745  -2.06483
H     2.24908   0.90320   0.50196
H     0.99016  -2.21884   0.46801
H    -2.47971  -0.09166  -0.42302
H    -0.98676   1.27977  -2.00222
H    -0.61197  -0.21776  -2.91615
H    -2.27061   0.46449  -2.89169
H    -0.60411  -2.26360  -1.52864
H    -1.07990  -3.26416   0.77985
H    -2.61378  -3.25489  -0.10686
H    -2.28430  -1.97834   1.09249
28

C     3.05960   1.29172  -1.38926
N     2.27905   0.50818  -0.43951
C     1.53882  -0.53602  -0.83701
O     1.61168  -1.03268  -1.97191
C     0.65643  -1.18518   0.21052
O     0.24440  -0.57036   1.31819
C    -0.46281   0.60655   1.35812
C    -0.22837   1.70815   0.52672
N    -0.06595   2.64445  -0.16218
C    -1.32620   0.70419   2.46457
N    -2.06116   0.78087   3.37199
C    -1.67256  -0.50025  -1.04962
C    -1.34850   0.30109  -2.25292
C    -1.11793  -1.73107  -0.72933
C    -1.77058  -2.59917   0.32037
H     3.74481   1.99249  -0.88872
H     2.38893   1.91480  -2.05447
H     3.64875   0.64849  -2.06674
H     2.25192   0.90583   0.50147
H     0.99212  -2.21893   0.46976
H    -2.47976  -0.08998  -0.42401
H    -0.98526   1.27746  -2.00442
H    -0.61372  -0.22058  -2.91827
H    -2.27058   0.46519  -2.89465
H    -0.60936  -2.26582  -1.53029
H    -1.08052  -3.25962   0.78118
H    -2.61427  -3.26008  -0.10449
H    -2.29001  -1.97803   1.09000
28

C     3.06045   1.29675  -1.39537
N     2.28510   0.51584  -0.44084
C     1.54707  -0.53275  -0.83108
O     1.61414  -1.03319  -1.96337
C     0.67678  -1.18188   0.22318
O     0.24216  -0.57193   1.31615
C    -0.45519   0.60777   1.36456
C    -0.22509   1.70784   0.52963
N    -0.06602   2.64338  -0.16029
C    -1.32273   0.70310   2.46782
N    -2.06075   0.77972   3.37249
C    -1.68201  -0.50378  -1.05741
C    -1.35150   0.29679  -2.26075
C    -1.14253  -1.73761  -0.74135
C    -1.78222  -2.59999   0.31831
H     3.74550   1.99450  -0.89179
H     2.38831   1.91559  -2.05592
H     3.64837   0.64952  -2.06865
H     2.25476   0.90847   0.50098
H     0.99408  -2.21901   0.47152
H    -2.47982  -0.08830  -0.42500
H    -0.98376   1.27514  -2.00662
H    -0.61546  -0.22341  -2.92039
H    -2.27054   0.46589  -2.89761
H    -0.61461  -2.26804  -1.53194
H    -1.08114  -3.25509   0.78252
H    -2.61475  -3.26527  -0.10211
H    -2.29572  -1.97773   1.08752
28

C     3.06129   1.30178  -1.40148
N     2.29115   0.52350  -0.44217
C     1.55532  -0.52948  -0.82515
O     1.61660  -1.03370  -1.95484
C     0.69712  -1.17858   0.23585
O     0.23992  -0.57351   1.31412
C    -0.44756   0.60899   1.37099
C    -0.22180   1.70754   0.53254
N    -0.06609   2.64231  -0.15840
C    -1.31926   0.70202   2.47106
N    -2.06033   0.77858   3.37299
C    -1.69147  -0.50732  -1.06520
C    -1.35450   0.29249  -2.26858
C    -1.16713  -1.74415  -0.75338
C    -1.79386  -2.60082   0.31625
H     3.74618   1.99650  -0.89486
H     2.38768   1.91639  -2.05737
H     3.64798   0.65056  -2.07056
H     2.25761   0.91111   0.50049
H     0.99604  -2.21910   0.47328
H    -2.47988  -0.08662  -0.42599
H    -0.98226   1.27283  -2.00883
H    -0.61721  -0.22624  -2.92251
H    -2.27050   0.46659  -2.90057
H    -0.61986  -2.27025  -1.53359
H    -1.08176  -3.25055   0.78385
H    -2.61524  -3.27046  -0.09974
H    -2.30143  -1.97742   1.08504
28

C     3.06213   1.30681  -1.40760
N     2.29720   0.53116  -0.44350
C     1.56357  -0.52621  -0.81922
O     1.61906  -1.03422  -1.94630
C     0.71746  -1.17529   0.24852
O     0.23768  -0.57508   1.31208
C    -0.43994   0.61021   1.37742
C    -0.21852   1.70723   0.53545
N    -0.06616   2.64125  -0.15651
C    -1.31579   0.70093   2.47431
N    -2.05991   0.77743   3.37349
C    -1.70093  -0.51085  -1.07299
C    -1.35750   0.28819  -2.27642
C    -1.19173  -1.75069  -0.76540
C    -1.80550  -2.60164   0.31419
H     3.74686   1.99850  -0.89792
H     2.38706   1.91719  -2.05882
H     3.64759   0.65159  -2.07246
H     2.26045   0.91374   0.50000
H     0.99801  -2.21919   0.47504
H    -2.47993  -0.08494  -0.42698
H    -0.98076   1.27052  -2.01103
H    -0.61895  -0.22906  -2.92463
H    -2.27047   0.46729  -2.90353
H    -0.62510  -2.27247  -1.53524
H    -1.08238  -3.24602   0.78519
H    -2.61573  -3.27565  -0.09736
H    -2.30714  -1.97711   1.08256
28

C     3.06298   1.31184  -1.41371
N     2.30325   0.53882  -0.44483
C     1.57183  -0.52294  -0.81329
O     1.62152  -1.03473  -1.93777
C     0.73780  -1.17199   0.26118
O     0.23544  -0.57666   1.31005
C    -0.43231   0.61143   1.38385
C    -0.21524   1.70692   0.53836
N    -0.06623   2.64018  -0.15462
C    -1.31232   0.69984   2.47756
N    -2.05949   0.77628   3.37399
C    -1.71039  -0.51439  -1.08078
C    -1.36050   0.28389  -2.28425
C    -1.21634  -1.75723  -0.77742
C    -1.81714  -2.60246   0.31213
H     3.74754   2.00051  -0.90099
H     2.38643   1.91798  -2.06026
H     3.64721   0.65263  -2.07437
H     2.26329   0.91638   0.49951
H     0.99997  -2.21928   0.47680
H    -2.47999  -0.08326  -0.42797
H    -0.97926   1.26821  -2.01323
H    -0.62070  -0.23189  -2.92674
H    -2.27043   0.46799  -2.90650
H    -0.63035  -2.27468  -1.53690
H    -1.08299  -3.24148   0.78652
H    -2.61622  -3.28083  -0.09499
H    -2.31286  -1.97681   1.08007
28

C     3.06382   1.31687  -1.41982
N     2.30930   0.54648  -0.44616
C     1.58008  -0.51967  -0.80736
O     1.62398  -1.03524  -1.92924
C     0.75814  -1.16869   0.27385
O     0.23320  -0.57824   1.30801
C    -0.42468   0.61265   1.39028
C    -0.21195   1.70661   0.54127
N    -0.06630   2.63911  -0.15273
C    -1.30885   0.69875   2.48080
N    -2.05908   0.77513   3.37448
C    -1.71985  -0.51792  -1.08857
C    -1.36350   0.27959  -2.29208
C    -1.24094  -1.76377  -0.78945
C    -1.82877  -2.60329   0.31007
H     3.74822   2.00251  -0.90406
H     2.38581   1.91878  -2.06171
H     3.64682   0.65366  -2.07628
H     2.26613   0.91902   0.49901
H     1.00193  -2.21936   0.47855
H    -2.48005  -0.08158  -0.42896
H    -0.97776   1.26589  -2.01543
H    -0.62244  -0.23472  -2.92886
H    -2.27039   0.46869  -2.90946
H    -0.63560  -2.27690  -1.53855
H    -1.08361  -3.23695   0.78785
H    -2.61671  -3.28602  -0.09261
H    -2.31857  -1.97650   1.07759
28

C     3.06466   1.32190  -1.42593
N     2.31535   0.55414  -0.44749
C     1.58833  -0.51640  -0.80144
O     1.62644  -1.03576  -1.92070
C     0.77849  -1.16539   0.28652
O     0.23096  -0.57981   1.30597
C    -0.41706   0.61387   1.39671
C    -0.20867   1.70630   0.54418
N    -0.06637   2.63804  -0.15085
C    -1.30538   0.69767   2.48405
N    -2.05866   0.77399   3.37498
C    -1.72931  -0.52146  -1.09636
C    -1.36650   0.27529  -2.29992
C    -1.26554  -1.77031  -0.80147
C    -1.84041  -2.60411   0.30801
H     3.74891   2.00451  -0.90712
H     2.38519   1.91958  -2.06316
H     3.64644   0.65470  -2.07819
H     2.26898   0.92165   0.49852
H     1.00389  -2.21945   0.48031
H    -2.48011  -0.07990  -0.42994
H    -0.97626   1.26358  -2.01763
H    -0.62418  -0.23754  -2.93098
H    -2.27035   0.46939  -2.91242
H    -0.64085  -2.27911  -1.54020
H    -1.08423  -3.23241   0.78919
H    -2.61720  -3.29121  -0.09024
H    -2.32428  -1.97620   1.07511
28

C     3.06551   1.32693  -1.43204
N     2.32140   0.56181  -0.44882
C     1.59658  -0.51313  -0.79551
O     1.62890  -1.03627  -1.91217
C     0.79883  -1.16210   0.29919
O     0.22872  -0.58139   1.30394
C    -0.40943   0.61509   1.40315
C    -0.20539   1.70599   0.54709
N    -0.06644   2.63697  -0.14896
C    -1.30191   0.69658   2.48730
N    -2.05824   0.77284   3.37548
C    -1.73877  -0.52499  -1.10415
C    -1.36950   0.27099  -2.30775
C    -1.29014  -1.77685  -0.81349
C    -1.85205  -2.60494   0.30595
H     3.74959   2.00652  -0.91019
H     2.38456   1.92038  -2.06460
H     3.64605   0.65573  -2.08010
H     2.27182   0.92429   0.49803
H     1.00585  -2.21954   0.48207
H    -2.48016  -0.07822  -0.43093
H    -0.97476   1.26127  -2.01983
H    -0.62593  -0.24037  -2.93310
H    -2.27032   0.47009  -2.91538
H    -0.64610  -2.28133  -1.54185
H    -1.08485  -3.22787   0.79052
H    -2.61768  -3.29640  -0.08786
H    -2.32999  -1.97589   1.07262
28

C     3.06635   1.33196  -1.43815
N     2.32745   0.56947  -0.45015
C     1.60483  -0.50986  -0.78958
O     1.63135  -1.03678  -1.90363
C     0.81917  -1.15880   0.31185
O     0.22648  -0.58296   1.30190
C    -0.40181   0.61631   1.40958
C    -0.20211   1.70568   0.55001
N    -0.06651   2.63590  -0.14707
C    -1.29844   0.69549   2.49054
N    -2.05782   0.77169   3.37598
C    -1.74822  -0.52852  -1.11194
C    -1.37250   0.26669  -2.31558
C    -1.31474  -1.78339  -0.82552
C    -1.86369  -2.60576   0.30389
H     3.75027   2.00852  -0.91326
H     2.38394   1.92117  -2.06605
H     3.64566   0.65676  -2.08200
H     2.27466   0.92693   0.49754
H     1.00782  -2.21962   0.48383
H    -2.48022  -0.07654  -0.43192
H    -0.97326   1.25896  -2.02203
H    -0.62767  -0.24320  -2.93522
H    -2.27028   0.47079  -2.91834
H    -0.65134  -2.28355  -1.54350
H    -1.08547  -3.22334   0.79186
H    -2.61817  -3.30159  -0.08549
H    -2.33570  -1.97559   1.07014
28

C     3.06719   1.33700  -1.44426
N     2.33349   0.57713  -0.45148
C     1.61309  -0.50659  -0.78365
O     1.63381  -1.03730  -1.89510
C     0.83951  -1.15550   0.32452
O     0.22423  -0.58454   1.29987
C    -0.39418   0.61753   1.41601
C    -0.19882   1.70537   0.55292
N    -0.06658   2.63483  -0.14518
C    -1.29497   0.69440   2.49379
N    -2.05741   0.77054   3.37648
C    -1.75768  -0.53206  -1.11973
C    -1.37550   0.26239  -2.32342
C    -1.33935  -1.78993  -0.83754
C    -1.87533  -2.60659   0.30183
H     3.75095   2.01052  -0.91632
H     2.38331   1.92197  -2.06750
H     3.64528   0.65780  -2.08391
H     2.27751   0.92957   0.49705
H     1.00978  -2.21971   0.48559
H    -2.48028  -0.07486  -0.43291
H    -0.97175   1.25664  -2.02423
H    -0.62942  -0.24602  -2.93733
H    -2.27024   0.47150  -2.92131
H    -0.65659  -2.28576  -1.54515
H    -1.08608  -3.21880   0.79319
H    -2.61866  -3.30678  -0.08311
H    -2.34142  -1.97528   1.06766
28

C     3.06804   1.34203  -1.45038
N     2.33954   0.58479  -0.45281
C     1.62134  -0.50331  -0.77772
O     1.63627  -1.03781  -1.88656
C     0.85985  -1.15220   0.33719
O     0.22199  -0.58611   1.29783
C    -0.38656   0.61875   1.42244
C    -0.19554   1.70506   0.55583
N    -0.06665   2.63376  -0.14329
C    -1.29150   0.69332   2.49704
N    -2.05699   0.76940   3.37698
C    -1.76714  -0.53559  -1.12752
C    -1.37850   0.25809  -2.33125
C    -1.36395  -1.79647  -0.84956
C    -1.88697  -2.60741   0.29977
H     3.75163   2.01253  -0.91939
H     2.38269   1.92277  -2.06894
H     3.64489   0.65883  -2.08582
H     2.28035   0.93220   0.49656
H     1.01174  -2.21980   0.48734
H    -2.48033  -0.07318  -0.43390
H    -0.97025   1.25433  -2.02643
H    -0.63116  -0.24885  -2.93945
H    -2.27020   0.47220  -2.92427
H    -0.66184  -2.28798  -1.54681
H    -1.08670  -3.21427   0.79452
H    -2.61915  -3.31197  -0.08074
H    -2.34713  -1.97498   1.06518
28

C     3.06888   1.34706  -1.45649
N     2.34559   0.59245  -0.45414
C     1.62959  -0.50004  -0.77179
O     1.63873  -1.03832  -1.87803
C     0.88020  -1.14891   0.34985
O     0.21975  -0.58769   1.29580
C    -0.37893   0.61997   1.42887
C    -0.19226   1.70476   0.55874
N    -0.06672   2.63269  -0.14140
C    -1.28803   0.69223   2.50029
N    -2.05657   0.76825   3.37747
C    -1.77660  -0.53913  -1.13530
C    -1.38150   0.25379  -2.33908
C    -1.38855  -1.80301  -0.86158
C    -1.89861  -2.60823   0.29771
H     3.75231   2.01453  -0.92246
H     2.38206   1.92357  -2.07039
H     3.64450   0.65987  -2.08773
H     2.28319   0.93484   0.49607
H     1.01370  -2.21989   0.48910
H    -2.48039  -0.07150  -0.43489
H    -0.96875   1.25202  -2.02863
H    -0.63291  -0.25168  -2.94157
H    -2.27017   0.47290  -2.92723
H    -0.66709  -2.29019  -1.54846
H    -1.08732  -3.20973   0.79586
H    -2.61964  -3.31716  -0.07836
H    -2.35284  -1.97467   1.06269
28

C     3.06972   1.35209  -1.46260
N     2.35164   0.60011  -0.45547
C     1.63784  -0.49677  -0.76586
O     1.64119  -1.03884  -1.86950
C     0.90054  -1.14561   0.36252
O     0.21751  -0.58926   1.29376
C    -0.37130   0.62119   1.43530
C    -0.18897   1.70445   0.56165
N    -0.06679   2.63162  -0.13951
C    -1.28457   0.69114   2.50353
N    -2.05615   0.76710   3.37797
C    -1.78606  -0.54266  -1.14309
C    -1.38450   0.24949  -2.34692
C    -1.41315  -1.80955  -0.87361
C    -1.91024  -2.60906   0.29566
H     3.75300   2.01654  -0.92552
H     2.38144   1.92436  -2.07184
H     3.64412   0.66090  -2.08964
H     2.28603   0.93748   0.49558
H     1.01566  -2.21997   0.49086
H    -2.48045  -0.06982  -0.43588
H    -0.96725   1.24971  -2.03083
H    -0.63465  -0.25451  -2.94369
H    -2.27013   0.47360  -2.93019
H    -0.67234  -2.29241  -1.55011
H    -1.08794  -3.20520   0.79719
H    -2.62012  -3.32235  -0.07599
H    -2.35855  -1.97437   1.06021
28

C     3.07057   1.35712  -1.46871
N     2.35769   0.60777  -0.45680
C     1.64609  -0.49350  -0.75993
O     1.64365  -1.03935  -1.86096
C     0.92088  -1.14231   0.37519
O     0.21527  -0.59084   1.29173
C    -0.36368   0.62241   1.44174
C    -0.18569   1.70414   0.56456
N    -0.06686   2.63055  -0.13762
C    -1.28110   0.69005   2.50678
N    -2.05574   0.76596   3.37847
C    -1.79552  -0.54620  -1.15088
C    -1.38750   0.24519  -2.35475
C    -1.43775  -1.81609  -0.88563
C    -1.92188  -2.60988   0.29360
H     3.75368   2.01854  -0.92859
H     2.38081   1.92516  -2.07328
H     3.64373   0.66194  -2.09154
H     2.28888   0.94011   0.49509
H     1.01763  -2.22006   0.49262
H    -2.48050  -0.06815  -0.43686
H    -0.96575   1.24739  -2.03303
H    -0.63640  -0.25733  -2.94581
H    -2.27009   0.47430  -2.93315
H    -0.67759  -2.29463  -1.55176
H    -1.08855  -3.20066   0.79853
H    -2.62061  -3.32753  -0.07361
H    -2.36426  -1.97406   1.05773
28

C     3.07141   1.36215  -1.47482
N     2.36374   0.61543  -0.45813
C     1.65434  -0.49023  -0.75400
O     1.64611  -1.03986  -1.85243
C     0.94122  -1.13901   0.38786
O     0.21303  -0.59241   1.28969
C    -0.35605   0.62363   1.44817
C    -0.18241   1.70383   0.56747
N    -0.06694   2.62949  -0.13573
C    -1.27763   0.68897   2.51003
N    -2.05532   0.76481   3.37897
C    -1.80498  -0.54973  -1.15867
C    -1.39050   0.24089  -2.36258
C    -1.46236  -1.82263  -0.89765
C    -1.93352  -2.61071   0.29154
H     3.75436   2.02054  -0.93166
H     2.38019   1.92596  -2.07473
H     3.64334   0.66297  -2.09345
H     2.29172   0.94275   0.49460
H     1.01959  -2.22015   0.49437
H    -2.48056  -0.06647  -0.43785
H    -0.96425   1.24508  -2.03523
H    -0.63814  -0.26016  -2.94793
H    -2.27006   0.47500  -2.93612
H    -0.68283  -2.29684  -1.55341
H    -1.08917  -3.19612   0.79986
H    -2.62110  -3.33272  -0.07124
H    -2.36998  -1.97375   1.05525
28

C     3.07225   1.36718  -1.48093
N     2.36979   0.62309  -0.45946
C     1.66260  -0.48696  -0.74807
O     1.64857  -1.04038  -1.84389
C     0.96156  -1.13572   0.40052
O     0.21079  -0.59399   1.28766
C    -0.34843   0.62485   1.45460
C    -0.17913   1.70352   0.57038
N    -0.06701   2.62842  -0.13384
C    -1.27416   0.68788   2.51327
N    -2.05490   0.76366   3.37947
C    -1.81444  -0.55327  -1.16646
C    -1.39350   0.23659  -2.37042
C    -1.48696  -1.82917  -0.90968
C    -1.94516  -2.61153   0.28948
H     3.75504   2.02255  -0.93472
H     2.37957   1.92675  -2.07618
H     3.64296   0.66400  -2.09536
H     2.29456   0.94539   0.49411
H     1.02155  -2.22024   0.49613
H    -2.48062  -0.06479  -0.43884
H    -0.96275   1.24277  -2.03743
H    -0.63988  -0.26299  -2.95004
H    -2.27002   0.47570  -2.93908
H    -0.68808  -2.29906  -1.55507
H    -1.08979  -3.19159   0.80119
H    -2.62159  -3.33791  -0.06886
H    -2.37569  -1.97345   1.05276
28

C     3.07310   1.37221  -1.48704
N     2.37584   0.63075  -0.46079
C     1.67085  -0.48369  -0.74214
O     1.65103  -1.04089  -1.83536
C     0.98191  -1.13242   0.41319
O     0.20855  -0.59556   1.28562
C    -0.34080   0.62607   1.46103
C    -0.17584   1.70321   0.57329
N    -0.06708   2.62735  -0.13195
C    -1.27069   0.68679   2.51652
N    -2.05448   0.76251   3.37996
C    -1.82389  -0.55680  -1.17425
C    -1.39651   0.23229  -2.37825
C    -1.51156  -1.83571  -0.92170
C    -1.95680  -2.61235   0.28742
H     3.75572   2.02455  -0.93779
H     2.37894   1.92755  -2.07763
H     3.64257   0.66504  -2.09727
H     2.29741   0.94802   0.49362
H     1.02351  -2.22032   0.49789
H    -2.48068  -0.06311  -0.43983
H    -0.96125   1.24046  -2.03963
H    -0.64163  -0.26581  -2.95216
H    -2.26998   0.47640  -2.94204
H    -0.69333  -2.30127  -1.55672
H    -1.09041  -3.18705   0.80253
H    -2.62208  -3.34310  -0.06649
H    -2.38140  -1.97314   1.05028
28

C     3.07394   1.37724  -1.49316
N     2.38189   0.63841  -0.46212
C     1.67910  -0.48042  -0.73621
O     1.65349  -1.04140  -1.82682
C     1.00225  -1.12912   0.42586
O     0.20631  -0.59714   1.28359
C    -0.33318   0.62729   1.46746
C    -0.17256   1.70290   0.57620
N    -0.06715   2.62628  -0.13007
C    -1.26722   0.68570   2.51977
N    -2.05407   0.76137   3.38046
C    -1.83335  -0.56033  -1.18204
C    -1.39951   0.22799  -2.38608
C    -1.53616  -1.84225  -0.93372
C    -1.96844  -2.61318   0.28536
H     3.75640   2.02655  -0.94086
H     2.37832   1.92835  -2.07907
H     3.64218   0.66607  -2.09917
H     2.30025   0.95066   0.49313
H     1.02547  -2.22041   0.49965
H    -2.48073  -0.06143  -0.44082
H    -0.95975   1.23814  -2.04183
H    -0.64337  -0.26864  -2.95428
H    -2.26994   0.47710  -2.94500
H    -0.69858  -2.30349  -1.55837
H    -1.09103  -3.18252   0.80386
H    -2.62256  -3.34829  -0.06412
H    -2.38711  -1.97284   1.04780
28

C     3.07310   1.37221  -1.48704
N     2.37584   0.63075  -0.46079
C     1.67085  -0.48369  -0.74214
O     1.65103  -1.04089  -1.83536
C     0.98191  -1.13242   0.41319
O     0.20855  -0.59556   1.28562
C    -0.34080   0.62607   1.46103
C    -0.17584   1.70321   0.57329
N    -0.06708   2.62735  -0.13195
C    -1.27069   0.68679   2.51652
N    -2.05448   0.76251   3.37996
C    -1.82389  -0.55680  -1.17425
C    -1.39651   0.23229  -2.37825
C    -1.51156  -1.83571  -0.92170
C    -1.95680  -2.61235   0.28742
H     3.75572   2.02455  -0.93779
H     2.37894   1.92755  -2.07763
H     3.64257   0.66504  -2.09727
H     2.29741   0.94802   0.49362
H     1.02351  -2.22032   0.49789
H    -2.48068  -0.06311  -0.43983
H    -0.96125   1.24046  -2.03963
H    -0.64163  -0.26581  -2.95216
H    -2.26998   0.47640  -2.94204
H    -0.69333  -2.30127  -1.55672
H    -1.09041  -3.18705   0.80253
H    -2.62208  -3.34310  -0.06649
H    -2.38140  -1.97314   1.05028
28

C     3.07225   1.36718  -1.48093
N     2.36979   0.62309  -0.45946
C     1.66260  -0.48696  -0.74807
O     1.64857  -1.04038  -1.84389
C     0.96156  -1.13572   0.40052
O     0.21079  -0.59399   1.28766
C    -0.34843   0.62485   1.45460
C    -0.17913   1.70352   0.57038
N    -0.06701   2.62842  -0.13384
C    -1.27416   0.68788   2.51327
N    -2.05490   0.76366   3.37947
C    -1.81444  -0.55327  -1.16646
C    -1.39350   0.23659  -2.37042
C    -1.48696  -1.82917  -0.90968
C    -1.94516  -2.61153   0.28948
H     3.75504   2.02255  -0.93472
H     2.37957   1.92675  -2.07618
H     3.64296   0.66400  -2.09536
H     2.29456   0.94539   0.49411
H     1.02155  -2.22024   0.49613
H    -2.48062  -0.06479  -0.43884
H    -0.96275   1.24277  -2.03743
H    -0.63988  -0.26299  -2.95004
H    -2.27002   0.47570  -2.93908
H    -0.68808  -2.29906  -1.55507
H    -1.08979  -3.19159   0.80119
H    -2.62159  -3.33791  -0.06886
H    -2.37569  -1.97345   1.05276
28

C     3.07141   1.36215  -1.47482
N     2.36374   0.61543  -0.45813
C     1.65434  -0.49023  -0.75400
O     1.64611  -1.03986  -1.85243
C     0.94122  -1.13901   0.38786
O     0.21303  -0.59241   1.28969
C    -0.35605   0.62363   1.44817
C    -0.18241   1.70383   0.56747
N    -0.06694   2.62949  -0.13573
C    -1.27763   0.68897   2.51003
N    -2.05532   0.76481   3.37897
C    -1.80498  -0.54973  -1.15867
C    -1.39050   0.24089  -2.36258
C    -1.46236  -1.82263  -0.89765
C    -1.93352  -2.61071   0.29154
H     3.75436   2.02054  -0.93166
H     2.38019   1.92596  -2.07473
H     3.64334   0.66297  -2.09345
H     2.29172   0.94275   0.49460
H     1.01959  -2.22015   0.49437
H    -2.48056  -0.06647  -0.43785
H    -0.96425   1.24508  -2.03523
H    -0.63814  -0.26016  -2.94793
H    -2.27006   0.47500  -2.93612
H    -0.68283  -2.29684  -1.55341
H    -1.08917  -3.19612   0.79986
H    -2.62110  -3.33272  -0.07124
H    -2.36998  -1.97375   1.05525
28

C     3.07057   1.35712  -1.46871
N     2.35769   0.60777  -0.45680
C     1.64609  -0.49350  -0.75993
O     1.64365  -1.03935  -1.86096
C     0.92088  -1.14231   0.37519
O     0.21527  -0.59084   1.29173
C    -0.36368   0.62241   1.44174
C    -0.18569   1.70414   0.56456
N    -0.06686   2.63055  -0.13762
C    -1.28110   0.69005   2.50678
N    -2.05574   0.76596   3.37847
C    -1.79552  -0.54620  -1.15088
C    -1.38750   0.24519  -2.35475
C    -1.43775  -1.81609  -0.88563
C    -1.92188  -2.60988   0.29360
H     3.75368   2.01854  -0.92859
H     2.38081   1.92516  -2.07328
H     3.64373   0.66194  -2.09154
H     2.28888   0.94011   0.49509
H     1.01763  -2.22006   0.49262
H    -2.48050  -0.06815  -0.43686
H    -0.96575   1.24739  -2.03303
H    -0.63640  -0.25733  -2.94581
H    -2.27009   0.47430  -2.93315
H    -0.67759  -2.29463  -1.55176
H    -1.08855  -3.20066   0.79853
H    -2.62061  -3.32753  -0.07361
H    -2.36426  -1.97406   1.05773
28

C     3.06972   1.35209  -1.46260
N     2.35164   0.60011  -0.45547
C     1.63784  -0.49677  -0.76586
O     1.64119  -1.03884  -1.86950
C     0.90054  -1.14561   0.36252
O     0.21751  -0.58926   1.29376
C    -0.37130   0.62119   1.43530
C    -0.18897   1.70445   0.56165
N    -0.06679   2.63162  -0.13951
C    -1.28457   0.69114   2.50353
N    -2.05615   0.76710   3.37797
C    -1.78606  -0.54266  -1.14309
C    -1.38450   0.24949  -2.34692
C    -1.41315  -1.80955  -0.87361
C    -1.91024  -2.60906   0.29566
H     3.75300   2.01654  -0.92552
H     2.38144   1.92436  -2.07184
H     3.64412   0.66090  -2.08964
H     2.28603   0.93748   0.49558
H     1.01566  -2.21997   0.49086
H    -2.48045  -0.06982  -0.43588
H    -0.96725   1.24971  -2.03083
H    -0.63465  -0.25451  -2.94369
H    -2.27013   0.47360  -2.93019
H    -0.67234  -2.29241  -1.55011
H    -1.08794  -3.20520   0.79719
H    -2.62012  -3.32235  -0.07599
H    -2.35855  -1.97437   1.06021
28

C     3.06888   1.34706  -1.45649
N     2.34559   0.59245  -0.45414
C     1.62959  -0.50004  -0.77179
O     1.63873  -1.03832  -1.87803
C     0.88020  -1.14891   0.34985
O     0.21975  -0.58769   1.29580
C    -0.37893   0.61997   1.42887
C    -0.19226   1.70476   0.55874
N    -0.06672   2.63269  -0.14140
C    -1.28803   0.69223   2.50029
N    -2.05657   0.76825   3.37747
C    -1.77660  -0.53913  -1.13530
C    -1.38150   0.25379  -2.33908
C    -1.38855  -1.80301  -0.86158
C    -1.89861  -2.60823   0.29771
H     3.75231   2.01453  -0.92246
H     2.38206   1.92357  -2.07039
H     3.64450   0.65987  -2.08773
H     2.28319   0.93484   0.49607
H     1.01370  -2.21989   0.48910
H    -2.48039  -0.07150  -0.43489
H    -0.96875   1.25202  -2.02863
H    -0.63291  -0.25168  -2.94157
H    -2.27017   0.47290  -2.92723
H    -0.66709  -2.29019  -1.54846
H    -1.08732  -3.20973   0.79586
H    -2.61964  -3.31716  -0.07836
H    -2.35284  -1.97467   1.06269
28

C     3.06804   1.34203  -1.45038
N     2.33954   0.58479  -0.45281
C     1.62134  -0.50331  -0.77772
O     1.63627  -1.03781  -1.88656
C     0.85985  -1.15220   0.33719
O     0.22199  -0.58611   1.29783
C    -0.38656   0.61875   1.42244
C    -0.19554   1.70506   0.55583
N    -0.06665   2.63376  -0.14329
C    -1.29150   0.69332   2.49704
N    -2.05699   0.76940   3.37698
C    -1.76714  -0.53559  -1.12752
C    -1.37850   0.25809  -2.33125
C    -1.36395  -1.79647  -0.84956
C    -1.88697  -2.60741   0.29977
H     3.75163   2.01253  -0.91939
H     2.38269   1.92277  -2.06894
H     3.64489   0.65883  -2.08582
H     2.28035   0.93220   0.49656
H     1.01174  -2.21980   0.48734
H    -2.48033  -0.07318  -0.43390
H    -0.97025   1.25433  -2.02643
H    -0.63116  -0.24885  -2.93945
H    -2.27020   0.47220  -2.92427
H    -0.66184  -2.28798  -1.54681
H    -1.08670  -3.21427   0.79452
H    -2.61915  -3.31197  -0.08074
H    -2.34713  -1.97498   1.06518
28

C     3.06719   1.33700  -1.44426
N     2.33349   0.57713  -0.45148
C     1.61309  -0.50659  -0.78365
O     1.63381  -1.03730  -1.89510
C     0.83951  -1.15550   0.32452
O     0.22423  -0.58454   1.29987
C    -0.39418   0.61753   1.41601
C    -0.19882   1.70537   0.55292
N    -0.06658   2.63483  -0.14518
C    -1.29497   0.69440   2.49379
N    -2.05741   0.77054   3.37648
C    -1.75768  -0.53206  -1.11973
C    -1.37550   0.26239  -2.32342
C    -1.33935  -1.78993  -0.83754
C    -1.87533  -2.60659   0.30183
H     3.75095   2.01052  -0.91632
H     2.38331   1.92197  -2.06750
H     3.64528   0.65780  -2.08391
H     2.27751   0.92957   0.49705
H     1.00978  -2.21971   0.48559
H    -2.48028  -0.07486  -0.43291
H    -0.97175   1.25664  -2.02423
H    -0.62942  -0.24602  -2.93733
H    -2.27024   0.47150  -2.92131
H    -0.65659  -2.28576  -1.54515
H    -1.08608  -3.21880   0.79319
H    -2.61866  -3.30678  -0.08311
H    -2.34142  -1.97528   1.06766
28

C     3.06635   1.33196  -1.43815
N     2.32745   0.56947  -0.45015
C     1.60483  -0.50986  -0.78958
O     1.63135  -1.03678  -1.90363
C     0.81917  -1.15880   0.31185
O     0.22648  -0.58296   1.30190
C    -0.40181   0.61631   1.40958
C    -0.20211   1.70568   0.55001
N    -0.06651   2.63590  -0.14707
C    -1.29844   0.69549   2.49054
N    -2.05782   0.77169   3.37598
C    -1.74822  -0.52852  -1.11194
C    -1.37250   0.26669  -2.31558
C    -1.31474  -1.78339  -0.82552
C    -1.86369  -2.60576   0.30389
H     3.75027   2.00852  -0.91326
H     2.38394   1.92117  -2.06605
H     3.64566   0.65676  -2.08200
H     2.27466   0.92693   0.49754
H     1.00782  -2.21962   0.48383
H    -2.48022  -0.07654  -0.43192
H    -0.97326   1.25896  -2.02203
H    -0.62767  -0.24320  -2.93522
H    -2.27028   0.47079  -2.91834
H    -0.65134  -2.28355  -1.54350
H    -1.08547  -3.22334   0.79186
H    -2.61817  -3.30159  -0.08549
H    -2.33570  -1.97559   1.07014
28

C     3.06551   1.32693  -1.43204
N     2.32140   0.56181  -0.44882
C     1.59658  -0.51313  -0.79551
O     1.62890  -1.03627  -1.91217
C     0.79883  -1.16210   0.29919
O     0.22872  -0.58139   1.30394
C    -0.40943   0.61509   1.40315
C    -0.20539   1.70599   0.54709
N    -0.06644   2.63697  -0.14896
C    -1.30191   0.69658   2.48730
N    -2.05824   0.77284   3.37548
C    -1.73877  -0.52499  -1.10415
C    -1.36950   0.27099  -2.30775
C    -1.29014  -1.77685  -0.81349
C    -1.85205  -2.60494   0.30595
H     3.74959   2.00652  -0.91019
H     2.38456   1.92038  -2.06460
H     3.64605   0.65573  -2.08010
H     2.27182   0.92429   0.49803
H     1.00585  -2.21954   0.48207
H    -2.48016  -0.07822  -0.43093
H    -0.97476   1.26127  -2.01983
H    -0.62593  -0.24037  -2.93310
H    -2.27032   0.47009  -2.91538
H    -0.64610  -2.28133  -1.54185
H    -1.08485  -3.22787   0.79052
H    -2.61768  -3.29640  -0.08786
H    -2.32999  -1.97589   1.07262
28

C     3.06466   1.32190  -1.42593
N     2.31535   0.55414  -0.44749
C     1.58833  -0.51640  -0.80144
O     1.62644  -1.03576  -1.92070
C     0.77849  -1.16539   0.28652
O     0.23096  -0.57981   1.30597
C    -0.41706   0.61387   1.39671
C    -0.20867   1.70630   0.54418
N    -0.06637   2.63804  -0.15085
C    -1.30538   0.69767   2.48405
N    -2.05866   0.77399   3.37498
C    -1.72931  -0.52146  -1.09636
C    -1.36650   0.27529  -2.29992
C    -1.26554  -1.77031  -0.80147
C    -1.84041  -2.60411   0.30801
H     3.74891   2.00451  -0.90712
H     2.38519   1.91958  -2.06316
H     3.64644   0.65470  -2.07819
H     2.26898   0.92165   0.49852
H     1.00389  -2.21945   0.48031
H    -2.48011  -0.07990  -0.42994
H    -0.97626   1.26358  -2.01763
H    -0.62418  -0.23754  -2.93098
H    -2.27035   0.46939  -2.91242
H    -0.64085  -2.27911  -1.54020
H    -1.08423  -3.23241   0.78919
H    -2.61720  -3.29121  -0.09024
H    -2.32428  -1.97620   1.07511
28

C     3.06382   1.31687  -1.41982
N     2.30930   0.54648  -0.44616
C     1.58008  -0.51967  -0.80736
O     1.62398  -1.03524  -1.92924
C     0.75814  -1.16869   0.27385
O     0.23320  -0.57824   1.30801
C    -0.42468   0.61265   1.39028
C    -0.21195   1.70661   0.54127
N    -0.06630   2.63911  -0.15273
C    -1.30885   0.69875   2.48080
N    -2.05908   0.77513   3.37448
C    -1.71985  -0.51792  -1.08857
C    -1.36350   0.27959  -2.29208
C    -1.24094  -1.76377  -0.78945
C    -1.82877  -2.60329   0.31007
H     3.74822   2.00251  -0.90406
H     2.38581   1.91878  -2.06171
H     3.64682   0.65366  -2.07628
H     2.26613   0.91902   0.49901
H     1.00193  -2.21936   0.47855
H    -2.48005  -0.08158  -0.42896
H    -0.97776   1.26589  -2.01543
H    -0.62244  -0.23472  -2.92886
H    -2.27039   0.46869  -2.90946
H    -0.63560  -2.27690  -1.53855
H    -1.08361  -3.23695   0.78785
H    -2.61671  -3.28602  -0.09261
H    -2.31857  -1.97650   1.07759
28

C     3.06298   1.31184  -1.41371
N     2.30325   0.53882  -0.44483
C     1.57183  -0.52294  -0.81329
O     1.62152  -1.03473  -1.93777
C     0.73780  -1.17199   0.26118
O     0.23544  -0.57666   1.31005
C    -0.43231   0.61143   1.38385
C    -0.21524   1.70692   0.53836
N    -0.06623   2.64018  -0.15462
C    -1.31232   0.69984   2.47756
N    -2.05949   0.77628   3.37399
C    -1.71039  -0.51439  -1.08078
C    -1.36050   0.28389  -2.28425
C    -1.21634  -1.75723  -0.77742
C    -1.81714  -2.60246   0.31213
H     3.74754   2.00051  -0.90099
H     2.38643   1.91798  -2.06026
H     3.64721   0.65263  -2.07437
H     2.26329   0.91638   0.49951
H     0.99997  -2.21928   0.47680
H    -2.47999  -0.08326  -0.42797
H    -0.97926   1.26821  -2.01323
H    -0.62070  -0.23189  -2.92674
H    -2.27043   0.46799  -2.90650
H    -0.63035  -2.27468  -1.53690
H    -1.08299  -3.24148   0.78652
H    -2.61622  -3.28083  -0.09499
H    -2.31286  -1.97681   1.08007
28

C     3.06213   1.30681  -1.40760
N     2.29720   0.53116  -0.44350
C     1.56357  -0.52621  -0.81922
O     1.61906  -1.03422  -1.94630
C     0.71746  -1.17529   0.24852
O     0.23768  -0.57508   1.31208
C    -0.43994   0.61021   1.37742
C    -0.21852   1.70723   0.53545
N    -0.06616   2.64125  -0.15651
C    -1.31579   0.70093   2.47431
N    -2.05991   0.77743   3.37349
C    -1.70093  -0.51085  -1.07299
C    -1.35750   0.28819  -2.27642
C    -1.19173  -1.75069  -0.76540
C    -1.80550  -2.60164   0.31419
H     3.74686   1.99850  -0.89792
H     2.38706   1.91719  -2.05882
H     3.64759   0.65159  -2.07246
H     2.26045   0.91374   0.50000
H     0.99801  -2.21919   0.47504
H    -2.47993  -0.08494  -0.42698
H    -0.98076   1.27052  -2.01103
H    -0.61895  -0.22906  -2.92463
H    -2.27047   0.46729  -2.90353
H    -0.62510  -2.27247  -1.53524
H    -1.08238  -3.24602   0.78519
H    -2.61573  -3.27565  -0.09736
H    -2.30714  -1.97711   1.08256
28

C     3.06129   1.30178  -1.40148
N     2.29115   0.52350  -0.44217
C     1.55532  -0.52948  -0.82515
O     1.61660  -1.03370  -1.95484
C     0.69712  -1.17858   0.23585
O     0.23992  -0.57351   1.31412
C    -0.44756   0.60899   1.37099
C    -0.22180   1.70754   0.53254
N    -0.06609   2.64231  -0.15840
C    -1.31926   0.70202   2.47106
N    -2.06033   0.77858   3.37299
C    -1.69147  -0.50732  -1.06520
C    -1.35450   0.29249  -2.26858
C    -1.16713  -1.74415  -0.75338
C    -1.79386  -2.60082   0.31625
H     3.74618   1.99650  -0.89486
H     2.38768   1.91639  -2.05737
H     3.64798   0.65056  -2.07056
H     2.25761   0.91111   0.50049
H     0.99604  -2.21910   0.47328
H    -2.47988  -0.08662  -0.42599
H    -0.98226   1.27283  -2.00883
H    -0.61721  -0.22624  -2.92251
H    -2.27050   0.46659  -2.90057
H    -0.61986  -2.27025  -1.53359
H    -1.08176  -3.25055   0.78385
H    -2.61524  -3.27046  -0.09974
H    -2.30143  -1.97742   1.08504
28

C     3.06045   1.29675  -1.39537
N     2.28510   0.51584  -0.44084
C     1.54707  -0.53275  -0.83108
O     1.61414  -1.03319  -1.96337
C     0.67678  -1.18188   0.22318
O     0.24216  -0.57193   1.31615
C    -0.45519   0.60777   1.36456
C    -0.22509   1.70784   0.52963
N    -0.06602   2.64338  -0.16029
C    -1.32273   0.70310   2.46782
N    -2.06075   0.77972   3.37249
C    -1.68201  -0.50378  -1.05741
C    -1.35150   0.29679  -2.26075
C    -1.14253  -1.73761  -0.74135
C    -1.78222  -2.59999   0.31831
H     3.74550   1.99450  -0.89179
H     2.38831   1.91559  -2.05592
H     3.64837   0.64952  -2.06865
H     2.25476   0.90847   0.50098
H     0.99408  -2.21901   0.47152
H    -2.47982  -0.08830  -0.42500
H    -0.98376   1.27514  -2.00662
H    -0.61546  -0.22341  -2.92039
H    -2.27054   0.46589  -2.89761
H    -0.61461  -2.26804  -1.53194
H    -1.08114  -3.25509   0.78252
H    -2.61475  -3.26527  -0.10211
H    -2.29572  -1.97773   1.08752
28

C     3.05960   1.29172  -1.38926
N     2.27905   0.50818  -0.43951
C     1.53882  -0.53602  -0.83701
O     1.61168  -1.03268  -1.97191
C     0.65643  -1.18518   0.21052
O     0.24440  -0.57036   1.31819
C    -0.46281   0.60655   1.35812
C    -0.22837   1.70815   0.52672
N    -0.06595   2.64445  -0.16218
C    -1.32620   0.70419   2.46457
N    -2.06116   0.78087   3.37199
C    -1.67256  -0.50025  -1.04962
C    -1.34850   0.30109  -2.25292
C    -1.11793  -1.73107  -0.72933
C    -1.77058  -2.59917   0.32037
H     3.74481   1.99249  -0.88872
H     2.38893   1.91480  -2.05447
H     3.64875   0.64849  -2.06674
H     2.25192   0.90583   0.50147
H     0.99212  -2.21893   0.46976
H    -2.47976  -0.08998  -0.42401
H    -0.98526   1.27746  -2.00442
H    -0.61372  -0.22058  -2.91827
H    -2.27058   0.46519  -2.89465
H    -0.60936  -2.26582  -1.53029
H    -1.08052  -3.25962   0.78118
H    -2.61427  -3.26008  -0.10449
H    -2.29001  -1.97803   1.09000
28

C     3.05876   1.28669  -1.38315
N     2.27300   0.50052  -0.43818
C     1.53057  -0.53929  -0.84294
O     1.60922  -1.03216  -1.98044
C     0.63609  -1.18848   0.19785
O     0.24664  -0.56878   1.32022
C    -0.47044   0.60533   1.35169
C    -0.23165   1.70846   0.52381
N    -0.06588   2.64552  -0.16407
C    -1.32967   0.70528   2.46132
N    -2.06158   0.78202   3.37150
C    -1.66310  -0.49671  -1.04184
C    -1.34550   0.30539  -2.24508
C    -1.09333  -1.72453  -0.71731
C    -1.75894  -2.59834   0.32243
H     3.74413   1.99049  -0.88566
H     2.38956   1.91400  -2.05303
H     3.64914   0.64745  -2.06483
H     2.24908   0.90320   0.50196
H     0.99016  -2.21884   0.46801
H    -2.47971  -0.09166  -0.42302
H    -0.98676   1.27977  -2.00222
H    -0.61197  -0.21776  -2.91615
H    -2.27061   0.46449  -2.89169
H    -0.60411  -2.26360  -1.52864
H    -1.07990  -3.26416   0.77985
H    -2.61378  -3.25489  -0.10686
H    -2.28430  -1.97834   1.09249
28

C     3.05792   1.28166  -1.37704
N     2.26695   0.49286  -0.43685
C     1.52232  -0.54256  -0.84887
O     1.60676  -1.03165  -1.98898
C     0.61575  -1.19177   0.18518
O     0.24888  -0.56721   1.32226
C    -0.47806   0.60410   1.34526
C    -0.23493   1.70877   0.52090
N    -0.06581   2.64659  -0.16596
C    -1.33314   0.70637   2.45807
N    -2.06200   0.78317   3.37100
C    -1.65364  -0.49318  -1.03405
C    -1.34249   0.30969  -2.23725
C    -1.06873  -1.71799  -0.70529
C    -1.74730  -2.59752   0.32449
H     3.74345   1.98848  -0.88259
H     2.39018   1.91320  -2.05158
H     3.64953   0.64642  -2.06293
H     2.24623   0.90056   0.50245
H     0.98820  -2.21875   0.46625
H    -2.47965  -0.09334  -0.42204
H    -0.98827   1.28208  -2.00002
H    -0.61023  -0.21493  -2.91403
H    -2.27065   0.46378  -2.88872
H    -0.59886  -2.26139  -1.52699
H    -1.07929  -3.26870   0.77852
H    -2.61329  -3.24970  -0.10924
H    -2.27859  -1.97864   1.09497
