15

C -0.378779010 -0.956310192 -1.164256902
C -1.322231562 1.572150109 0.016575374
C -3.596409541 1.532960912 1.760451227
C 1.267317727 2.068178991 1.240732625
C 2.124328763 -0.155646423 -0.035365431
C 4.521849336 -1.025637724 -0.054867215
O 5.344887425 -3.058342303 -1.252085079
H -1.218855039 -2.643098004 -0.316554184
H -0.502068711 -1.116250375 -3.221686412
H 3.958100513 -3.862385904 -2.120188827
H -1.583403976 3.019521773 -1.444167897
H -3.349354627 0.131170369 3.255900187
H -3.835574224 3.373240539 2.658639962
H -5.323605480 1.068429117 0.729333184
H 5.994977287 -0.028330150 0.964812977

