12

O 1.809502507 2.970555775 3.209370292
C 1.938081665 1.206486366 1.746077516
C 3.768692942 -0.841202476 2.045973027
C 5.181207851 -2.590075237 2.315190988
C 0.429977209 1.053771909 -0.551874748
C -3.642528855 0.082802734 -2.394133315
N -1.848963976 0.235920949 -0.314571729
H 6.462767783 -4.120456768 2.573916378
H -2.704722124 0.775694912 -4.084466197
H -4.240106157 -1.870480284 -2.672603224
H -5.295008160 1.244613385 -1.982254486
H -2.554837703 -0.305082450 1.392622367

