12

O 1.150599908 3.425658726 2.365396249
C 1.243135431 1.688138645 0.866294959
C 3.313011301 -0.122471336 0.802118442
C 4.940204956 -1.696355817 0.776016978
C -0.627010901 1.586108666 -1.210408114
C -2.756408477 -1.145575031 -0.845941323
N -3.186576529 1.622252191 -0.504512467
H 6.413485955 -3.068264934 0.764076120
H -0.779057812 -1.330547774 -1.745380887
H -2.727360079 -2.183049489 0.921714957
H -3.969033750 -1.920770092 -2.308990079
H -3.355225742 1.956911255 1.391667280

