27

C    -2.23110   1.79284   0.85899
C    -1.10599   1.31807   0.02410
N     0.13572   1.27214   0.41293
C     1.26719   0.80235  -0.23180
C     2.59386   0.87305   0.46232
C     1.11982   0.26574  -1.50297
N     1.03463  -0.14401  -2.60923
C    -0.00752  -1.70087   0.58605
C     0.79080  -1.56217   1.86900
C    -1.26444  -1.41612   0.45734
C    -2.10864  -1.56520  -0.78882
H    -3.14265   1.13487   0.76794
H    -2.49570   2.76229   0.48814
H    -1.96352   1.82858   1.91670
H    -1.31582   0.86135  -0.98199
H     0.31228   1.67083   1.33557
H     3.10431   1.75632   0.14862
H     2.47861   0.85987   1.55734
H     3.21359  -0.01803   0.20008
H     0.56374  -2.04311  -0.30296
H     0.52650  -0.66791   2.46042
H     0.51454  -2.43965   2.47474
H     1.88100  -1.57817   1.74259
H    -1.78549  -0.92931   1.34267
H    -2.89937  -0.80797  -0.93479
H    -1.48684  -1.59172  -1.68874
H    -2.58668  -2.52705  -0.64858
27

C    -2.23134   1.78687   0.85796
C    -1.10965   1.29408   0.02856
N     0.13595   1.27592   0.41115
C     1.26098   0.78638  -0.22441
C     2.59078   0.86801   0.46199
C     1.11862   0.26292  -1.50293
N     1.03562  -0.14237  -2.60995
C     0.00205  -1.68227   0.58063
C     0.79039  -1.56163   1.86811
C    -1.26168  -1.38796   0.45333
C    -2.10655  -1.56217  -0.78630
H    -3.14459   1.13622   0.76735
H    -2.49157   2.76104   0.48690
H    -1.96434   1.82657   1.91665
H    -1.31657   0.86311  -0.98268
H     0.31177   1.66978   1.33585
H     3.10048   1.75574   0.14674
H     2.47900   0.85921   1.55729
H     3.21394  -0.01832   0.19949
H     0.56315  -2.04329  -0.30288
H     0.52756  -0.66808   2.46119
H     0.51077  -2.43964   2.47245
H     1.88099  -1.58073   1.74434
H    -1.78478  -0.93044   1.34352
H    -2.90144  -0.81038  -0.93476
H    -1.48705  -1.59031  -1.68858
H    -2.58198  -2.52758  -0.64528
27

C    -2.23159   1.78089   0.85693
C    -1.11331   1.27010   0.03303
N     0.13617   1.27970   0.40936
C     1.25476   0.77041  -0.21702
C     2.58770   0.86298   0.46167
C     1.11742   0.26009  -1.50290
N     1.03661  -0.14073  -2.61068
C     0.01161  -1.66366   0.57521
C     0.78997  -1.56109   1.86722
C    -1.25893  -1.35980   0.44932
C    -2.10445  -1.55914  -0.78377
H    -3.14654   1.13757   0.76676
H    -2.48744   2.75979   0.48566
H    -1.96517   1.82456   1.91659
H    -1.31733   0.86486  -0.98336
H     0.31125   1.66873   1.33613
H     3.09665   1.75516   0.14487
H     2.47938   0.85856   1.55725
H     3.21428  -0.01862   0.19890
H     0.56256  -2.04347  -0.30280
H     0.52862  -0.66826   2.46196
H     0.50700  -2.43964   2.47016
H     1.88098  -1.58330   1.74609
H    -1.78407  -0.93157   1.34437
H    -2.90350  -0.81280  -0.93474
H    -1.48726  -1.58891  -1.68842
H    -2.57729  -2.52812  -0.64197
27

C    -2.23183   1.77492   0.85591
C    -1.11697   1.24612   0.03749
N     0.13640   1.28349   0.40758
C     1.24855   0.75445  -0.20962
C     2.58462   0.85794   0.46135
C     1.11623   0.25726  -1.50287
N     1.03761  -0.13910  -2.61140
C     0.02118  -1.64505   0.56979
C     0.78956  -1.56056   1.86633
C    -1.25618  -1.33163   0.44532
C    -2.10235  -1.55610  -0.78125
H    -3.14848   1.13892   0.76617
H    -2.48331   2.75853   0.48441
H    -1.96599   1.82255   1.91654
H    -1.31808   0.86662  -0.98404
H     0.31073   1.66768   1.33641
H     3.09283   1.75459   0.14299
H     2.47976   0.85791   1.55721
H     3.21462  -0.01891   0.19831
H     0.56197  -2.04365  -0.30272
H     0.52968  -0.66844   2.46273
H     0.50323  -2.43963   2.46788
H     1.88097  -1.58586   1.74784
H    -1.78336  -0.93270   1.34522
H    -2.90557  -0.81521  -0.93472
H    -1.48747  -1.58750  -1.68826
H    -2.57259  -2.52866  -0.63867
27

C    -2.23207   1.76895   0.85488
C    -1.12064   1.22213   0.04196
N     0.13663   1.28727   0.40580
C     1.24233   0.73848  -0.20223
C     2.58154   0.85291   0.46102
C     1.11503   0.25443  -1.50284
N     1.03860  -0.13746  -2.61212
C     0.03074  -1.62644   0.56438
C     0.78915  -1.56002   1.86544
C    -1.25342  -1.30347   0.44131
C    -2.10025  -1.55307  -0.77872
H    -3.15043   1.14027   0.76558
H    -2.47918   2.75728   0.48317
H    -1.96682   1.82054   1.91648
H    -1.31883   0.86837  -0.98473
H     0.31022   1.66663   1.33669
H     3.08900   1.75401   0.14111
H     2.48014   0.85726   1.55717
H     3.21497  -0.01920   0.19772
H     0.56138  -2.04383  -0.30264
H     0.53075  -0.66861   2.46350
H     0.49946  -2.43963   2.46559
H     1.88095  -1.58843   1.74958
H    -1.78265  -0.93383   1.34607
H    -2.90763  -0.81762  -0.93470
H    -1.48768  -1.58609  -1.68811
H    -2.56789  -2.52920  -0.63536
27

C    -2.23232   1.76298   0.85385
C    -1.12430   1.19815   0.04642
N     0.13685   1.29106   0.40401
C     1.23612   0.72251  -0.19483
C     2.57847   0.84787   0.46070
C     1.11383   0.25160  -1.50280
N     1.03959  -0.13582  -2.61285
C     0.04031  -1.60784   0.55896
C     0.78874  -1.55948   1.86455
C    -1.25067  -1.27531   0.43730
C    -2.09815  -1.55003  -0.77620
H    -3.15238   1.14162   0.76499
H    -2.47505   2.75603   0.48192
H    -1.96764   1.81853   1.91643
H    -1.31959   0.87013  -0.98541
H     0.30970   1.66558   1.33697
H     3.08517   1.75343   0.13924
H     2.48053   0.85661   1.55713
H     3.21531  -0.01950   0.19713
H     0.56079  -2.04400  -0.30256
H     0.53181  -0.66879   2.46427
H     0.49569  -2.43963   2.46330
H     1.88094  -1.59099   1.75133
H    -1.78195  -0.93496   1.34692
H    -2.90969  -0.82004  -0.93468
H    -1.48789  -1.58468  -1.68795
H    -2.56320  -2.52974  -0.63205
27

C    -2.23256   1.75701   0.85283
C    -1.12796   1.17416   0.05089
N     0.13708   1.29484   0.40223
C     1.22990   0.70654  -0.18744
C     2.57539   0.84284   0.46038
C     1.11263   0.24878  -1.50277
N     1.04058  -0.13419  -2.61357
C     0.04987  -1.58923   0.55354
C     0.78833  -1.55895   1.86366
C    -1.24792  -1.24714   0.43329
C    -2.09606  -1.54700  -0.77367
H    -3.15432   1.14297   0.76440
H    -2.47092   2.75478   0.48068
H    -1.96847   1.81652   1.91638
H    -1.32034   0.87188  -0.98609
H     0.30919   1.66453   1.33725
H     3.08135   1.75285   0.13736
H     2.48091   0.85596   1.55709
H     3.21565  -0.01979   0.19654
H     0.56020  -2.04418  -0.30248
H     0.53287  -0.66897   2.46504
H     0.49192  -2.43962   2.46101
H     1.88093  -1.59356   1.75308
H    -1.78124  -0.93609   1.34778
H    -2.91176  -0.82245  -0.93466
H    -1.48810  -1.58328  -1.68779
H    -2.55850  -2.53028  -0.62875
27

C    -2.23280   1.75104   0.85180
C    -1.13162   1.15018   0.05536
N     0.13730   1.29863   0.40045
C     1.22369   0.69058  -0.18005
C     2.57231   0.83780   0.46005
C     1.11143   0.24595  -1.50274
N     1.04157  -0.13255  -2.61429
C     0.05944  -1.57062   0.54812
C     0.78791  -1.55841   1.86277
C    -1.24517  -1.21898   0.42929
C    -2.09396  -1.54396  -0.77115
H    -3.15627   1.14432   0.76381
H    -2.46679   2.75353   0.47943
H    -1.96929   1.81451   1.91632
H    -1.32110   0.87364  -0.98678
H     0.30867   1.66348   1.33753
H     3.07752   1.75228   0.13549
H     2.48129   0.85531   1.55705
H     3.21600  -0.02008   0.19595
H     0.55961  -2.04436  -0.30240
H     0.53393  -0.66915   2.46581
H     0.48815  -2.43962   2.45873
H     1.88092  -1.59613   1.75483
H    -1.78053  -0.93722   1.34863
H    -2.91382  -0.82486  -0.93464
H    -1.48830  -1.58187  -1.68763
H    -2.55380  -2.53082  -0.62544
27

C    -2.23305   1.74506   0.85077
C    -1.13528   1.12620   0.05982
N     0.13753   1.30241   0.39866
C     1.21747   0.67461  -0.17265
C     2.56923   0.83276   0.45973
C     1.11024   0.24312  -1.50271
N     1.04257  -0.13091  -2.61502
C     0.06900  -1.55201   0.54270
C     0.78750  -1.55787   1.86188
C    -1.24241  -1.19082   0.42528
C    -2.09186  -1.54093  -0.76862
H    -3.15821   1.14567   0.76322
H    -2.46266   2.75228   0.47819
H    -1.97011   1.81250   1.91627
H    -1.32185   0.87539  -0.98746
H     0.30816   1.66243   1.33782
H     3.07369   1.75170   0.13361
H     2.48168   0.85465   1.55701
H     3.21634  -0.02037   0.19536
H     0.55902  -2.04454  -0.30232
H     0.53499  -0.66932   2.46658
H     0.48438  -2.43961   2.45644
H     1.88090  -1.59869   1.75657
H    -1.77982  -0.93835   1.34948
H    -2.91588  -0.82727  -0.93462
H    -1.48851  -1.58046  -1.68747
H    -2.54911  -2.53136  -0.62214
27

C    -2.23329   1.73909   0.84975
C    -1.13894   1.10221   0.06429
N     0.13775   1.30620   0.39688
C     1.21126   0.65864  -0.16526
C     2.56615   0.82773   0.45941
C     1.10904   0.24029  -1.50268
N     1.04356  -0.12928  -2.61574
C     0.07857  -1.53341   0.53729
C     0.78709  -1.55733   1.86099
C    -1.23966  -1.16265   0.42127
C    -2.08976  -1.53789  -0.76610
H    -3.16016   1.14702   0.76263
H    -2.45853   2.75102   0.47695
H    -1.97094   1.81049   1.91621
H    -1.32261   0.87715  -0.98814
H     0.30764   1.66138   1.33810
H     3.06987   1.75112   0.13173
H     2.48206   0.85400   1.55697
H     3.21668  -0.02067   0.19477
H     0.55843  -2.04471  -0.30224
H     0.53605  -0.66950   2.46735
H     0.48061  -2.43961   2.45415
H     1.88089  -1.60126   1.75832
H    -1.77911  -0.93948   1.35033
H    -2.91795  -0.82969  -0.93460
H    -1.48872  -1.57906  -1.68732
H    -2.54441  -2.53189  -0.61883
27

C    -2.23354   1.73312   0.84872
C    -1.14260   1.07823   0.06875
N     0.13798   1.30998   0.39510
C     1.20504   0.64267  -0.15786
C     2.56308   0.82269   0.45908
C     1.10784   0.23746  -1.50264
N     1.04455  -0.12764  -2.61646
C     0.08813  -1.51480   0.53187
C     0.78668  -1.55680   1.86010
C    -1.23691  -1.13449   0.41726
C    -2.08766  -1.53486  -0.76357
H    -3.16210   1.14837   0.76204
H    -2.45440   2.74977   0.47570
H    -1.97176   1.80848   1.91616
H    -1.32336   0.87890  -0.98883
H     0.30712   1.66033   1.33838
H     3.06604   1.75055   0.12986
H     2.48244   0.85335   1.55693
H     3.21703  -0.02096   0.19418
H     0.55784  -2.04489  -0.30217
H     0.53711  -0.66968   2.46812
H     0.47684  -2.43960   2.45186
H     1.88088  -1.60382   1.76007
H    -1.77840  -0.94061   1.35118
H    -2.92001  -0.83210  -0.93458
H    -1.48893  -1.57765  -1.68716
H    -2.53972  -2.53243  -0.61553
27

C    -2.23378   1.72715   0.84769
C    -1.14626   1.05424   0.07322
N     0.13821   1.31376   0.39331
C     1.19883   0.62671  -0.15047
C     2.56000   0.81766   0.45876
C     1.10664   0.23464  -1.50261
N     1.04554  -0.12600  -2.61719
C     0.09770  -1.49619   0.52645
C     0.78627  -1.55626   1.85921
C    -1.23415  -1.10633   0.41326
C    -2.08557  -1.53182  -0.76105
H    -3.16405   1.14972   0.76145
H    -2.45027   2.74852   0.47446
H    -1.97259   1.80647   1.91611
H    -1.32412   0.88066  -0.98951
H     0.30661   1.65928   1.33866
H     3.06221   1.74997   0.12798
H     2.48283   0.85270   1.55689
H     3.21737  -0.02125   0.19359
H     0.55725  -2.04507  -0.30209
H     0.53818  -0.66985   2.46889
H     0.47307  -2.43960   2.44958
H     1.88087  -1.60639   1.76181
H    -1.77769  -0.94174   1.35203
H    -2.92207  -0.83451  -0.93456
H    -1.48914  -1.57624  -1.68700
H    -2.53502  -2.53297  -0.61222
27

C    -2.23402   1.72118   0.84667
C    -1.14992   1.03026   0.07768
N     0.13843   1.31755   0.39153
C     1.19261   0.61074  -0.14308
C     2.55692   0.81262   0.45844
C     1.10545   0.23181  -1.50258
N     1.04653  -0.12437  -2.61791
C     0.10727  -1.47758   0.52103
C     0.78585  -1.55572   1.85832
C    -1.23140  -1.07817   0.40925
C    -2.08347  -1.52879  -0.75852
H    -3.16599   1.15107   0.76086
H    -2.44614   2.74727   0.47321
H    -1.97341   1.80446   1.91605
H    -1.32487   0.88241  -0.99019
H     0.30609   1.65823   1.33894
H     3.05839   1.74939   0.12610
H     2.48321   0.85205   1.55685
H     3.21771  -0.02155   0.19300
H     0.55666  -2.04525  -0.30201
H     0.53924  -0.67003   2.46966
H     0.46929  -2.43960   2.44729
H     1.88086  -1.60896   1.76356
H    -1.77698  -0.94287   1.35288
H    -2.92414  -0.83693  -0.93454
H    -1.48935  -1.57483  -1.68684
H    -2.53032  -2.53351  -0.60891
27

C    -2.23427   1.71521   0.84564
C    -1.15358   1.00628   0.08215
N     0.13866   1.32133   0.38975
C     1.18640   0.59477  -0.13568
C     2.55384   0.80759   0.45811
C     1.10425   0.22898  -1.50255
N     1.04753  -0.12273  -2.61863
C     0.11683  -1.45897   0.51561
C     0.78544  -1.55519   1.85743
C    -1.22865  -1.05000   0.40524
C    -2.08137  -1.52575  -0.75600
H    -3.16794   1.15242   0.76027
H    -2.44201   2.74602   0.47197
H    -1.97424   1.80245   1.91600
H    -1.32563   0.88417  -0.99088
H     0.30558   1.65718   1.33922
H     3.05456   1.74882   0.12423
H     2.48359   0.85140   1.55681
H     3.21806  -0.02184   0.19241
H     0.55607  -2.04543  -0.30193
H     0.54030  -0.67021   2.47043
H     0.46552  -2.43959   2.44500
H     1.88084  -1.61152   1.76531
H    -1.77628  -0.94400   1.35373
H    -2.92620  -0.83934  -0.93452
H    -1.48956  -1.57343  -1.68668
H    -2.52563  -2.53405  -0.60561
27

C    -2.23451   1.70923   0.84461
C    -1.15724   0.98229   0.08661
N     0.13888   1.32512   0.38797
C     1.18018   0.57880  -0.12829
C     2.55076   0.80255   0.45779
C     1.10305   0.22615  -1.50251
N     1.04852  -0.12109  -2.61936
C     0.12640  -1.44037   0.51019
C     0.78503  -1.55465   1.85654
C    -1.22589  -1.02184   0.40123
C    -2.07927  -1.52272  -0.75347
H    -3.16989   1.15377   0.75968
H    -2.43788   2.74476   0.47072
H    -1.97506   1.80044   1.91595
H    -1.32638   0.88592  -0.99156
H     0.30506   1.65613   1.33950
H     3.05073   1.74824   0.12235
H     2.48397   0.85075   1.55677
H     3.21840  -0.02213   0.19182
H     0.55548  -2.04560  -0.30185
H     0.54136  -0.67038   2.47120
H     0.46175  -2.43959   2.44272
H     1.88083  -1.61409   1.76706
H    -1.77557  -0.94513   1.35458
H    -2.92827  -0.84175  -0.93450
H    -1.48977  -1.57202  -1.68653
H    -2.52093  -2.53459  -0.60230
27

C    -2.23475   1.70326   0.84359
C    -1.16090   0.95831   0.09108
N     0.13911   1.32890   0.38618
C     1.17397   0.56284  -0.12089
C     2.54769   0.79752   0.45747
C     1.10185   0.22332  -1.50248
N     1.04951  -0.11946  -2.62008
C     0.13596  -1.42176   0.50478
C     0.78462  -1.55411   1.85565
C    -1.22314  -0.99368   0.39723
C    -2.07717  -1.51968  -0.75095
H    -3.17183   1.15512   0.75909
H    -2.43375   2.74351   0.46948
H    -1.97589   1.79843   1.91589
H    -1.32714   0.88768  -0.99224
H     0.30455   1.65508   1.33978
H     3.04691   1.74766   0.12048
H     2.48436   0.85009   1.55673
H     3.21874  -0.02242   0.19123
H     0.55489  -2.04578  -0.30177
H     0.54242  -0.67056   2.47197
H     0.45798  -2.43958   2.44043
H     1.88082  -1.61665   1.76880
H    -1.77486  -0.94626   1.35544
H    -2.93033  -0.84416  -0.93448
H    -1.48998  -1.57061  -1.68637
H    -2.51623  -2.53513  -0.59900
27

C    -2.23500   1.69729   0.84256
C    -1.16457   0.93433   0.09555
N     0.13933   1.33269   0.38440
C     1.16775   0.54687  -0.11350
C     2.54461   0.79248   0.45714
C     1.10065   0.22050  -1.50245
N     1.05050  -0.11782  -2.62081
C     0.14553  -1.40315   0.49936
C     0.78421  -1.55357   1.85476
C    -1.22039  -0.96551   0.39322
C    -2.07508  -1.51665  -0.74842
H    -3.17378   1.15647   0.75850
H    -2.42962   2.74226   0.46823
H    -1.97671   1.79642   1.91584
H    -1.32789   0.88943  -0.99293
H     0.30403   1.65403   1.34007
H     3.04308   1.74708   0.11860
H     2.48474   0.84944   1.55669
H     3.21909  -0.02272   0.19064
H     0.55430  -2.04596  -0.30169
H     0.54348  -0.67074   2.47274
H     0.45421  -2.43958   2.43814
H     1.88081  -1.61922   1.77055
H    -1.77415  -0.94739   1.35629
H    -2.93239  -0.84658  -0.93446
H    -1.49018  -1.56921  -1.68621
H    -2.51154  -2.53566  -0.59569
27

C    -2.23524   1.69132   0.84153
C    -1.16823   0.91034   0.10001
N     0.13956   1.33647   0.38262
C     1.16154   0.53090  -0.10611
C     2.54153   0.78744   0.45682
C     1.09946   0.21767  -1.50242
N     1.05149  -0.11618  -2.62153
C     0.15509  -1.38454   0.49394
C     0.78379  -1.55304   1.85387
C    -1.21763  -0.93735   0.38921
C    -2.07298  -1.51361  -0.74590
H    -3.17572   1.15782   0.75790
H    -2.42549   2.74101   0.46699
H    -1.97754   1.79441   1.91578
H    -1.32865   0.89119  -0.99361
H     0.30352   1.65298   1.34035
H     3.03925   1.74651   0.11672
H     2.48512   0.84879   1.55665
H     3.21943  -0.02301   0.19005
H     0.55371  -2.04614  -0.30161
H     0.54454  -0.67092   2.47351
H     0.45044  -2.43957   2.43585
H     1.88079  -1.62178   1.77230
H    -1.77344  -0.94852   1.35714
H    -2.93446  -0.84899  -0.93443
H    -1.49039  -1.56780  -1.68605
H    -2.50684  -2.53620  -0.59238
27

C    -2.23548   1.68535   0.84051
C    -1.17189   0.88636   0.10448
N     0.13979   1.34025   0.38083
C     1.15532   0.51493  -0.09871
C     2.53845   0.78241   0.45649
C     1.09826   0.21484  -1.50239
N     1.05249  -0.11455  -2.62225
C     0.16466  -1.36594   0.48852
C     0.78338  -1.55250   1.85299
C    -1.21488  -0.90919   0.38520
C    -2.07088  -1.51058  -0.74337
H    -3.17767   1.15917   0.75731
H    -2.42136   2.73976   0.46575
H    -1.97836   1.79240   1.91573
H    -1.32940   0.89294  -0.99429
H     0.30300   1.65192   1.34063
H     3.03543   1.74593   0.11485
H     2.48551   0.84814   1.55661
H     3.21978  -0.02330   0.18946
H     0.55312  -2.04632  -0.30153
H     0.54560  -0.67109   2.47428
H     0.44667  -2.43957   2.43357
H     1.88078  -1.62435   1.77405
H    -1.77273  -0.94965   1.35799
H    -2.93652  -0.85140  -0.93441
H    -1.49060  -1.56639  -1.68589
H    -2.50215  -2.53674  -0.58908
27

C    -2.23573   1.67937   0.83948
C    -1.17555   0.86237   0.10894
N     0.14001   1.34404   0.37905
C     1.14911   0.49897  -0.09132
C     2.53537   0.77737   0.45617
C     1.09706   0.21201  -1.50235
N     1.05348  -0.11291  -2.62298
C     0.17422  -1.34733   0.48310
C     0.78297  -1.55196   1.85210
C    -1.21213  -0.88102   0.38120
C    -2.06878  -1.50754  -0.74085
H    -3.17961   1.16052   0.75672
H    -2.41722   2.73850   0.46450
H    -1.97919   1.79039   1.91568
H    -1.33016   0.89470  -0.99498
H     0.30248   1.65087   1.34091
H     3.03160   1.74535   0.11297
H     2.48589   0.84749   1.55657
H     3.22012  -0.02359   0.18887
H     0.55253  -2.04649  -0.30145
H     0.54667  -0.67127   2.47505
H     0.44290  -2.43957   2.43128
H     1.88077  -1.62692   1.77579
H    -1.77202  -0.95079   1.35884
H    -2.93858  -0.85382  -0.93439
H    -1.49081  -1.56498  -1.68574
H    -2.49745  -2.53728  -0.58577
27

C    -2.23597   1.67340   0.83845
C    -1.17921   0.83839   0.11341
N     0.14024   1.34782   0.37727
C     1.14290   0.48300  -0.08392
C     2.53230   0.77234   0.45585
C     1.09586   0.20919  -1.50232
N     1.05447  -0.11127  -2.62370
C     0.18379  -1.32872   0.47769
C     0.78256  -1.55143   1.85121
C    -1.20938  -0.85286   0.37719
C    -2.06669  -1.50451  -0.73832
H    -3.18156   1.16187   0.75613
H    -2.41309   2.73725   0.46326
H    -1.98001   1.78838   1.91562
H    -1.33091   0.89645  -0.99566
H     0.30197   1.64982   1.34119
H     3.02777   1.74478   0.11110
H     2.48627   0.84684   1.55653
H     3.22046  -0.02389   0.18828
H     0.55194  -2.04667  -0.30137
H     0.54773  -0.67145   2.47583
H     0.43913  -2.43956   2.42899
H     1.88076  -1.62948   1.77754
H    -1.77132  -0.95192   1.35969
H    -2.94065  -0.85623  -0.93437
H    -1.49102  -1.56358  -1.68558
H    -2.49275  -2.53782  -0.58247
27

C    -2.23573   1.67937   0.83948
C    -1.17555   0.86237   0.10894
N     0.14001   1.34404   0.37905
C     1.14911   0.49897  -0.09132
C     2.53537   0.77737   0.45617
C     1.09706   0.21201  -1.50235
N     1.05348  -0.11291  -2.62298
C     0.17422  -1.34733   0.48310
C     0.78297  -1.55196   1.85210
C    -1.21213  -0.88102   0.38120
C    -2.06878  -1.50754  -0.74085
H    -3.17961   1.16052   0.75672
H    -2.41722   2.73850   0.46450
H    -1.97919   1.79039   1.91568
H    -1.33016   0.89470  -0.99498
H     0.30248   1.65087   1.34091
H     3.03160   1.74535   0.11297
H     2.48589   0.84749   1.55657
H     3.22012  -0.02359   0.18887
H     0.55253  -2.04649  -0.30145
H     0.54667  -0.67127   2.47505
H     0.44290  -2.43957   2.43128
H     1.88077  -1.62692   1.77579
H    -1.77202  -0.95079   1.35884
H    -2.93858  -0.85382  -0.93439
H    -1.49081  -1.56498  -1.68574
H    -2.49745  -2.53728  -0.58577
27

C    -2.23548   1.68535   0.84051
C    -1.17189   0.88636   0.10448
N     0.13979   1.34025   0.38083
C     1.15532   0.51493  -0.09871
C     2.53845   0.78241   0.45649
C     1.09826   0.21484  -1.50239
N     1.05249  -0.11455  -2.62225
C     0.16466  -1.36594   0.48852
C     0.78338  -1.55250   1.85299
C    -1.21488  -0.90919   0.38520
C    -2.07088  -1.51058  -0.74337
H    -3.17767   1.15917   0.75731
H    -2.42136   2.73976   0.46575
H    -1.97836   1.79240   1.91573
H    -1.32940   0.89294  -0.99429
H     0.30300   1.65192   1.34063
H     3.03543   1.74593   0.11485
H     2.48551   0.84814   1.55661
H     3.21978  -0.02330   0.18946
H     0.55312  -2.04632  -0.30153
H     0.54560  -0.67109   2.47428
H     0.44667  -2.43957   2.43357
H     1.88078  -1.62435   1.77405
H    -1.77273  -0.94965   1.35799
H    -2.93652  -0.85140  -0.93441
H    -1.49060  -1.56639  -1.68589
H    -2.50215  -2.53674  -0.58908
27

C    -2.23524   1.69132   0.84153
C    -1.16823   0.91034   0.10001
N     0.13956   1.33647   0.38262
C     1.16154   0.53090  -0.10611
C     2.54153   0.78744   0.45682
C     1.09946   0.21767  -1.50242
N     1.05149  -0.11618  -2.62153
C     0.15509  -1.38454   0.49394
C     0.78379  -1.55304   1.85387
C    -1.21763  -0.93735   0.38921
C    -2.07298  -1.51361  -0.74590
H    -3.17572   1.15782   0.75790
H    -2.42549   2.74101   0.46699
H    -1.97754   1.79441   1.91578
H    -1.32865   0.89119  -0.99361
H     0.30352   1.65298   1.34035
H     3.03925   1.74651   0.11672
H     2.48512   0.84879   1.55665
H     3.21943  -0.02301   0.19005
H     0.55371  -2.04614  -0.30161
H     0.54454  -0.67092   2.47351
H     0.45044  -2.43957   2.43585
H     1.88079  -1.62178   1.77230
H    -1.77344  -0.94852   1.35714
H    -2.93446  -0.84899  -0.93443
H    -1.49039  -1.56780  -1.68605
H    -2.50684  -2.53620  -0.59238
27

C    -2.23500   1.69729   0.84256
C    -1.16457   0.93433   0.09555
N     0.13933   1.33269   0.38440
C     1.16775   0.54687  -0.11350
C     2.54461   0.79248   0.45714
C     1.10065   0.22050  -1.50245
N     1.05050  -0.11782  -2.62081
C     0.14553  -1.40315   0.49936
C     0.78421  -1.55357   1.85476
C    -1.22039  -0.96551   0.39322
C    -2.07508  -1.51665  -0.74842
H    -3.17378   1.15647   0.75850
H    -2.42962   2.74226   0.46823
H    -1.97671   1.79642   1.91584
H    -1.32789   0.88943  -0.99293
H     0.30403   1.65403   1.34007
H     3.04308   1.74708   0.11860
H     2.48474   0.84944   1.55669
H     3.21909  -0.02272   0.19064
H     0.55430  -2.04596  -0.30169
H     0.54348  -0.67074   2.47274
H     0.45421  -2.43958   2.43814
H     1.88081  -1.61922   1.77055
H    -1.77415  -0.94739   1.35629
H    -2.93239  -0.84658  -0.93446
H    -1.49018  -1.56921  -1.68621
H    -2.51154  -2.53566  -0.59569
27

C    -2.23475   1.70326   0.84359
C    -1.16090   0.95831   0.09108
N     0.13911   1.32890   0.38618
C     1.17397   0.56284  -0.12089
C     2.54769   0.79752   0.45747
C     1.10185   0.22332  -1.50248
N     1.04951  -0.11946  -2.62008
C     0.13596  -1.42176   0.50478
C     0.78462  -1.55411   1.85565
C    -1.22314  -0.99368   0.39723
C    -2.07717  -1.51968  -0.75095
H    -3.17183   1.15512   0.75909
H    -2.43375   2.74351   0.46948
H    -1.97589   1.79843   1.91589
H    -1.32714   0.88768  -0.99224
H     0.30455   1.65508   1.33978
H     3.04691   1.74766   0.12048
H     2.48436   0.85009   1.55673
H     3.21874  -0.02242   0.19123
H     0.55489  -2.04578  -0.30177
H     0.54242  -0.67056   2.47197
H     0.45798  -2.43958   2.44043
H     1.88082  -1.61665   1.76880
H    -1.77486  -0.94626   1.35544
H    -2.93033  -0.84416  -0.93448
H    -1.48998  -1.57061  -1.68637
H    -2.51623  -2.53513  -0.59900
27

C    -2.23451   1.70923   0.84461
C    -1.15724   0.98229   0.08661
N     0.13888   1.32512   0.38797
C     1.18018   0.57880  -0.12829
C     2.55076   0.80255   0.45779
C     1.10305   0.22615  -1.50251
N     1.04852  -0.12109  -2.61936
C     0.12640  -1.44037   0.51019
C     0.78503  -1.55465   1.85654
C    -1.22589  -1.02184   0.40123
C    -2.07927  -1.52272  -0.75347
H    -3.16989   1.15377   0.75968
H    -2.43788   2.74476   0.47072
H    -1.97506   1.80044   1.91595
H    -1.32638   0.88592  -0.99156
H     0.30506   1.65613   1.33950
H     3.05073   1.74824   0.12235
H     2.48397   0.85075   1.55677
H     3.21840  -0.02213   0.19182
H     0.55548  -2.04560  -0.30185
H     0.54136  -0.67038   2.47120
H     0.46175  -2.43959   2.44272
H     1.88083  -1.61409   1.76706
H    -1.77557  -0.94513   1.35458
H    -2.92827  -0.84175  -0.93450
H    -1.48977  -1.57202  -1.68653
H    -2.52093  -2.53459  -0.60230
27

C    -2.23427   1.71521   0.84564
C    -1.15358   1.00628   0.08215
N     0.13866   1.32133   0.38975
C     1.18640   0.59477  -0.13568
C     2.55384   0.80759   0.45811
C     1.10425   0.22898  -1.50255
N     1.04753  -0.12273  -2.61863
C     0.11683  -1.45897   0.51561
C     0.78544  -1.55519   1.85743
C    -1.22865  -1.05000   0.40524
C    -2.08137  -1.52575  -0.75600
H    -3.16794   1.15242   0.76027
H    -2.44201   2.74602   0.47197
H    -1.97424   1.80245   1.91600
H    -1.32563   0.88417  -0.99088
H     0.30558   1.65718   1.33922
H     3.05456   1.74882   0.12423
H     2.48359   0.85140   1.55681
H     3.21806  -0.02184   0.19241
H     0.55607  -2.04543  -0.30193
H     0.54030  -0.67021   2.47043
H     0.46552  -2.43959   2.44500
H     1.88084  -1.61152   1.76531
H    -1.77628  -0.94400   1.35373
H    -2.92620  -0.83934  -0.93452
H    -1.48956  -1.57343  -1.68668
H    -2.52563  -2.53405  -0.60561
27

C    -2.23402   1.72118   0.84667
C    -1.14992   1.03026   0.07768
N     0.13843   1.31755   0.39153
C     1.19261   0.61074  -0.14308
C     2.55692   0.81262   0.45844
C     1.10545   0.23181  -1.50258
N     1.04653  -0.12437  -2.61791
C     0.10727  -1.47758   0.52103
C     0.78585  -1.55572   1.85832
C    -1.23140  -1.07817   0.40925
C    -2.08347  -1.52879  -0.75852
H    -3.16599   1.15107   0.76086
H    -2.44614   2.74727   0.47321
H    -1.97341   1.80446   1.91605
H    -1.32487   0.88241  -0.99019
H     0.30609   1.65823   1.33894
H     3.05839   1.74939   0.12610
H     2.48321   0.85205   1.55685
H     3.21771  -0.02155   0.19300
H     0.55666  -2.04525  -0.30201
H     0.53924  -0.67003   2.46966
H     0.46929  -2.43960   2.44729
H     1.88086  -1.60896   1.76356
H    -1.77698  -0.94287   1.35288
H    -2.92414  -0.83693  -0.93454
H    -1.48935  -1.57483  -1.68684
H    -2.53032  -2.53351  -0.60891
27

C    -2.23378   1.72715   0.84769
C    -1.14626   1.05424   0.07322
N     0.13821   1.31376   0.39331
C     1.19883   0.62671  -0.15047
C     2.56000   0.81766   0.45876
C     1.10664   0.23464  -1.50261
N     1.04554  -0.12600  -2.61719
C     0.09770  -1.49619   0.52645
C     0.78627  -1.55626   1.85921
C    -1.23415  -1.10633   0.41326
C    -2.08557  -1.53182  -0.76105
H    -3.16405   1.14972   0.76145
H    -2.45027   2.74852   0.47446
H    -1.97259   1.80647   1.91611
H    -1.32412   0.88066  -0.98951
H     0.30661   1.65928   1.33866
H     3.06221   1.74997   0.12798
H     2.48283   0.85270   1.55689
H     3.21737  -0.02125   0.19359
H     0.55725  -2.04507  -0.30209
H     0.53818  -0.66985   2.46889
H     0.47307  -2.43960   2.44958
H     1.88087  -1.60639   1.76181
H    -1.77769  -0.94174   1.35203
H    -2.92207  -0.83451  -0.93456
H    -1.48914  -1.57624  -1.68700
H    -2.53502  -2.53297  -0.61222
27

C    -2.23354   1.73312   0.84872
C    -1.14260   1.07823   0.06875
N     0.13798   1.30998   0.39510
C     1.20504   0.64267  -0.15786
C     2.56308   0.82269   0.45908
C     1.10784   0.23746  -1.50264
N     1.04455  -0.12764  -2.61646
C     0.08813  -1.51480   0.53187
C     0.78668  -1.55680   1.86010
C    -1.23691  -1.13449   0.41726
C    -2.08766  -1.53486  -0.76357
H    -3.16210   1.14837   0.76204
H    -2.45440   2.74977   0.47570
H    -1.97176   1.80848   1.91616
H    -1.32336   0.87890  -0.98883
H     0.30712   1.66033   1.33838
H     3.06604   1.75055   0.12986
H     2.48244   0.85335   1.55693
H     3.21703  -0.02096   0.19418
H     0.55784  -2.04489  -0.30217
H     0.53711  -0.66968   2.46812
H     0.47684  -2.43960   2.45186
H     1.88088  -1.60382   1.76007
H    -1.77840  -0.94061   1.35118
H    -2.92001  -0.83210  -0.93458
H    -1.48893  -1.57765  -1.68716
H    -2.53972  -2.53243  -0.61553
27

C    -2.23329   1.73909   0.84975
C    -1.13894   1.10221   0.06429
N     0.13775   1.30620   0.39688
C     1.21126   0.65864  -0.16526
C     2.56615   0.82773   0.45941
C     1.10904   0.24029  -1.50268
N     1.04356  -0.12928  -2.61574
C     0.07857  -1.53341   0.53729
C     0.78709  -1.55733   1.86099
C    -1.23966  -1.16265   0.42127
C    -2.08976  -1.53789  -0.76610
H    -3.16016   1.14702   0.76263
H    -2.45853   2.75102   0.47695
H    -1.97094   1.81049   1.91621
H    -1.32261   0.87715  -0.98814
H     0.30764   1.66138   1.33810
H     3.06987   1.75112   0.13173
H     2.48206   0.85400   1.55697
H     3.21668  -0.02067   0.19477
H     0.55843  -2.04471  -0.30224
H     0.53605  -0.66950   2.46735
H     0.48061  -2.43961   2.45415
H     1.88089  -1.60126   1.75832
H    -1.77911  -0.93948   1.35033
H    -2.91795  -0.82969  -0.93460
H    -1.48872  -1.57906  -1.68732
H    -2.54441  -2.53189  -0.61883
27

C    -2.23305   1.74506   0.85077
C    -1.13528   1.12620   0.05982
N     0.13753   1.30241   0.39866
C     1.21747   0.67461  -0.17265
C     2.56923   0.83276   0.45973
C     1.11024   0.24312  -1.50271
N     1.04257  -0.13091  -2.61502
C     0.06900  -1.55201   0.54270
C     0.78750  -1.55787   1.86188
C    -1.24241  -1.19082   0.42528
C    -2.09186  -1.54093  -0.76862
H    -3.15821   1.14567   0.76322
H    -2.46266   2.75228   0.47819
H    -1.97011   1.81250   1.91627
H    -1.32185   0.87539  -0.98746
H     0.30816   1.66243   1.33782
H     3.07369   1.75170   0.13361
H     2.48168   0.85465   1.55701
H     3.21634  -0.02037   0.19536
H     0.55902  -2.04454  -0.30232
H     0.53499  -0.66932   2.46658
H     0.48438  -2.43961   2.45644
H     1.88090  -1.59869   1.75657
H    -1.77982  -0.93835   1.34948
H    -2.91588  -0.82727  -0.93462
H    -1.48851  -1.58046  -1.68747
H    -2.54911  -2.53136  -0.62214
27

C    -2.23280   1.75104   0.85180
C    -1.13162   1.15018   0.05536
N     0.13730   1.29863   0.40045
C     1.22369   0.69058  -0.18005
C     2.57231   0.83780   0.46005
C     1.11143   0.24595  -1.50274
N     1.04157  -0.13255  -2.61429
C     0.05944  -1.57062   0.54812
C     0.78791  -1.55841   1.86277
C    -1.24517  -1.21898   0.42929
C    -2.09396  -1.54396  -0.77115
H    -3.15627   1.14432   0.76381
H    -2.46679   2.75353   0.47943
H    -1.96929   1.81451   1.91632
H    -1.32110   0.87364  -0.98678
H     0.30867   1.66348   1.33753
H     3.07752   1.75228   0.13549
H     2.48129   0.85531   1.55705
H     3.21600  -0.02008   0.19595
H     0.55961  -2.04436  -0.30240
H     0.53393  -0.66915   2.46581
H     0.48815  -2.43962   2.45873
H     1.88092  -1.59613   1.75483
H    -1.78053  -0.93722   1.34863
H    -2.91382  -0.82486  -0.93464
H    -1.48830  -1.58187  -1.68763
H    -2.55380  -2.53082  -0.62544
27

C    -2.23256   1.75701   0.85283
C    -1.12796   1.17416   0.05089
N     0.13708   1.29484   0.40223
C     1.22990   0.70654  -0.18744
C     2.57539   0.84284   0.46038
C     1.11263   0.24878  -1.50277
N     1.04058  -0.13419  -2.61357
C     0.04987  -1.58923   0.55354
C     0.78833  -1.55895   1.86366
C    -1.24792  -1.24714   0.43329
C    -2.09606  -1.54700  -0.77367
H    -3.15432   1.14297   0.76440
H    -2.47092   2.75478   0.48068
H    -1.96847   1.81652   1.91638
H    -1.32034   0.87188  -0.98609
H     0.30919   1.66453   1.33725
H     3.08135   1.75285   0.13736
H     2.48091   0.85596   1.55709
H     3.21565  -0.01979   0.19654
H     0.56020  -2.04418  -0.30248
H     0.53287  -0.66897   2.46504
H     0.49192  -2.43962   2.46101
H     1.88093  -1.59356   1.75308
H    -1.78124  -0.93609   1.34778
H    -2.91176  -0.82245  -0.93466
H    -1.48810  -1.58328  -1.68779
H    -2.55850  -2.53028  -0.62875
27

C    -2.23232   1.76298   0.85385
C    -1.12430   1.19815   0.04642
N     0.13685   1.29106   0.40401
C     1.23612   0.72251  -0.19483
C     2.57847   0.84787   0.46070
C     1.11383   0.25160  -1.50280
N     1.03959  -0.13582  -2.61285
C     0.04031  -1.60784   0.55896
C     0.78874  -1.55948   1.86455
C    -1.25067  -1.27531   0.43730
C    -2.09815  -1.55003  -0.77620
H    -3.15238   1.14162   0.76499
H    -2.47505   2.75603   0.48192
H    -1.96764   1.81853   1.91643
H    -1.31959   0.87013  -0.98541
H     0.30970   1.66558   1.33697
H     3.08517   1.75343   0.13924
H     2.48053   0.85661   1.55713
H     3.21531  -0.01950   0.19713
H     0.56079  -2.04400  -0.30256
H     0.53181  -0.66879   2.46427
H     0.49569  -2.43963   2.46330
H     1.88094  -1.59099   1.75133
H    -1.78195  -0.93496   1.34692
H    -2.90969  -0.82004  -0.93468
H    -1.48789  -1.58468  -1.68795
H    -2.56320  -2.52974  -0.63205
27

C    -2.23207   1.76895   0.85488
C    -1.12064   1.22213   0.04196
N     0.13663   1.28727   0.40580
C     1.24233   0.73848  -0.20223
C     2.58154   0.85291   0.46102
C     1.11503   0.25443  -1.50284
N     1.03860  -0.13746  -2.61212
C     0.03074  -1.62644   0.56438
C     0.78915  -1.56002   1.86544
C    -1.25342  -1.30347   0.44131
C    -2.10025  -1.55307  -0.77872
H    -3.15043   1.14027   0.76558
H    -2.47918   2.75728   0.48317
H    -1.96682   1.82054   1.91648
H    -1.31883   0.86837  -0.98473
H     0.31022   1.66663   1.33669
H     3.08900   1.75401   0.14111
H     2.48014   0.85726   1.55717
H     3.21497  -0.01920   0.19772
H     0.56138  -2.04383  -0.30264
H     0.53075  -0.66861   2.46350
H     0.49946  -2.43963   2.46559
H     1.88095  -1.58843   1.74958
H    -1.78265  -0.93383   1.34607
H    -2.90763  -0.81762  -0.93470
H    -1.48768  -1.58609  -1.68811
H    -2.56789  -2.52920  -0.63536
27

C    -2.23183   1.77492   0.85591
C    -1.11697   1.24612   0.03749
N     0.13640   1.28349   0.40758
C     1.24855   0.75445  -0.20962
C     2.58462   0.85794   0.46135
C     1.11623   0.25726  -1.50287
N     1.03761  -0.13910  -2.61140
C     0.02118  -1.64505   0.56979
C     0.78956  -1.56056   1.86633
C    -1.25618  -1.33163   0.44532
C    -2.10235  -1.55610  -0.78125
H    -3.14848   1.13892   0.76617
H    -2.48331   2.75853   0.48441
H    -1.96599   1.82255   1.91654
H    -1.31808   0.86662  -0.98404
H     0.31073   1.66768   1.33641
H     3.09283   1.75459   0.14299
H     2.47976   0.85791   1.55721
H     3.21462  -0.01891   0.19831
H     0.56197  -2.04365  -0.30272
H     0.52968  -0.66844   2.46273
H     0.50323  -2.43963   2.46788
H     1.88097  -1.58586   1.74784
H    -1.78336  -0.93270   1.34522
H    -2.90557  -0.81521  -0.93472
H    -1.48747  -1.58750  -1.68826
H    -2.57259  -2.52866  -0.63867
27

C    -2.23159   1.78089   0.85693
C    -1.11331   1.27010   0.03303
N     0.13617   1.27970   0.40936
C     1.25476   0.77041  -0.21702
C     2.58770   0.86298   0.46167
C     1.11742   0.26009  -1.50290
N     1.03661  -0.14073  -2.61068
C     0.01161  -1.66366   0.57521
C     0.78997  -1.56109   1.86722
C    -1.25893  -1.35980   0.44932
C    -2.10445  -1.55914  -0.78377
H    -3.14654   1.13757   0.76676
H    -2.48744   2.75979   0.48566
H    -1.96517   1.82456   1.91659
H    -1.31733   0.86486  -0.98336
H     0.31125   1.66873   1.33613
H     3.09665   1.75516   0.14487
H     2.47938   0.85856   1.55725
H     3.21428  -0.01862   0.19890
H     0.56256  -2.04347  -0.30280
H     0.52862  -0.66826   2.46196
H     0.50700  -2.43964   2.47016
H     1.88098  -1.58330   1.74609
H    -1.78407  -0.93157   1.34437
H    -2.90350  -0.81280  -0.93474
H    -1.48726  -1.58891  -1.68842
H    -2.57729  -2.52812  -0.64197
27

C    -2.23134   1.78687   0.85796
C    -1.10965   1.29408   0.02856
N     0.13595   1.27592   0.41115
C     1.26098   0.78638  -0.22441
C     2.59078   0.86801   0.46199
C     1.11862   0.26292  -1.50293
N     1.03562  -0.14237  -2.60995
C     0.00205  -1.68227   0.58063
C     0.79039  -1.56163   1.86811
C    -1.26168  -1.38796   0.45333
C    -2.10655  -1.56217  -0.78630
H    -3.14459   1.13622   0.76735
H    -2.49157   2.76104   0.48690
H    -1.96434   1.82657   1.91665
H    -1.31657   0.86311  -0.98268
H     0.31177   1.66978   1.33585
H     3.10048   1.75574   0.14674
H     2.47900   0.85921   1.55729
H     3.21394  -0.01832   0.19949
H     0.56315  -2.04329  -0.30288
H     0.52756  -0.66808   2.46119
H     0.51077  -2.43964   2.47245
H     1.88099  -1.58073   1.74434
H    -1.78478  -0.93044   1.34352
H    -2.90144  -0.81038  -0.93476
H    -1.48705  -1.59031  -1.68858
H    -2.58198  -2.52758  -0.64528
