12

C -2.150120577 -1.675567053 1.001942334
C -0.344904101 0.552829268 0.788687573
O -0.379995597 1.815434736 3.105667867
C 2.237040703 -0.276596133 0.130051500
C 4.336182497 -0.959104095 -0.346919569
C -1.955689774 3.588348460 -2.745796418
N -1.217373191 2.225823024 -1.182517363
H -2.248017423 -2.683364477 -0.787882341
H -1.471133136 -2.941415650 2.473939737
H -4.015189064 -0.966735508 1.506312637
H 0.909154193 3.095926329 3.103493397
H 6.205814276 -1.562597355 -0.783631403

