14

C 3.624214687 -0.112656174 -0.214388692
N 2.222903322 -2.307928771 0.702493555
C 1.167108404 -0.800246971 -1.336867547
C -1.099810589 0.814942124 -0.834368716
C -3.406079443 -0.222838848 0.346999542
N -1.652925300 1.331950593 1.810777865
H 5.365600524 -0.531516880 -1.206687810
H 3.669660125 1.555208866 0.978117763
H 1.329939207 -1.814301165 2.331378420
H 1.146134957 -1.741523389 -3.160427822
H -1.372493647 2.347766541 -2.173360334
H -3.454376081 -2.198229527 0.887450783
H -5.215396965 0.575953431 -0.186603293
H -2.324479181 3.103420208 2.055486267

